MODEL 1
REMARK VINA RESULT:      -8.7      0.000      0.000
REMARK  7 active torsions:
REMARK  status: ('A' for Active; 'I' for Inactive)
REMARK    1  A    between atoms: C_2  and  S_3 
REMARK    2  A    between atoms: C_2  and  C_20 
REMARK    3  A    between atoms: S_3  and  C_4 
REMARK    4  A    between atoms: C_4  and  C_5 
REMARK       I    between atoms: C_5  and  N_6 
REMARK    5  A    between atoms: N_6  and  C_7 
REMARK    6  A    between atoms: C_10  and  C_11 
REMARK       I    between atoms: C_11  and  N_12 
REMARK    7  A    between atoms: N_12  and  C_13 
ROOT
HETATM    1  C   UNL     1      26.149  44.538  50.185  1.00  0.00     0.231 C 
HETATM    2  N   UNL     1      24.892  45.069  50.432  1.00  0.00    -0.327 N 
HETATM    3  O   UNL     1      26.929  44.903  49.308  1.00  0.00    -0.272 OA
HETATM    4  H   UNL     1      24.362  44.655  51.191  1.00  0.00     0.169 HD
ENDROOT
BRANCH   1   5
HETATM    5  C   UNL     1      26.514  43.393  51.121  1.00  0.00     0.177 C 
BRANCH   5   6
HETATM    6  S   UNL     1      28.126  43.732  51.900  1.00  0.00    -0.147 SA
BRANCH   6   7
HETATM    7  C   UNL     1      27.534  44.763  53.294  1.00  0.00     0.113 C 
HETATM    8  C   UNL     1      26.143  44.299  53.719  1.00  0.00     0.029 C 
BRANCH   7   9
HETATM    9  C   UNL     1      28.510  44.721  54.428  1.00  0.00     0.118 A 
HETATM   10  N   UNL     1      28.598  45.591  55.417  1.00  0.00    -0.232 NA
HETATM   11  C   UNL     1      29.607  45.133  56.228  1.00  0.00     0.085 A 
HETATM   12  C   UNL     1      30.172  43.973  55.712  1.00  0.00     0.062 A 
HETATM   13  C   UNL     1      30.101  45.657  57.432  1.00  0.00     0.034 A 
HETATM   14  N   UNL     1      29.466  43.740  54.560  1.00  0.00    -0.342 N 
HETATM   15  C   UNL     1      31.219  43.288  56.329  1.00  0.00     0.032 A 
HETATM   16  H   UNL     1      29.617  42.976  53.915  1.00  0.00     0.167 HD
HETATM   17  C   UNL     1      31.697  43.824  57.531  1.00  0.00     0.002 A 
HETATM   18  C   UNL     1      31.149  44.988  58.076  1.00  0.00     0.002 A 
ENDBRANCH   7   9
ENDBRANCH   6   7
ENDBRANCH   5   6
ENDBRANCH   1   5
BRANCH   2  19
HETATM   19  C   UNL     1      24.244  46.102  49.721  1.00  0.00     0.034 A 
HETATM   20  C   UNL     1      23.203  45.892  48.814  1.00  0.00     0.030 A 
HETATM   21  C   UNL     1      22.586  46.972  48.168  1.00  0.00     0.019 A 
HETATM   22  C   UNL     1      22.994  48.282  48.434  1.00  0.00     0.032 A 
HETATM   23  C   UNL     1      24.060  48.494  49.317  1.00  0.00     0.019 A 
HETATM   24  C   UNL     1      24.680  47.411  49.952  1.00  0.00     0.030 A 
BRANCH  22  25
HETATM   25  C   UNL     1      22.347  49.472  47.806  1.00  0.00     0.251 C 
HETATM   26  N   UNL     1      20.984  49.597  47.987  1.00  0.00    -0.353 N 
HETATM   27  H   UNL     1      20.536  48.993  48.661  1.00  0.00     0.163 HD
HETATM   28  O   UNL     1      23.037  50.289  47.206  1.00  0.00    -0.268 OA
BRANCH  26  29
HETATM   29  C   UNL     1      20.205  50.750  47.546  1.00  0.00     0.076 C 
HETATM   30  C   UNL     1      18.867  50.332  46.943  1.00  0.00     0.032 C 
HETATM   31  C   UNL     1      20.030  51.805  48.635  1.00  0.00     0.032 C 
ENDBRANCH  26  29
ENDBRANCH  22  25
ENDBRANCH   2  19
TORSDOF 7
ENDMDL
MODEL 2
REMARK VINA RESULT:      -8.7      4.399      7.793
REMARK  7 active torsions:
REMARK  status: ('A' for Active; 'I' for Inactive)
REMARK    1  A    between atoms: C_2  and  S_3 
REMARK    2  A    between atoms: C_2  and  C_20 
REMARK    3  A    between atoms: S_3  and  C_4 
REMARK    4  A    between atoms: C_4  and  C_5 
REMARK       I    between atoms: C_5  and  N_6 
REMARK    5  A    between atoms: N_6  and  C_7 
REMARK    6  A    between atoms: C_10  and  C_11 
REMARK       I    between atoms: C_11  and  N_12 
REMARK    7  A    between atoms: N_12  and  C_13 
ROOT
HETATM    1  C   UNL     1      26.314  45.503  51.469  1.00  0.00     0.231 C 
HETATM    2  N   UNL     1      26.708  44.430  52.253  1.00  0.00    -0.327 N 
HETATM    3  O   UNL     1      26.319  45.543  50.241  1.00  0.00    -0.272 OA
HETATM    4  H   UNL     1      26.651  44.553  53.257  1.00  0.00     0.169 HD
ENDROOT
BRANCH   1   5
HETATM    5  C   UNL     1      25.861  46.709  52.282  1.00  0.00     0.177 C 
BRANCH   5   6
HETATM    6  S   UNL     1      25.779  46.259  54.047  1.00  0.00    -0.147 SA
BRANCH   6   7
HETATM    7  C   UNL     1      27.229  47.216  54.630  1.00  0.00     0.113 C 
HETATM    8  C   UNL     1      26.771  48.286  55.619  1.00  0.00     0.029 C 
BRANCH   7   9
HETATM    9  C   UNL     1      28.254  46.302  55.226  1.00  0.00     0.118 A 
HETATM   10  N   UNL     1      28.771  45.230  54.655  1.00  0.00    -0.232 NA
HETATM   11  C   UNL     1      29.684  44.733  55.554  1.00  0.00     0.085 A 
HETATM   12  C   UNL     1      29.707  45.499  56.713  1.00  0.00     0.062 A 
HETATM   13  C   UNL     1      30.537  43.625  55.449  1.00  0.00     0.034 A 
HETATM   14  N   UNL     1      28.778  46.482  56.485  1.00  0.00    -0.342 N 
HETATM   15  C   UNL     1      30.541  45.226  57.798  1.00  0.00     0.032 A 
HETATM   16  H   UNL     1      28.522  47.217  57.129  1.00  0.00     0.167 HD
HETATM   17  C   UNL     1      31.388  44.117  57.674  1.00  0.00     0.002 A 
HETATM   18  C   UNL     1      31.389  43.329  56.521  1.00  0.00     0.002 A 
ENDBRANCH   7   9
ENDBRANCH   6   7
ENDBRANCH   5   6
ENDBRANCH   1   5
BRANCH   2  19
HETATM   19  C   UNL     1      27.218  43.190  51.812  1.00  0.00     0.034 A 
HETATM   20  C   UNL     1      28.324  42.554  52.379  1.00  0.00     0.030 A 
HETATM   21  C   UNL     1      28.754  41.305  51.908  1.00  0.00     0.019 A 
HETATM   22  C   UNL     1      28.068  40.668  50.870  1.00  0.00     0.032 A 
HETATM   23  C   UNL     1      26.979  41.317  50.278  1.00  0.00     0.019 A 
HETATM   24  C   UNL     1      26.560  42.569  50.744  1.00  0.00     0.030 A 
BRANCH  22  25
HETATM   25  C   UNL     1      28.456  39.321  50.355  1.00  0.00     0.251 C 
HETATM   26  N   UNL     1      27.713  38.830  49.300  1.00  0.00    -0.353 N 
HETATM   27  H   UNL     1      27.078  39.460  48.829  1.00  0.00     0.163 HD
HETATM   28  O   UNL     1      29.416  38.739  50.847  1.00  0.00    -0.268 OA
BRANCH  26  29
HETATM   29  C   UNL     1      28.018  37.589  48.595  1.00  0.00     0.076 C 
HETATM   30  C   UNL     1      26.914  36.550  48.773  1.00  0.00     0.032 C 
HETATM   31  C   UNL     1      28.358  37.805  47.123  1.00  0.00     0.032 C 
ENDBRANCH  26  29
ENDBRANCH  22  25
ENDBRANCH   2  19
TORSDOF 7
ENDMDL
MODEL 3
REMARK VINA RESULT:      -8.6      1.985      2.935
REMARK  7 active torsions:
REMARK  status: ('A' for Active; 'I' for Inactive)
REMARK    1  A    between atoms: C_2  and  S_3 
REMARK    2  A    between atoms: C_2  and  C_20 
REMARK    3  A    between atoms: S_3  and  C_4 
REMARK    4  A    between atoms: C_4  and  C_5 
REMARK       I    between atoms: C_5  and  N_6 
REMARK    5  A    between atoms: N_6  and  C_7 
REMARK    6  A    between atoms: C_10  and  C_11 
REMARK       I    between atoms: C_11  and  N_12 
REMARK    7  A    between atoms: N_12  and  C_13 
ROOT
HETATM    1  C   UNL     1      24.739  42.718  50.531  1.00  0.00     0.231 C 
HETATM    2  N   UNL     1      25.395  43.833  50.031  1.00  0.00    -0.327 N 
HETATM    3  O   UNL     1      23.593  42.690  50.972  1.00  0.00    -0.272 OA
HETATM    4  H   UNL     1      26.345  43.697  49.708  1.00  0.00     0.169 HD
ENDROOT
BRANCH   1   5
HETATM    5  C   UNL     1      25.595  41.457  50.511  1.00  0.00     0.177 C 
BRANCH   5   6
HETATM    6  S   UNL     1      27.358  41.915  50.571  1.00  0.00    -0.147 SA
BRANCH   6   7
HETATM    7  C   UNL     1      27.635  41.664  52.365  1.00  0.00     0.113 C 
HETATM    8  C   UNL     1      28.887  40.815  52.575  1.00  0.00     0.029 C 
BRANCH   7   9
HETATM    9  C   UNL     1      27.723  42.980  53.071  1.00  0.00     0.118 A 
HETATM   10  N   UNL     1      26.954  44.032  52.862  1.00  0.00    -0.232 NA
HETATM   11  C   UNL     1      27.379  44.987  53.753  1.00  0.00     0.085 A 
HETATM   12  C   UNL     1      28.451  44.522  54.505  1.00  0.00     0.062 A 
HETATM   13  C   UNL     1      26.894  46.283  53.981  1.00  0.00     0.034 A 
HETATM   14  N   UNL     1      28.660  43.249  54.042  1.00  0.00    -0.342 N 
HETATM   15  C   UNL     1      29.086  45.282  55.490  1.00  0.00     0.032 A 
HETATM   16  H   UNL     1      29.376  42.612  54.360  1.00  0.00     0.167 HD
HETATM   17  C   UNL     1      28.586  46.572  55.705  1.00  0.00     0.002 A 
HETATM   18  C   UNL     1      27.509  47.067  54.966  1.00  0.00     0.002 A 
ENDBRANCH   7   9
ENDBRANCH   6   7
ENDBRANCH   5   6
ENDBRANCH   1   5
BRANCH   2  19
HETATM   19  C   UNL     1      24.900  45.152  49.951  1.00  0.00     0.034 A 
HETATM   20  C   UNL     1      25.511  46.254  50.554  1.00  0.00     0.030 A 
HETATM   21  C   UNL     1      24.978  47.541  50.405  1.00  0.00     0.019 A 
HETATM   22  C   UNL     1      23.830  47.746  49.635  1.00  0.00     0.032 A 
HETATM   23  C   UNL     1      23.196  46.640  49.056  1.00  0.00     0.019 A 
HETATM   24  C   UNL     1      23.726  45.354  49.216  1.00  0.00     0.030 A 
BRANCH  22  25
HETATM   25  C   UNL     1      23.241  49.099  49.409  1.00  0.00     0.251 C 
HETATM   26  N   UNL     1      21.867  49.196  49.512  1.00  0.00    -0.353 N 
HETATM   27  H   UNL     1      21.362  48.410  49.896  1.00  0.00     0.163 HD
HETATM   28  O   UNL     1      23.981  50.051  49.188  1.00  0.00    -0.268 OA
BRANCH  26  29
HETATM   29  C   UNL     1      21.131  50.454  49.437  1.00  0.00     0.076 C 
HETATM   30  C   UNL     1      20.818  50.842  47.994  1.00  0.00     0.032 C 
HETATM   31  C   UNL     1      19.878  50.465  50.309  1.00  0.00     0.032 C 
ENDBRANCH  26  29
ENDBRANCH  22  25
ENDBRANCH   2  19
TORSDOF 7
ENDMDL
MODEL 4
REMARK VINA RESULT:      -8.6      2.461     11.012
REMARK  7 active torsions:
REMARK  status: ('A' for Active; 'I' for Inactive)
REMARK    1  A    between atoms: C_2  and  S_3 
REMARK    2  A    between atoms: C_2  and  C_20 
REMARK    3  A    between atoms: S_3  and  C_4 
REMARK    4  A    between atoms: C_4  and  C_5 
REMARK       I    between atoms: C_5  and  N_6 
REMARK    5  A    between atoms: N_6  and  C_7 
REMARK    6  A    between atoms: C_10  and  C_11 
REMARK       I    between atoms: C_11  and  N_12 
REMARK    7  A    between atoms: N_12  and  C_13 
ROOT
HETATM    1  C   UNL     1      24.478  45.045  51.025  1.00  0.00     0.231 C 
HETATM    2  N   UNL     1      25.555  45.843  51.381  1.00  0.00    -0.327 N 
HETATM    3  O   UNL     1      24.041  44.092  51.664  1.00  0.00    -0.272 OA
HETATM    4  H   UNL     1      25.799  46.592  50.744  1.00  0.00     0.169 HD
ENDROOT
BRANCH   1   5
HETATM    5  C   UNL     1      23.843  45.447  49.699  1.00  0.00     0.177 C 
BRANCH   5   6
HETATM    6  S   UNL     1      23.771  47.265  49.584  1.00  0.00    -0.147 SA
BRANCH   6   7
HETATM    7  C   UNL     1      22.471  47.397  48.300  1.00  0.00     0.113 C 
HETATM    8  C   UNL     1      21.715  46.074  48.200  1.00  0.00     0.029 C 
BRANCH   7   9
HETATM    9  C   UNL     1      21.557  48.545  48.595  1.00  0.00     0.118 A 
HETATM   10  N   UNL     1      21.568  49.725  48.004  1.00  0.00    -0.232 NA
HETATM   11  C   UNL     1      20.541  50.437  48.574  1.00  0.00     0.085 A 
HETATM   12  C   UNL     1      19.904  49.690  49.557  1.00  0.00     0.062 A 
HETATM   13  C   UNL     1      20.088  51.736  48.301  1.00  0.00     0.034 A 
HETATM   14  N   UNL     1      20.579  48.496  49.561  1.00  0.00    -0.342 N 
HETATM   15  C   UNL     1      18.824  50.163  50.303  1.00  0.00     0.032 A 
HETATM   16  H   UNL     1      20.390  47.710  50.167  1.00  0.00     0.167 HD
HETATM   17  C   UNL     1      18.383  51.461  50.015  1.00  0.00     0.002 A 
HETATM   18  C   UNL     1      19.002  52.236  49.031  1.00  0.00     0.002 A 
ENDBRANCH   7   9
ENDBRANCH   6   7
ENDBRANCH   5   6
ENDBRANCH   1   5
BRANCH   2  19
HETATM   19  C   UNL     1      26.379  45.709  52.519  1.00  0.00     0.034 A 
HETATM   20  C   UNL     1      27.170  44.589  52.782  1.00  0.00     0.030 A 
HETATM   21  C   UNL     1      27.989  44.540  53.919  1.00  0.00     0.019 A 
HETATM   22  C   UNL     1      28.039  45.623  54.801  1.00  0.00     0.032 A 
HETATM   23  C   UNL     1      27.223  46.734  54.557  1.00  0.00     0.019 A 
HETATM   24  C   UNL     1      26.398  46.774  53.426  1.00  0.00     0.030 A 
BRANCH  22  25
HETATM   25  C   UNL     1      28.922  45.644  56.005  1.00  0.00     0.251 C 
HETATM   26  N   UNL     1      29.984  44.761  56.002  1.00  0.00    -0.353 N 
HETATM   27  H   UNL     1      30.206  44.285  55.139  1.00  0.00     0.163 HD
HETATM   28  O   UNL     1      28.701  46.447  56.904  1.00  0.00    -0.268 OA
BRANCH  26  29
HETATM   29  C   UNL     1      31.013  44.720  57.037  1.00  0.00     0.076 C 
HETATM   30  C   UNL     1      30.490  45.231  58.376  1.00  0.00     0.032 C 
HETATM   31  C   UNL     1      31.670  43.349  57.172  1.00  0.00     0.032 C 
ENDBRANCH  26  29
ENDBRANCH  22  25
ENDBRANCH   2  19
TORSDOF 7
ENDMDL
MODEL 5
REMARK VINA RESULT:      -8.5      1.112      1.581
REMARK  7 active torsions:
REMARK  status: ('A' for Active; 'I' for Inactive)
REMARK    1  A    between atoms: C_2  and  S_3 
REMARK    2  A    between atoms: C_2  and  C_20 
REMARK    3  A    between atoms: S_3  and  C_4 
REMARK    4  A    between atoms: C_4  and  C_5 
REMARK       I    between atoms: C_5  and  N_6 
REMARK    5  A    between atoms: N_6  and  C_7 
REMARK    6  A    between atoms: C_10  and  C_11 
REMARK       I    between atoms: C_11  and  N_12 
REMARK    7  A    between atoms: N_12  and  C_13 
ROOT
HETATM    1  C   UNL     1      26.690  44.445  50.589  1.00  0.00     0.231 C 
HETATM    2  N   UNL     1      25.641  45.252  51.004  1.00  0.00    -0.327 N 
HETATM    3  O   UNL     1      26.970  44.162  49.427  1.00  0.00    -0.272 OA
HETATM    4  H   UNL     1      25.537  45.388  52.002  1.00  0.00     0.169 HD
ENDROOT
BRANCH   1   5
HETATM    5  C   UNL     1      27.515  43.889  51.743  1.00  0.00     0.177 C 
BRANCH   5   6
HETATM    6  S   UNL     1      26.599  44.101  53.305  1.00  0.00    -0.147 SA
BRANCH   6   7
HETATM    7  C   UNL     1      27.461  45.597  53.916  1.00  0.00     0.113 C 
HETATM    8  C   UNL     1      26.442  46.570  54.507  1.00  0.00     0.029 C 
BRANCH   7   9
HETATM    9  C   UNL     1      28.521  45.225  54.905  1.00  0.00     0.118 A 
HETATM   10  N   UNL     1      29.347  44.199  54.816  1.00  0.00    -0.232 NA
HETATM   11  C   UNL     1      30.155  44.274  55.925  1.00  0.00     0.085 A 
HETATM   12  C   UNL     1      29.799  45.352  56.726  1.00  0.00     0.062 A 
HETATM   13  C   UNL     1      31.222  43.453  56.316  1.00  0.00     0.034 A 
HETATM   14  N   UNL     1      28.748  45.932  56.063  1.00  0.00    -0.342 N 
HETATM   15  C   UNL     1      30.450  45.671  57.919  1.00  0.00     0.032 A 
HETATM   16  H   UNL     1      28.228  46.743  56.368  1.00  0.00     0.167 HD
HETATM   17  C   UNL     1      31.515  44.842  58.293  1.00  0.00     0.002 A 
HETATM   18  C   UNL     1      31.898  43.752  57.507  1.00  0.00     0.002 A 
ENDBRANCH   7   9
ENDBRANCH   6   7
ENDBRANCH   5   6
ENDBRANCH   1   5
BRANCH   2  19
HETATM   19  C   UNL     1      24.673  45.881  50.192  1.00  0.00     0.034 A 
HETATM   20  C   UNL     1      23.803  45.196  49.341  1.00  0.00     0.030 A 
HETATM   21  C   UNL     1      22.844  45.887  48.588  1.00  0.00     0.019 A 
HETATM   22  C   UNL     1      22.734  47.277  48.688  1.00  0.00     0.032 A 
HETATM   23  C   UNL     1      23.627  47.970  49.515  1.00  0.00     0.019 A 
HETATM   24  C   UNL     1      24.589  47.276  50.258  1.00  0.00     0.030 A 
BRANCH  22  25
HETATM   25  C   UNL     1      21.707  48.061  47.940  1.00  0.00     0.251 C 
HETATM   26  N   UNL     1      21.229  49.198  48.562  1.00  0.00    -0.353 N 
HETATM   27  H   UNL     1      21.710  49.528  49.387  1.00  0.00     0.163 HD
HETATM   28  O   UNL     1      21.368  47.699  46.820  1.00  0.00    -0.268 OA
BRANCH  26  29
HETATM   29  C   UNL     1      20.312  50.145  47.937  1.00  0.00     0.076 C 
HETATM   30  C   UNL     1      18.869  49.649  47.979  1.00  0.00     0.032 C 
HETATM   31  C   UNL     1      20.440  51.559  48.496  1.00  0.00     0.032 C 
ENDBRANCH  26  29
ENDBRANCH  22  25
ENDBRANCH   2  19
TORSDOF 7
ENDMDL
MODEL 6
REMARK VINA RESULT:      -8.4     11.845     14.994
REMARK  7 active torsions:
REMARK  status: ('A' for Active; 'I' for Inactive)
REMARK    1  A    between atoms: C_2  and  S_3 
REMARK    2  A    between atoms: C_2  and  C_20 
REMARK    3  A    between atoms: S_3  and  C_4 
REMARK    4  A    between atoms: C_4  and  C_5 
REMARK       I    between atoms: C_5  and  N_6 
REMARK    5  A    between atoms: N_6  and  C_7 
REMARK    6  A    between atoms: C_10  and  C_11 
REMARK       I    between atoms: C_11  and  N_12 
REMARK    7  A    between atoms: N_12  and  C_13 
ROOT
HETATM    1  C   UNL     1      29.098  46.774  40.153  1.00  0.00     0.231 C 
HETATM    2  N   UNL     1      29.138  47.975  40.845  1.00  0.00    -0.327 N 
HETATM    3  O   UNL     1      30.068  46.145  39.738  1.00  0.00    -0.272 OA
HETATM    4  H   UNL     1      28.248  48.375  41.118  1.00  0.00     0.169 HD
ENDROOT
BRANCH   1   5
HETATM    5  C   UNL     1      27.682  46.264  39.914  1.00  0.00     0.177 C 
BRANCH   5   6
HETATM    6  S   UNL     1      27.052  46.928  38.338  1.00  0.00    -0.147 SA
BRANCH   6   7
HETATM    7  C   UNL     1      25.940  48.215  39.018  1.00  0.00     0.113 C 
HETATM    8  C   UNL     1      25.260  47.689  40.280  1.00  0.00     0.029 C 
BRANCH   7   9
HETATM    9  C   UNL     1      26.699  49.480  39.274  1.00  0.00     0.118 A 
HETATM   10  N   UNL     1      26.944  50.019  40.453  1.00  0.00    -0.232 NA
HETATM   11  C   UNL     1      27.691  51.144  40.201  1.00  0.00     0.085 A 
HETATM   12  C   UNL     1      27.885  51.315  38.835  1.00  0.00     0.062 A 
HETATM   13  C   UNL     1      28.246  52.074  41.092  1.00  0.00     0.034 A 
HETATM   14  N   UNL     1      27.232  50.252  38.267  1.00  0.00    -0.342 N 
HETATM   15  C   UNL     1      28.609  52.376  38.289  1.00  0.00     0.032 A 
HETATM   16  H   UNL     1      27.156  50.061  37.278  1.00  0.00     0.167 HD
HETATM   17  C   UNL     1      29.157  53.293  39.194  1.00  0.00     0.002 A 
HETATM   18  C   UNL     1      28.981  53.147  40.573  1.00  0.00     0.002 A 
ENDBRANCH   7   9
ENDBRANCH   6   7
ENDBRANCH   5   6
ENDBRANCH   1   5
BRANCH   2  19
HETATM   19  C   UNL     1      30.282  48.728  41.186  1.00  0.00     0.034 A 
HETATM   20  C   UNL     1      31.019  49.485  40.273  1.00  0.00     0.030 A 
HETATM   21  C   UNL     1      32.128  50.234  40.692  1.00  0.00     0.019 A 
HETATM   22  C   UNL     1      32.504  50.247  42.038  1.00  0.00     0.032 A 
HETATM   23  C   UNL     1      31.787  49.463  42.950  1.00  0.00     0.019 A 
HETATM   24  C   UNL     1      30.687  48.709  42.526  1.00  0.00     0.030 A 
BRANCH  22  25
HETATM   25  C   UNL     1      33.651  51.057  42.547  1.00  0.00     0.251 C 
HETATM   26  N   UNL     1      34.909  50.671  42.129  1.00  0.00    -0.353 N 
HETATM   27  H   UNL     1      34.976  49.991  41.384  1.00  0.00     0.163 HD
HETATM   28  O   UNL     1      33.434  52.029  43.262  1.00  0.00    -0.268 OA
BRANCH  26  29
HETATM   29  C   UNL     1      36.131  51.409  42.431  1.00  0.00     0.076 C 
HETATM   30  C   UNL     1      37.315  50.475  42.665  1.00  0.00     0.032 C 
HETATM   31  C   UNL     1      36.453  52.480  41.392  1.00  0.00     0.032 C 
ENDBRANCH  26  29
ENDBRANCH  22  25
ENDBRANCH   2  19
TORSDOF 7
ENDMDL
MODEL 7
REMARK VINA RESULT:      -8.4      2.250      3.356
REMARK  7 active torsions:
REMARK  status: ('A' for Active; 'I' for Inactive)
REMARK    1  A    between atoms: C_2  and  S_3 
REMARK    2  A    between atoms: C_2  and  C_20 
REMARK    3  A    between atoms: S_3  and  C_4 
REMARK    4  A    between atoms: C_4  and  C_5 
REMARK       I    between atoms: C_5  and  N_6 
REMARK    5  A    between atoms: N_6  and  C_7 
REMARK    6  A    between atoms: C_10  and  C_11 
REMARK       I    between atoms: C_11  and  N_12 
REMARK    7  A    between atoms: N_12  and  C_13 
ROOT
HETATM    1  C   UNL     1      24.194  47.831  49.527  1.00  0.00     0.231 C 
HETATM    2  N   UNL     1      22.811  47.738  49.554  1.00  0.00    -0.327 N 
HETATM    3  O   UNL     1      24.848  48.763  49.065  1.00  0.00    -0.272 OA
HETATM    4  H   UNL     1      22.417  46.900  49.966  1.00  0.00     0.169 HD
ENDROOT
BRANCH   1   5
HETATM    5  C   UNL     1      24.891  46.619  50.132  1.00  0.00     0.177 C 
BRANCH   5   6
HETATM    6  S   UNL     1      26.035  47.165  51.443  1.00  0.00    -0.147 SA
BRANCH   6   7
HETATM    7  C   UNL     1      25.628  45.892  52.696  1.00  0.00     0.113 C 
HETATM    8  C   UNL     1      24.890  44.734  52.028  1.00  0.00     0.029 C 
BRANCH   7   9
HETATM    9  C   UNL     1      26.867  45.436  53.401  1.00  0.00     0.118 A 
HETATM   10  N   UNL     1      27.454  46.038  54.418  1.00  0.00    -0.232 NA
HETATM   11  C   UNL     1      28.528  45.248  54.750  1.00  0.00     0.085 A 
HETATM   12  C   UNL     1      28.620  44.153  53.900  1.00  0.00     0.062 A 
HETATM   13  C   UNL     1      29.475  45.402  55.773  1.00  0.00     0.034 A 
HETATM   14  N   UNL     1      27.561  44.303  53.042  1.00  0.00    -0.342 N 
HETATM   15  C   UNL     1      29.617  43.181  54.004  1.00  0.00     0.032 A 
HETATM   16  H   UNL     1      27.325  43.687  52.277  1.00  0.00     0.167 HD
HETATM   17  C   UNL     1      30.551  43.349  55.032  1.00  0.00     0.002 A 
HETATM   18  C   UNL     1      30.484  44.439  55.904  1.00  0.00     0.002 A 
ENDBRANCH   7   9
ENDBRANCH   6   7
ENDBRANCH   5   6
ENDBRANCH   1   5
BRANCH   2  19
HETATM   19  C   UNL     1      21.880  48.665  49.038  1.00  0.00     0.034 A 
HETATM   20  C   UNL     1      21.009  48.392  47.982  1.00  0.00     0.030 A 
HETATM   21  C   UNL     1      20.088  49.354  47.544  1.00  0.00     0.019 A 
HETATM   22  C   UNL     1      20.018  50.602  48.170  1.00  0.00     0.032 A 
HETATM   23  C   UNL     1      20.913  50.891  49.207  1.00  0.00     0.019 A 
HETATM   24  C   UNL     1      21.837  49.931  49.635  1.00  0.00     0.030 A 
BRANCH  22  25
HETATM   25  C   UNL     1      19.032  51.650  47.772  1.00  0.00     0.251 C 
HETATM   26  N   UNL     1      18.062  51.268  46.866  1.00  0.00    -0.353 N 
HETATM   27  H   UNL     1      17.965  50.284  46.658  1.00  0.00     0.163 HD
HETATM   28  O   UNL     1      19.094  52.763  48.281  1.00  0.00    -0.268 OA
BRANCH  26  29
HETATM   29  C   UNL     1      16.953  52.121  46.451  1.00  0.00     0.076 C 
HETATM   30  C   UNL     1      17.155  52.668  45.041  1.00  0.00     0.032 C 
HETATM   31  C   UNL     1      15.592  51.447  46.606  1.00  0.00     0.032 C 
ENDBRANCH  26  29
ENDBRANCH  22  25
ENDBRANCH   2  19
TORSDOF 7
ENDMDL
MODEL 8
REMARK VINA RESULT:      -8.3      2.396     11.018
REMARK  7 active torsions:
REMARK  status: ('A' for Active; 'I' for Inactive)
REMARK    1  A    between atoms: C_2  and  S_3 
REMARK    2  A    between atoms: C_2  and  C_20 
REMARK    3  A    between atoms: S_3  and  C_4 
REMARK    4  A    between atoms: C_4  and  C_5 
REMARK       I    between atoms: C_5  and  N_6 
REMARK    5  A    between atoms: N_6  and  C_7 
REMARK    6  A    between atoms: C_10  and  C_11 
REMARK       I    between atoms: C_11  and  N_12 
REMARK    7  A    between atoms: N_12  and  C_13 
ROOT
HETATM    1  C   UNL     1      24.715  47.925  49.967  1.00  0.00     0.231 C 
HETATM    2  N   UNL     1      24.504  46.940  50.920  1.00  0.00    -0.327 N 
HETATM    3  O   UNL     1      25.775  48.509  49.751  1.00  0.00    -0.272 OA
HETATM    4  H   UNL     1      23.568  46.556  50.981  1.00  0.00     0.169 HD
ENDROOT
BRANCH   1   5
HETATM    5  C   UNL     1      23.465  48.265  49.165  1.00  0.00     0.177 C 
BRANCH   5   6
HETATM    6  S   UNL     1      22.620  46.727  48.671  1.00  0.00    -0.147 SA
BRANCH   6   7
HETATM    7  C   UNL     1      21.546  47.425  47.361  1.00  0.00     0.113 C 
HETATM    8  C   UNL     1      20.704  46.311  46.743  1.00  0.00     0.029 C 
BRANCH   7   9
HETATM    9  C   UNL     1      20.700  48.531  47.910  1.00  0.00     0.118 A 
HETATM   10  N   UNL     1      19.738  48.408  48.805  1.00  0.00    -0.232 NA
HETATM   11  C   UNL     1      19.269  49.680  49.025  1.00  0.00     0.085 A 
HETATM   12  C   UNL     1      19.937  50.601  48.226  1.00  0.00     0.062 A 
HETATM   13  C   UNL     1      18.269  50.131  49.898  1.00  0.00     0.034 A 
HETATM   14  N   UNL     1      20.832  49.843  47.516  1.00  0.00    -0.342 N 
HETATM   15  C   UNL     1      19.666  51.970  48.240  1.00  0.00     0.032 A 
HETATM   16  H   UNL     1      21.482  50.185  46.823  1.00  0.00     0.167 HD
HETATM   17  C   UNL     1      18.666  52.402  49.120  1.00  0.00     0.002 A 
HETATM   18  C   UNL     1      17.978  51.501  49.937  1.00  0.00     0.002 A 
ENDBRANCH   7   9
ENDBRANCH   6   7
ENDBRANCH   5   6
ENDBRANCH   1   5
BRANCH   2  19
HETATM   19  C   UNL     1      25.439  46.433  51.848  1.00  0.00     0.034 A 
HETATM   20  C   UNL     1      25.808  47.089  53.024  1.00  0.00     0.030 A 
HETATM   21  C   UNL     1      26.721  46.507  53.914  1.00  0.00     0.019 A 
HETATM   22  C   UNL     1      27.267  45.249  53.644  1.00  0.00     0.032 A 
HETATM   23  C   UNL     1      26.926  44.604  52.450  1.00  0.00     0.019 A 
HETATM   24  C   UNL     1      26.021  45.193  51.559  1.00  0.00     0.030 A 
BRANCH  22  25
HETATM   25  C   UNL     1      28.214  44.564  54.574  1.00  0.00     0.251 C 
HETATM   26  N   UNL     1      28.968  45.381  55.394  1.00  0.00    -0.353 N 
HETATM   27  H   UNL     1      28.724  46.360  55.446  1.00  0.00     0.163 HD
HETATM   28  O   UNL     1      28.253  43.340  54.603  1.00  0.00    -0.268 OA
BRANCH  26  29
HETATM   29  C   UNL     1      29.857  44.887  56.441  1.00  0.00     0.076 C 
HETATM   30  C   UNL     1      31.173  44.369  55.869  1.00  0.00     0.032 C 
HETATM   31  C   UNL     1      30.087  45.903  57.557  1.00  0.00     0.032 C 
ENDBRANCH  26  29
ENDBRANCH  22  25
ENDBRANCH   2  19
TORSDOF 7
ENDMDL
MODEL 9
REMARK VINA RESULT:      -8.2      2.706     11.280
REMARK  7 active torsions:
REMARK  status: ('A' for Active; 'I' for Inactive)
REMARK    1  A    between atoms: C_2  and  S_3 
REMARK    2  A    between atoms: C_2  and  C_20 
REMARK    3  A    between atoms: S_3  and  C_4 
REMARK    4  A    between atoms: C_4  and  C_5 
REMARK       I    between atoms: C_5  and  N_6 
REMARK    5  A    between atoms: N_6  and  C_7 
REMARK    6  A    between atoms: C_10  and  C_11 
REMARK       I    between atoms: C_11  and  N_12 
REMARK    7  A    between atoms: N_12  and  C_13 
ROOT
HETATM    1  C   UNL     1      25.192  48.310  49.337  1.00  0.00     0.231 C 
HETATM    2  N   UNL     1      24.664  47.321  50.152  1.00  0.00    -0.327 N 
HETATM    3  O   UNL     1      26.371  48.654  49.287  1.00  0.00    -0.272 OA
HETATM    4  H   UNL     1      23.666  47.156  50.082  1.00  0.00     0.169 HD
ENDROOT
BRANCH   1   5
HETATM    5  C   UNL     1      24.147  48.994  48.465  1.00  0.00     0.177 C 
BRANCH   5   6
HETATM    6  S   UNL     1      22.482  48.641  49.117  1.00  0.00    -0.147 SA
BRANCH   6   7
HETATM    7  C   UNL     1      22.011  50.349  49.580  1.00  0.00     0.113 C 
HETATM    8  C   UNL     1      22.812  51.345  48.745  1.00  0.00     0.029 C 
BRANCH   7   9
HETATM    9  C   UNL     1      20.535  50.546  49.427  1.00  0.00     0.118 A 
HETATM   10  N   UNL     1      19.810  51.491  49.994  1.00  0.00    -0.232 NA
HETATM   11  C   UNL     1      18.527  51.297  49.543  1.00  0.00     0.085 A 
HETATM   12  C   UNL     1      18.457  50.191  48.704  1.00  0.00     0.062 A 
HETATM   13  C   UNL     1      17.360  52.030  49.806  1.00  0.00     0.034 A 
HETATM   14  N   UNL     1      19.745  49.723  48.658  1.00  0.00    -0.342 N 
HETATM   15  C   UNL     1      17.276  49.759  48.099  1.00  0.00     0.032 A 
HETATM   16  H   UNL     1      20.064  48.913  48.144  1.00  0.00     0.167 HD
HETATM   17  C   UNL     1      16.123  50.504  48.371  1.00  0.00     0.002 A 
HETATM   18  C   UNL     1      16.161  51.621  49.210  1.00  0.00     0.002 A 
ENDBRANCH   7   9
ENDBRANCH   6   7
ENDBRANCH   5   6
ENDBRANCH   1   5
BRANCH   2  19
HETATM   19  C   UNL     1      25.353  46.535  51.101  1.00  0.00     0.034 A 
HETATM   20  C   UNL     1      25.989  45.329  50.801  1.00  0.00     0.030 A 
HETATM   21  C   UNL     1      26.682  44.618  51.791  1.00  0.00     0.019 A 
HETATM   22  C   UNL     1      26.761  45.116  53.095  1.00  0.00     0.032 A 
HETATM   23  C   UNL     1      26.096  46.309  53.406  1.00  0.00     0.019 A 
HETATM   24  C   UNL     1      25.396  47.010  52.417  1.00  0.00     0.030 A 
BRANCH  22  25
HETATM   25  C   UNL     1      27.518  44.423  54.179  1.00  0.00     0.251 C 
HETATM   26  N   UNL     1      28.801  44.874  54.416  1.00  0.00    -0.353 N 
HETATM   27  H   UNL     1      29.092  45.737  53.979  1.00  0.00     0.163 HD
HETATM   28  O   UNL     1      26.973  43.535  54.825  1.00  0.00    -0.268 OA
BRANCH  26  29
HETATM   29  C   UNL     1      29.645  44.395  55.507  1.00  0.00     0.076 C 
HETATM   30  C   UNL     1      30.618  43.317  55.040  1.00  0.00     0.032 C 
HETATM   31  C   UNL     1      30.362  45.522  56.246  1.00  0.00     0.032 C 
ENDBRANCH  26  29
ENDBRANCH  22  25
ENDBRANCH   2  19
TORSDOF 7
ENDMDL
MODEL 10
REMARK VINA RESULT:      -8.2      2.384     10.193
REMARK  7 active torsions:
REMARK  status: ('A' for Active; 'I' for Inactive)
REMARK    1  A    between atoms: C_2  and  S_3 
REMARK    2  A    between atoms: C_2  and  C_20 
REMARK    3  A    between atoms: S_3  and  C_4 
REMARK    4  A    between atoms: C_4  and  C_5 
REMARK       I    between atoms: C_5  and  N_6 
REMARK    5  A    between atoms: N_6  and  C_7 
REMARK    6  A    between atoms: C_10  and  C_11 
REMARK       I    between atoms: C_11  and  N_12 
REMARK    7  A    between atoms: N_12  and  C_13 
ROOT
HETATM    1  C   UNL     1      24.262  44.764  50.283  1.00  0.00     0.231 C 
HETATM    2  N   UNL     1      24.553  44.294  51.555  1.00  0.00    -0.327 N 
HETATM    3  O   UNL     1      24.877  45.637  49.675  1.00  0.00    -0.272 OA
HETATM    4  H   UNL     1      23.947  43.571  51.924  1.00  0.00     0.169 HD
ENDROOT
BRANCH   1   5
HETATM    5  C   UNL     1      23.045  44.093  49.657  1.00  0.00     0.177 C 
BRANCH   5   6
HETATM    6  S   UNL     1      22.982  44.481  47.877  1.00  0.00    -0.147 SA
BRANCH   6   7
HETATM    7  C   UNL     1      21.424  45.445  47.872  1.00  0.00     0.113 C 
HETATM    8  C   UNL     1      20.456  44.858  48.897  1.00  0.00     0.029 C 
BRANCH   7   9
HETATM    9  C   UNL     1      21.703  46.893  48.127  1.00  0.00     0.118 A 
HETATM   10  N   UNL     1      22.688  47.602  47.610  1.00  0.00    -0.232 NA
HETATM   11  C   UNL     1      22.528  48.876  48.099  1.00  0.00     0.085 A 
HETATM   12  C   UNL     1      21.437  48.944  48.957  1.00  0.00     0.062 A 
HETATM   13  C   UNL     1      23.277  50.035  47.851  1.00  0.00     0.034 A 
HETATM   14  N   UNL     1      20.939  47.667  48.969  1.00  0.00    -0.342 N 
HETATM   15  C   UNL     1      21.038  50.117  49.600  1.00  0.00     0.032 A 
HETATM   16  H   UNL     1      20.143  47.345  49.502  1.00  0.00     0.167 HD
HETATM   17  C   UNL     1      21.796  51.264  49.340  1.00  0.00     0.002 A 
HETATM   18  C   UNL     1      22.897  51.228  48.480  1.00  0.00     0.002 A 
ENDBRANCH   7   9
ENDBRANCH   6   7
ENDBRANCH   5   6
ENDBRANCH   1   5
BRANCH   2  19
HETATM   19  C   UNL     1      25.581  44.735  52.415  1.00  0.00     0.034 A 
HETATM   20  C   UNL     1      25.489  45.870  53.224  1.00  0.00     0.030 A 
HETATM   21  C   UNL     1      26.541  46.229  54.078  1.00  0.00     0.019 A 
HETATM   22  C   UNL     1      27.696  45.445  54.145  1.00  0.00     0.032 A 
HETATM   23  C   UNL     1      27.805  44.325  53.311  1.00  0.00     0.019 A 
HETATM   24  C   UNL     1      26.756  43.976  52.452  1.00  0.00     0.030 A 
BRANCH  22  25
HETATM   25  C   UNL     1      28.831  45.756  55.065  1.00  0.00     0.251 C 
HETATM   26  N   UNL     1      29.441  44.678  55.674  1.00  0.00    -0.353 N 
HETATM   27  H   UNL     1      29.212  43.751  55.343  1.00  0.00     0.163 HD
HETATM   28  O   UNL     1      29.192  46.919  55.206  1.00  0.00    -0.268 OA
BRANCH  26  29
HETATM   29  C   UNL     1      30.633  44.781  56.510  1.00  0.00     0.076 C 
HETATM   30  C   UNL     1      30.317  45.390  57.874  1.00  0.00     0.032 C 
HETATM   31  C   UNL     1      31.386  43.460  56.642  1.00  0.00     0.032 C 
ENDBRANCH  26  29
ENDBRANCH  22  25
ENDBRANCH   2  19
TORSDOF 7
ENDMDL
