MODEL 1
REMARK VINA RESULT:      -7.7      0.000      0.000
REMARK  10 active torsions:
REMARK  status: ('A' for Active; 'I' for Inactive)
REMARK    1  A    between atoms: C_2  and  C_3 
REMARK    2  A    between atoms: C_3  and  C_4 
REMARK    3  A    between atoms: C_4  and  N_5 
REMARK    4  A    between atoms: N_5  and  C_7 
REMARK    5  A    between atoms: C_7  and  C_8 
REMARK    6  A    between atoms: C_8  and  C_9 
REMARK    7  A    between atoms: C_9  and  N_10 
REMARK       I    between atoms: N_10  and  C_11 
REMARK    8  A    between atoms: C_11  and  C_12 
REMARK    9  A    between atoms: C_12  and  O_13 
REMARK   10  A    between atoms: N_14  and  C_15 
ROOT
HETATM    1  C   UNL     1      27.395  40.952  50.932  1.00  0.00     0.256 C 
HETATM    2  N   UNL     1      27.007  41.822  49.802  1.00  0.00    -0.254 N 
HETATM    3  C   UNL     1      27.226  41.414  48.493  1.00  0.00     0.330 C 
HETATM    4  O   UNL     1      26.765  41.946  47.484  1.00  0.00    -0.246 OA
HETATM    5  N   UNL     1      28.059  40.359  48.287  1.00  0.00    -0.308 N 
HETATM    6  C   UNL     1      28.708  39.625  49.260  1.00  0.00     0.048 A 
HETATM    7  C   UNL     1      28.430  39.886  50.592  1.00  0.00     0.034 A 
HETATM    8  C   UNL     1      29.621  38.636  48.886  1.00  0.00     0.030 A 
HETATM    9  C   UNL     1      30.277  37.895  49.865  1.00  0.00     0.002 A 
HETATM   10  C   UNL     1      30.008  38.131  51.210  1.00  0.00     0.001 A 
HETATM   11  C   UNL     1      29.083  39.112  51.574  1.00  0.00     0.015 A 
HETATM   12  H   UNL     1      28.196  40.137  47.306  1.00  0.00     0.170 HD
ENDROOT
BRANCH   1  13
HETATM   13  C   UNL     1      28.065  41.865  52.071  1.00  0.00     0.279 C 
HETATM   14  N   UNL     1      27.228  42.187  53.138  1.00  0.00    -0.356 N 
HETATM   15  H   UNL     1      26.412  41.580  53.208  1.00  0.00     0.162 HD
HETATM   16  O   UNL     1      29.174  42.390  51.931  1.00  0.00    -0.268 OA
BRANCH  14  17
HETATM   17  C   UNL     1      27.668  42.765  54.396  1.00  0.00     0.124 C 
BRANCH  17  18
HETATM   18  C   UNL     1      27.145  44.158  54.752  1.00  0.00     0.047 C 
BRANCH  18  19
HETATM   19  C   UNL     1      27.855  45.269  53.986  1.00  0.00     0.236 C 
BRANCH  19  20
HETATM   20  N   UNL     1      28.471  46.308  54.918  1.00  0.00    -0.075 N 
HETATM   21  H   UNL     1      29.273  46.731  54.435  1.00  0.00     0.279 HD
HETATM   22  C   UNL     1      27.517  47.441  55.238  1.00  0.00     0.269 C 
BRANCH  20  23
HETATM   23  C   UNL     1      28.974  45.702  56.217  1.00  0.00     0.234 C 
BRANCH  23  24
HETATM   24  C   UNL     1      30.432  45.253  56.166  1.00  0.00     0.027 C 
BRANCH  24  25
HETATM   25  C   UNL     1      30.922  44.587  57.451  1.00  0.00    -0.003 C 
HETATM   26  C   UNL     1      31.622  43.269  57.152  1.00  0.00     0.005 C 
ENDBRANCH  24  25
ENDBRANCH  23  24
ENDBRANCH  20  23
ENDBRANCH  19  20
ENDBRANCH  18  19
ENDBRANCH  17  18
ENDBRANCH  14  17
ENDBRANCH   1  13
BRANCH   1  27
HETATM   27  O   UNL     1      26.228  40.272  51.379  1.00  0.00    -0.359 OA
HETATM   28  H   UNL     1      25.775  40.834  52.026  1.00  0.00     0.213 HD
ENDBRANCH   1  27
BRANCH   2  29
HETATM   29  C   UNL     1      26.234  43.025  50.063  1.00  0.00     0.042 A 
HETATM   30  C   UNL     1      24.882  42.979  50.446  1.00  0.00     0.030 A 
HETATM   31  C   UNL     1      24.171  44.144  50.763  1.00  0.00     0.002 A 
HETATM   32  C   UNL     1      24.797  45.383  50.707  1.00  0.00     0.000 A 
HETATM   33  C   UNL     1      26.132  45.457  50.329  1.00  0.00     0.002 A 
HETATM   34  C   UNL     1      26.840  44.293  50.014  1.00  0.00     0.030 A 
ENDBRANCH   2  29
TORSDOF 10
ENDMDL
MODEL 2
REMARK VINA RESULT:      -7.7      2.350      4.611
REMARK  10 active torsions:
REMARK  status: ('A' for Active; 'I' for Inactive)
REMARK    1  A    between atoms: C_2  and  C_3 
REMARK    2  A    between atoms: C_3  and  C_4 
REMARK    3  A    between atoms: C_4  and  N_5 
REMARK    4  A    between atoms: N_5  and  C_7 
REMARK    5  A    between atoms: C_7  and  C_8 
REMARK    6  A    between atoms: C_8  and  C_9 
REMARK    7  A    between atoms: C_9  and  N_10 
REMARK       I    between atoms: N_10  and  C_11 
REMARK    8  A    between atoms: C_11  and  C_12 
REMARK    9  A    between atoms: C_12  and  O_13 
REMARK   10  A    between atoms: N_14  and  C_15 
ROOT
HETATM    1  C   UNL     1      25.848  43.496  50.087  1.00  0.00     0.256 C 
HETATM    2  N   UNL     1      26.397  42.346  50.835  1.00  0.00    -0.254 N 
HETATM    3  C   UNL     1      26.156  41.049  50.407  1.00  0.00     0.330 C 
HETATM    4  O   UNL     1      26.722  40.035  50.815  1.00  0.00    -0.246 OA
HETATM    5  N   UNL     1      25.176  40.856  49.483  1.00  0.00    -0.308 N 
HETATM    6  C   UNL     1      24.394  41.834  48.902  1.00  0.00     0.048 A 
HETATM    7  C   UNL     1      24.671  43.164  49.178  1.00  0.00     0.034 A 
HETATM    8  C   UNL     1      23.351  41.469  48.049  1.00  0.00     0.030 A 
HETATM    9  C   UNL     1      22.560  42.454  47.462  1.00  0.00     0.002 A 
HETATM   10  C   UNL     1      22.823  43.797  47.715  1.00  0.00     0.001 A 
HETATM   11  C   UNL     1      23.878  44.152  48.559  1.00  0.00     0.015 A 
HETATM   12  H   UNL     1      25.034  39.881  49.241  1.00  0.00     0.170 HD
ENDROOT
BRANCH   1  13
HETATM   13  C   UNL     1      25.294  44.573  51.144  1.00  0.00     0.279 C 
HETATM   14  N   UNL     1      26.068  45.725  51.273  1.00  0.00    -0.356 N 
HETATM   15  H   UNL     1      26.710  45.870  50.494  1.00  0.00     0.162 HD
HETATM   16  O   UNL     1      24.358  44.328  51.911  1.00  0.00    -0.268 OA
BRANCH  14  17
HETATM   17  C   UNL     1      25.648  46.939  51.951  1.00  0.00     0.124 C 
BRANCH  17  18
HETATM   18  C   UNL     1      25.830  46.998  53.468  1.00  0.00     0.047 C 
BRANCH  18  19
HETATM   19  C   UNL     1      27.126  46.341  53.933  1.00  0.00     0.236 C 
BRANCH  19  20
HETATM   20  N   UNL     1      27.773  47.098  55.089  1.00  0.00    -0.075 N 
HETATM   21  H   UNL     1      28.588  47.603  54.720  1.00  0.00     0.279 HD
HETATM   22  C   UNL     1      26.853  48.146  55.685  1.00  0.00     0.269 C 
BRANCH  20  23
HETATM   23  C   UNL     1      28.254  46.176  56.195  1.00  0.00     0.234 C 
BRANCH  23  24
HETATM   24  C   UNL     1      29.763  45.942  56.191  1.00  0.00     0.027 C 
BRANCH  24  25
HETATM   25  C   UNL     1      30.345  45.621  57.568  1.00  0.00    -0.003 C 
HETATM   26  C   UNL     1      31.148  44.329  57.535  1.00  0.00     0.005 C 
ENDBRANCH  24  25
ENDBRANCH  23  24
ENDBRANCH  20  23
ENDBRANCH  19  20
ENDBRANCH  18  19
ENDBRANCH  17  18
ENDBRANCH  14  17
ENDBRANCH   1  13
BRANCH   1  27
HETATM   27  O   UNL     1      26.882  44.012  49.258  1.00  0.00    -0.359 OA
HETATM   28  H   UNL     1      26.484  44.329  48.433  1.00  0.00     0.213 HD
ENDBRANCH   1  27
BRANCH   2  29
HETATM   29  C   UNL     1      27.340  42.585  51.917  1.00  0.00     0.042 A 
HETATM   30  C   UNL     1      28.673  42.962  51.680  1.00  0.00     0.030 A 
HETATM   31  C   UNL     1      29.548  43.258  52.733  1.00  0.00     0.002 A 
HETATM   32  C   UNL     1      29.109  43.187  54.050  1.00  0.00     0.000 A 
HETATM   33  C   UNL     1      27.796  42.816  54.312  1.00  0.00     0.002 A 
HETATM   34  C   UNL     1      26.924  42.521  53.258  1.00  0.00     0.030 A 
ENDBRANCH   2  29
TORSDOF 10
ENDMDL
MODEL 3
REMARK VINA RESULT:      -7.7      3.869      7.070
REMARK  10 active torsions:
REMARK  status: ('A' for Active; 'I' for Inactive)
REMARK    1  A    between atoms: C_2  and  C_3 
REMARK    2  A    between atoms: C_3  and  C_4 
REMARK    3  A    between atoms: C_4  and  N_5 
REMARK    4  A    between atoms: N_5  and  C_7 
REMARK    5  A    between atoms: C_7  and  C_8 
REMARK    6  A    between atoms: C_8  and  C_9 
REMARK    7  A    between atoms: C_9  and  N_10 
REMARK       I    between atoms: N_10  and  C_11 
REMARK    8  A    between atoms: C_11  and  C_12 
REMARK    9  A    between atoms: C_12  and  O_13 
REMARK   10  A    between atoms: N_14  and  C_15 
ROOT
HETATM    1  C   UNL     1      26.016  43.265  51.532  1.00  0.00     0.256 C 
HETATM    2  N   UNL     1      25.815  42.076  50.678  1.00  0.00    -0.254 N 
HETATM    3  C   UNL     1      26.350  40.849  51.044  1.00  0.00     0.330 C 
HETATM    4  O   UNL     1      26.080  39.761  50.535  1.00  0.00    -0.246 OA
HETATM    5  N   UNL     1      27.295  40.833  52.023  1.00  0.00    -0.308 N 
HETATM    6  C   UNL     1      27.773  41.926  52.717  1.00  0.00     0.048 A 
HETATM    7  C   UNL     1      27.188  43.164  52.503  1.00  0.00     0.034 A 
HETATM    8  C   UNL     1      28.826  41.765  53.620  1.00  0.00     0.030 A 
HETATM    9  C   UNL     1      29.311  42.866  54.321  1.00  0.00     0.002 A 
HETATM   10  C   UNL     1      28.734  44.118  54.131  1.00  0.00     0.001 A 
HETATM   11  C   UNL     1      27.672  44.267  53.236  1.00  0.00     0.015 A 
HETATM   12  H   UNL     1      27.662  39.907  52.216  1.00  0.00     0.170 HD
ENDROOT
BRANCH   1  13
HETATM   13  C   UNL     1      26.340  44.522  50.586  1.00  0.00     0.279 C 
HETATM   14  N   UNL     1      25.411  45.560  50.645  1.00  0.00    -0.356 N 
HETATM   15  H   UNL     1      24.815  45.523  51.471  1.00  0.00     0.162 HD
HETATM   16  O   UNL     1      27.241  44.502  49.741  1.00  0.00    -0.268 OA
BRANCH  14  17
HETATM   17  C   UNL     1      25.613  46.890  50.098  1.00  0.00     0.124 C 
BRANCH  17  18
HETATM   18  C   UNL     1      24.374  47.764  49.894  1.00  0.00     0.047 C 
BRANCH  18  19
HETATM   19  C   UNL     1      24.612  48.908  48.913  1.00  0.00     0.236 C 
BRANCH  19  20
HETATM   20  N   UNL     1      23.311  49.435  48.317  1.00  0.00    -0.075 N 
HETATM   21  H   UNL     1      23.527  49.847  47.401  1.00  0.00     0.279 HD
HETATM   22  C   UNL     1      22.298  48.336  48.065  1.00  0.00     0.269 C 
BRANCH  20  23
HETATM   23  C   UNL     1      22.669  50.512  49.175  1.00  0.00     0.234 C 
BRANCH  23  24
HETATM   24  C   UNL     1      21.559  51.284  48.467  1.00  0.00     0.027 C 
BRANCH  24  25
HETATM   25  C   UNL     1      20.243  51.330  49.243  1.00  0.00    -0.003 C 
HETATM   26  C   UNL     1      19.236  52.245  48.562  1.00  0.00     0.005 C 
ENDBRANCH  24  25
ENDBRANCH  23  24
ENDBRANCH  20  23
ENDBRANCH  19  20
ENDBRANCH  18  19
ENDBRANCH  17  18
ENDBRANCH  14  17
ENDBRANCH   1  13
BRANCH   1  27
HETATM   27  O   UNL     1      24.842  43.445  52.314  1.00  0.00    -0.359 OA
HETATM   28  H   UNL     1      25.083  43.919  53.125  1.00  0.00     0.213 HD
ENDBRANCH   1  27
BRANCH   2  29
HETATM   29  C   UNL     1      24.904  42.158  49.548  1.00  0.00     0.042 A 
HETATM   30  C   UNL     1      25.312  41.871  48.233  1.00  0.00     0.030 A 
HETATM   31  C   UNL     1      24.405  41.885  47.166  1.00  0.00     0.002 A 
HETATM   32  C   UNL     1      23.066  42.183  47.388  1.00  0.00     0.000 A 
HETATM   33  C   UNL     1      22.636  42.471  48.678  1.00  0.00     0.002 A 
HETATM   34  C   UNL     1      23.544  42.457  49.742  1.00  0.00     0.030 A 
ENDBRANCH   2  29
TORSDOF 10
ENDMDL
MODEL 4
REMARK VINA RESULT:      -7.7      3.665      7.849
REMARK  10 active torsions:
REMARK  status: ('A' for Active; 'I' for Inactive)
REMARK    1  A    between atoms: C_2  and  C_3 
REMARK    2  A    between atoms: C_3  and  C_4 
REMARK    3  A    between atoms: C_4  and  N_5 
REMARK    4  A    between atoms: N_5  and  C_7 
REMARK    5  A    between atoms: C_7  and  C_8 
REMARK    6  A    between atoms: C_8  and  C_9 
REMARK    7  A    between atoms: C_9  and  N_10 
REMARK       I    between atoms: N_10  and  C_11 
REMARK    8  A    between atoms: C_11  and  C_12 
REMARK    9  A    between atoms: C_12  and  O_13 
REMARK   10  A    between atoms: N_14  and  C_15 
ROOT
HETATM    1  C   UNL     1      26.150  44.310  52.698  1.00  0.00     0.256 C 
HETATM    2  N   UNL     1      27.180  43.384  52.183  1.00  0.00    -0.254 N 
HETATM    3  C   UNL     1      28.397  43.252  52.839  1.00  0.00     0.330 C 
HETATM    4  O   UNL     1      29.237  42.377  52.634  1.00  0.00    -0.246 OA
HETATM    5  N   UNL     1      28.726  44.193  53.764  1.00  0.00    -0.308 N 
HETATM    6  C   UNL     1      27.956  45.276  54.141  1.00  0.00     0.048 A 
HETATM    7  C   UNL     1      26.673  45.395  53.631  1.00  0.00     0.034 A 
HETATM    8  C   UNL     1      28.478  46.220  55.028  1.00  0.00     0.030 A 
HETATM    9  C   UNL     1      27.704  47.313  55.409  1.00  0.00     0.002 A 
HETATM   10  C   UNL     1      26.409  47.451  54.918  1.00  0.00     0.001 A 
HETATM   11  C   UNL     1      25.891  46.494  54.043  1.00  0.00     0.015 A 
HETATM   12  H   UNL     1      29.640  44.051  54.179  1.00  0.00     0.170 HD
ENDROOT
BRANCH   1  13
HETATM   13  C   UNL     1      25.494  45.084  51.451  1.00  0.00     0.279 C 
HETATM   14  N   UNL     1      26.302  46.062  50.873  1.00  0.00    -0.356 N 
HETATM   15  H   UNL     1      27.288  45.967  51.116  1.00  0.00     0.162 HD
HETATM   16  O   UNL     1      24.307  44.951  51.139  1.00  0.00    -0.268 OA
BRANCH  14  17
HETATM   17  C   UNL     1      26.048  46.702  49.594  1.00  0.00     0.124 C 
BRANCH  17  18
HETATM   18  C   UNL     1      25.447  48.108  49.618  1.00  0.00     0.047 C 
BRANCH  18  19
HETATM   19  C   UNL     1      23.922  48.099  49.655  1.00  0.00     0.236 C 
BRANCH  19  20
HETATM   20  N   UNL     1      23.327  49.440  49.238  1.00  0.00    -0.075 N 
HETATM   21  H   UNL     1      23.420  50.087  50.030  1.00  0.00     0.279 HD
HETATM   22  C   UNL     1      24.071  50.071  48.078  1.00  0.00     0.269 C 
BRANCH  20  23
HETATM   23  C   UNL     1      21.853  49.341  48.885  1.00  0.00     0.234 C 
BRANCH  23  24
HETATM   24  C   UNL     1      21.381  50.410  47.902  1.00  0.00     0.027 C 
BRANCH  24  25
HETATM   25  C   UNL     1      20.559  51.525  48.547  1.00  0.00    -0.003 C 
HETATM   26  C   UNL     1      20.131  51.146  49.957  1.00  0.00     0.005 C 
ENDBRANCH  24  25
ENDBRANCH  23  24
ENDBRANCH  20  23
ENDBRANCH  19  20
ENDBRANCH  18  19
ENDBRANCH  17  18
ENDBRANCH  14  17
ENDBRANCH   1  13
BRANCH   1  27
HETATM   27  O   UNL     1      25.205  43.545  53.436  1.00  0.00    -0.359 OA
HETATM   28  H   UNL     1      24.318  43.743  53.098  1.00  0.00     0.213 HD
ENDBRANCH   1  27
BRANCH   2  29
HETATM   29  C   UNL     1      26.846  42.481  51.094  1.00  0.00     0.042 A 
HETATM   30  C   UNL     1      27.066  42.817  49.747  1.00  0.00     0.030 A 
HETATM   31  C   UNL     1      26.805  41.908  48.713  1.00  0.00     0.002 A 
HETATM   32  C   UNL     1      26.322  40.638  49.003  1.00  0.00     0.000 A 
HETATM   33  C   UNL     1      26.094  40.280  50.326  1.00  0.00     0.002 A 
HETATM   34  C   UNL     1      26.356  41.190  51.356  1.00  0.00     0.030 A 
ENDBRANCH   2  29
TORSDOF 10
ENDMDL
MODEL 5
REMARK VINA RESULT:      -7.4      2.351      5.692
REMARK  10 active torsions:
REMARK  status: ('A' for Active; 'I' for Inactive)
REMARK    1  A    between atoms: C_2  and  C_3 
REMARK    2  A    between atoms: C_3  and  C_4 
REMARK    3  A    between atoms: C_4  and  N_5 
REMARK    4  A    between atoms: N_5  and  C_7 
REMARK    5  A    between atoms: C_7  and  C_8 
REMARK    6  A    between atoms: C_8  and  C_9 
REMARK    7  A    between atoms: C_9  and  N_10 
REMARK       I    between atoms: N_10  and  C_11 
REMARK    8  A    between atoms: C_11  and  C_12 
REMARK    9  A    between atoms: C_12  and  O_13 
REMARK   10  A    between atoms: N_14  and  C_15 
ROOT
HETATM    1  C   UNL     1      27.086  40.730  50.844  1.00  0.00     0.256 C 
HETATM    2  N   UNL     1      28.030  39.698  50.368  1.00  0.00    -0.254 N 
HETATM    3  C   UNL     1      29.168  39.394  51.102  1.00  0.00     0.330 C 
HETATM    4  O   UNL     1      29.907  38.426  50.923  1.00  0.00    -0.246 OA
HETATM    5  N   UNL     1      29.541  40.257  52.085  1.00  0.00    -0.308 N 
HETATM    6  C   UNL     1      28.885  41.416  52.449  1.00  0.00     0.048 A 
HETATM    7  C   UNL     1      27.668  41.712  51.855  1.00  0.00     0.034 A 
HETATM    8  C   UNL     1      29.451  42.259  53.407  1.00  0.00     0.030 A 
HETATM    9  C   UNL     1      28.792  43.430  53.776  1.00  0.00     0.002 A 
HETATM   10  C   UNL     1      27.565  43.745  53.200  1.00  0.00     0.001 A 
HETATM   11  C   UNL     1      26.999  42.888  52.254  1.00  0.00     0.015 A 
HETATM   12  H   UNL     1      30.397  39.988  52.557  1.00  0.00     0.170 HD
ENDROOT
BRANCH   1  13
HETATM   13  C   UNL     1      26.626  41.618  49.586  1.00  0.00     0.279 C 
HETATM   14  N   UNL     1      25.256  41.610  49.327  1.00  0.00    -0.356 N 
HETATM   15  H   UNL     1      24.697  41.289  50.117  1.00  0.00     0.162 HD
HETATM   16  O   UNL     1      27.434  42.126  48.803  1.00  0.00    -0.268 OA
BRANCH  14  17
HETATM   17  C   UNL     1      24.574  42.525  48.429  1.00  0.00     0.124 C 
BRANCH  17  18
HETATM   18  C   UNL     1      23.711  43.619  49.060  1.00  0.00     0.047 C 
BRANCH  18  19
HETATM   19  C   UNL     1      24.359  44.998  48.988  1.00  0.00     0.236 C 
BRANCH  19  20
HETATM   20  N   UNL     1      25.335  45.237  50.135  1.00  0.00    -0.075 N 
HETATM   21  H   UNL     1      25.355  44.389  50.715  1.00  0.00     0.279 HD
HETATM   22  C   UNL     1      26.755  45.461  49.654  1.00  0.00     0.269 C 
BRANCH  20  23
HETATM   23  C   UNL     1      24.923  46.400  51.020  1.00  0.00     0.234 C 
BRANCH  23  24
HETATM   24  C   UNL     1      26.054  46.945  51.889  1.00  0.00     0.027 C 
BRANCH  24  25
HETATM   25  C   UNL     1      25.710  47.027  53.376  1.00  0.00    -0.003 C 
HETATM   26  C   UNL     1      26.953  47.298  54.212  1.00  0.00     0.005 C 
ENDBRANCH  24  25
ENDBRANCH  23  24
ENDBRANCH  20  23
ENDBRANCH  19  20
ENDBRANCH  18  19
ENDBRANCH  17  18
ENDBRANCH  14  17
ENDBRANCH   1  13
BRANCH   1  27
HETATM   27  O   UNL     1      26.001  40.069  51.484  1.00  0.00    -0.359 OA
HETATM   28  H   UNL     1      25.986  40.335  52.416  1.00  0.00     0.213 HD
ENDBRANCH   1  27
BRANCH   2  29
HETATM   29  C   UNL     1      27.669  38.877  49.223  1.00  0.00     0.042 A 
HETATM   30  C   UNL     1      28.278  39.037  47.965  1.00  0.00     0.030 A 
HETATM   31  C   UNL     1      27.970  38.191  46.892  1.00  0.00     0.002 A 
HETATM   32  C   UNL     1      27.049  37.163  47.051  1.00  0.00     0.000 A 
HETATM   33  C   UNL     1      26.432  36.985  48.283  1.00  0.00     0.002 A 
HETATM   34  C   UNL     1      26.741  37.830  49.354  1.00  0.00     0.030 A 
ENDBRANCH   2  29
TORSDOF 10
ENDMDL
MODEL 6
REMARK VINA RESULT:      -7.3     12.678     14.923
REMARK  10 active torsions:
REMARK  status: ('A' for Active; 'I' for Inactive)
REMARK    1  A    between atoms: C_2  and  C_3 
REMARK    2  A    between atoms: C_3  and  C_4 
REMARK    3  A    between atoms: C_4  and  N_5 
REMARK    4  A    between atoms: N_5  and  C_7 
REMARK    5  A    between atoms: C_7  and  C_8 
REMARK    6  A    between atoms: C_8  and  C_9 
REMARK    7  A    between atoms: C_9  and  N_10 
REMARK       I    between atoms: N_10  and  C_11 
REMARK    8  A    between atoms: C_11  and  C_12 
REMARK    9  A    between atoms: C_12  and  O_13 
REMARK   10  A    between atoms: N_14  and  C_15 
ROOT
HETATM    1  C   UNL     1      26.607  49.038  39.023  1.00  0.00     0.256 C 
HETATM    2  N   UNL     1      27.300  48.160  39.989  1.00  0.00    -0.254 N 
HETATM    3  C   UNL     1      26.600  47.172  40.668  1.00  0.00     0.330 C 
HETATM    4  O   UNL     1      27.096  46.259  41.327  1.00  0.00    -0.246 OA
HETATM    5  N   UNL     1      25.241  47.229  40.651  1.00  0.00    -0.308 N 
HETATM    6  C   UNL     1      24.469  48.172  40.003  1.00  0.00     0.048 A 
HETATM    7  C   UNL     1      25.094  49.107  39.192  1.00  0.00     0.034 A 
HETATM    8  C   UNL     1      23.083  48.163  40.168  1.00  0.00     0.030 A 
HETATM    9  C   UNL     1      22.301  49.114  39.517  1.00  0.00     0.002 A 
HETATM   10  C   UNL     1      22.904  50.058  38.690  1.00  0.00     0.001 A 
HETATM   11  C   UNL     1      24.290  50.050  38.519  1.00  0.00     0.015 A 
HETATM   12  H   UNL     1      24.799  46.494  41.192  1.00  0.00     0.170 HD
ENDROOT
BRANCH   1  13
HETATM   13  C   UNL     1      27.139  50.541  39.230  1.00  0.00     0.279 C 
HETATM   14  N   UNL     1      26.988  51.048  40.519  1.00  0.00    -0.356 N 
HETATM   15  H   UNL     1      26.833  50.326  41.222  1.00  0.00     0.162 HD
HETATM   16  O   UNL     1      27.490  51.255  38.286  1.00  0.00    -0.268 OA
BRANCH  14  17
HETATM   17  C   UNL     1      27.619  52.258  41.017  1.00  0.00     0.124 C 
BRANCH  17  18
HETATM   18  C   UNL     1      29.122  52.417  40.781  1.00  0.00     0.047 C 
BRANCH  18  19
HETATM   19  C   UNL     1      29.927  52.415  42.077  1.00  0.00     0.236 C 
BRANCH  19  20
HETATM   20  N   UNL     1      31.395  52.754  41.843  1.00  0.00    -0.075 N 
HETATM   21  H   UNL     1      31.574  53.681  42.248  1.00  0.00     0.279 HD
HETATM   22  C   UNL     1      32.334  51.792  42.544  1.00  0.00     0.269 C 
BRANCH  20  23
HETATM   23  C   UNL     1      31.754  52.810  40.368  1.00  0.00     0.234 C 
BRANCH  23  24
HETATM   24  C   UNL     1      32.635  51.652  39.903  1.00  0.00     0.027 C 
BRANCH  24  25
HETATM   25  C   UNL     1      32.532  51.357  38.407  1.00  0.00    -0.003 C 
HETATM   26  C   UNL     1      31.080  51.255  37.966  1.00  0.00     0.005 C 
ENDBRANCH  24  25
ENDBRANCH  23  24
ENDBRANCH  20  23
ENDBRANCH  19  20
ENDBRANCH  18  19
ENDBRANCH  17  18
ENDBRANCH  14  17
ENDBRANCH   1  13
BRANCH   1  27
HETATM   27  O   UNL     1      26.858  48.535  37.717  1.00  0.00    -0.359 OA
HETATM   28  H   UNL     1      26.084  48.719  37.163  1.00  0.00     0.213 HD
ENDBRANCH   1  27
BRANCH   2  29
HETATM   29  C   UNL     1      28.750  48.218  40.091  1.00  0.00     0.042 A 
HETATM   30  C   UNL     1      29.403  48.653  41.258  1.00  0.00     0.030 A 
HETATM   31  C   UNL     1      30.799  48.635  41.365  1.00  0.00     0.002 A 
HETATM   32  C   UNL     1      31.576  48.177  40.308  1.00  0.00     0.000 A 
HETATM   33  C   UNL     1      30.957  47.742  39.143  1.00  0.00     0.002 A 
HETATM   34  C   UNL     1      29.562  47.761  39.039  1.00  0.00     0.030 A 
ENDBRANCH   2  29
TORSDOF 10
ENDMDL
MODEL 7
REMARK VINA RESULT:      -7.2     14.289     16.908
REMARK  10 active torsions:
REMARK  status: ('A' for Active; 'I' for Inactive)
REMARK    1  A    between atoms: C_2  and  C_3 
REMARK    2  A    between atoms: C_3  and  C_4 
REMARK    3  A    between atoms: C_4  and  N_5 
REMARK    4  A    between atoms: N_5  and  C_7 
REMARK    5  A    between atoms: C_7  and  C_8 
REMARK    6  A    between atoms: C_8  and  C_9 
REMARK    7  A    between atoms: C_9  and  N_10 
REMARK       I    between atoms: N_10  and  C_11 
REMARK    8  A    between atoms: C_11  and  C_12 
REMARK    9  A    between atoms: C_12  and  O_13 
REMARK   10  A    between atoms: N_14  and  C_15 
ROOT
HETATM    1  C   UNL     1      34.706  51.256  40.928  1.00  0.00     0.256 C 
HETATM    2  N   UNL     1      36.009  51.949  40.867  1.00  0.00    -0.254 N 
HETATM    3  C   UNL     1      36.656  52.336  42.032  1.00  0.00     0.330 C 
HETATM    4  O   UNL     1      37.821  52.724  42.119  1.00  0.00    -0.246 OA
HETATM    5  N   UNL     1      35.938  52.335  43.188  1.00  0.00    -0.308 N 
HETATM    6  C   UNL     1      34.616  51.966  43.330  1.00  0.00     0.048 A 
HETATM    7  C   UNL     1      33.946  51.438  42.238  1.00  0.00     0.034 A 
HETATM    8  C   UNL     1      33.983  52.123  44.565  1.00  0.00     0.030 A 
HETATM    9  C   UNL     1      32.649  51.752  44.712  1.00  0.00     0.002 A 
HETATM   10  C   UNL     1      31.957  51.211  43.632  1.00  0.00     0.001 A 
HETATM   11  C   UNL     1      32.603  51.044  42.405  1.00  0.00     0.015 A 
HETATM   12  H   UNL     1      36.466  52.658  43.992  1.00  0.00     0.170 HD
ENDROOT
BRANCH   1  13
HETATM   13  C   UNL     1      33.754  51.860  39.783  1.00  0.00     0.279 C 
HETATM   14  N   UNL     1      33.311  50.938  38.837  1.00  0.00    -0.356 N 
HETATM   15  H   UNL     1      33.401  49.969  39.143  1.00  0.00     0.162 HD
HETATM   16  O   UNL     1      33.571  53.074  39.645  1.00  0.00    -0.268 OA
BRANCH  14  17
HETATM   17  C   UNL     1      32.248  51.176  37.876  1.00  0.00     0.124 C 
BRANCH  17  18
HETATM   18  C   UNL     1      30.839  50.715  38.255  1.00  0.00     0.047 C 
BRANCH  18  19
HETATM   19  C   UNL     1      30.833  49.384  38.999  1.00  0.00     0.236 C 
BRANCH  19  20
HETATM   20  N   UNL     1      29.586  49.211  39.861  1.00  0.00    -0.075 N 
HETATM   21  H   UNL     1      28.998  48.490  39.425  1.00  0.00     0.279 HD
HETATM   22  C   UNL     1      29.907  48.717  41.257  1.00  0.00     0.269 C 
BRANCH  20  23
HETATM   23  C   UNL     1      28.766  50.485  39.963  1.00  0.00     0.234 C 
BRANCH  23  24
HETATM   24  C   UNL     1      28.951  51.235  41.280  1.00  0.00     0.027 C 
BRANCH  24  25
HETATM   25  C   UNL     1      28.879  52.755  41.144  1.00  0.00    -0.003 C 
HETATM   26  C   UNL     1      30.252  53.345  40.856  1.00  0.00     0.005 C 
ENDBRANCH  24  25
ENDBRANCH  23  24
ENDBRANCH  20  23
ENDBRANCH  19  20
ENDBRANCH  18  19
ENDBRANCH  17  18
ENDBRANCH  14  17
ENDBRANCH   1  13
BRANCH   1  27
HETATM   27  O   UNL     1      34.944  49.862  40.775  1.00  0.00    -0.359 OA
HETATM   28  H   UNL     1      35.664  49.607  41.372  1.00  0.00     0.213 HD
ENDBRANCH   1  27
BRANCH   2  29
HETATM   29  C   UNL     1      36.696  52.063  39.589  1.00  0.00     0.042 A 
HETATM   30  C   UNL     1      36.857  53.295  38.932  1.00  0.00     0.030 A 
HETATM   31  C   UNL     1      37.582  53.398  37.738  1.00  0.00     0.002 A 
HETATM   32  C   UNL     1      38.167  52.270  37.174  1.00  0.00     0.000 A 
HETATM   33  C   UNL     1      38.022  51.040  37.803  1.00  0.00     0.002 A 
HETATM   34  C   UNL     1      37.297  50.940  38.995  1.00  0.00     0.030 A 
ENDBRANCH   2  29
TORSDOF 10
ENDMDL
MODEL 8
REMARK VINA RESULT:      -7.1      2.625      7.760
REMARK  10 active torsions:
REMARK  status: ('A' for Active; 'I' for Inactive)
REMARK    1  A    between atoms: C_2  and  C_3 
REMARK    2  A    between atoms: C_3  and  C_4 
REMARK    3  A    between atoms: C_4  and  N_5 
REMARK    4  A    between atoms: N_5  and  C_7 
REMARK    5  A    between atoms: C_7  and  C_8 
REMARK    6  A    between atoms: C_8  and  C_9 
REMARK    7  A    between atoms: C_9  and  N_10 
REMARK       I    between atoms: N_10  and  C_11 
REMARK    8  A    between atoms: C_11  and  C_12 
REMARK    9  A    between atoms: C_12  and  O_13 
REMARK   10  A    between atoms: N_14  and  C_15 
ROOT
HETATM    1  C   UNL     1      24.720  44.747  50.946  1.00  0.00     0.256 C 
HETATM    2  N   UNL     1      25.778  45.359  51.777  1.00  0.00    -0.254 N 
HETATM    3  C   UNL     1      25.825  46.734  51.954  1.00  0.00     0.330 C 
HETATM    4  O   UNL     1      26.516  47.335  52.776  1.00  0.00    -0.246 OA
HETATM    5  N   UNL     1      25.079  47.509  51.121  1.00  0.00    -0.308 N 
HETATM    6  C   UNL     1      24.250  47.062  50.111  1.00  0.00     0.048 A 
HETATM    7  C   UNL     1      24.046  45.699  49.965  1.00  0.00     0.034 A 
HETATM    8  C   UNL     1      23.631  47.985  49.265  1.00  0.00     0.030 A 
HETATM    9  C   UNL     1      22.795  47.537  48.245  1.00  0.00     0.002 A 
HETATM   10  C   UNL     1      22.567  46.174  48.084  1.00  0.00     0.001 A 
HETATM   11  C   UNL     1      23.179  45.259  48.944  1.00  0.00     0.015 A 
HETATM   12  H   UNL     1      25.186  48.503  51.288  1.00  0.00     0.170 HD
ENDROOT
BRANCH   1  13
HETATM   13  C   UNL     1      25.385  43.592  50.048  1.00  0.00     0.279 C 
HETATM   14  N   UNL     1      25.091  42.289  50.449  1.00  0.00    -0.356 N 
HETATM   15  H   UNL     1      24.281  42.229  51.065  1.00  0.00     0.162 HD
HETATM   16  O   UNL     1      26.230  43.831  49.180  1.00  0.00    -0.268 OA
BRANCH  14  17
HETATM   17  C   UNL     1      25.347  41.097  49.660  1.00  0.00     0.124 C 
BRANCH  17  18
HETATM   18  C   UNL     1      26.362  40.093  50.209  1.00  0.00     0.047 C 
BRANCH  18  19
HETATM   19  C   UNL     1      27.757  40.689  50.368  1.00  0.00     0.236 C 
BRANCH  19  20
HETATM   20  N   UNL     1      28.807  39.917  49.575  1.00  0.00    -0.075 N 
HETATM   21  H   UNL     1      29.670  40.474  49.567  1.00  0.00     0.279 HD
HETATM   22  C   UNL     1      29.159  38.589  50.215  1.00  0.00     0.269 C 
BRANCH  20  23
HETATM   23  C   UNL     1      28.391  39.678  48.134  1.00  0.00     0.234 C 
BRANCH  23  24
HETATM   24  C   UNL     1      28.389  40.940  47.274  1.00  0.00     0.027 C 
BRANCH  24  25
HETATM   25  C   UNL     1      27.732  40.758  45.906  1.00  0.00    -0.003 C 
HETATM   26  C   UNL     1      26.242  40.487  46.046  1.00  0.00     0.005 C 
ENDBRANCH  24  25
ENDBRANCH  23  24
ENDBRANCH  20  23
ENDBRANCH  19  20
ENDBRANCH  18  19
ENDBRANCH  17  18
ENDBRANCH  14  17
ENDBRANCH   1  13
BRANCH   1  27
HETATM   27  O   UNL     1      23.707  44.259  51.817  1.00  0.00    -0.359 OA
HETATM   28  H   UNL     1      23.309  45.014  52.277  1.00  0.00     0.213 HD
ENDBRANCH   1  27
BRANCH   2  29
HETATM   29  C   UNL     1      26.659  44.501  52.554  1.00  0.00     0.042 A 
HETATM   30  C   UNL     1      27.965  44.192  52.135  1.00  0.00     0.030 A 
HETATM   31  C   UNL     1      28.825  43.423  52.928  1.00  0.00     0.002 A 
HETATM   32  C   UNL     1      28.402  42.948  54.163  1.00  0.00     0.000 A 
HETATM   33  C   UNL     1      27.115  43.238  54.601  1.00  0.00     0.002 A 
HETATM   34  C   UNL     1      26.258  44.006  53.807  1.00  0.00     0.030 A 
ENDBRANCH   2  29
TORSDOF 10
ENDMDL
MODEL 9
REMARK VINA RESULT:      -7.1      2.094      6.543
REMARK  10 active torsions:
REMARK  status: ('A' for Active; 'I' for Inactive)
REMARK    1  A    between atoms: C_2  and  C_3 
REMARK    2  A    between atoms: C_3  and  C_4 
REMARK    3  A    between atoms: C_4  and  N_5 
REMARK    4  A    between atoms: N_5  and  C_7 
REMARK    5  A    between atoms: C_7  and  C_8 
REMARK    6  A    between atoms: C_8  and  C_9 
REMARK    7  A    between atoms: C_9  and  N_10 
REMARK       I    between atoms: N_10  and  C_11 
REMARK    8  A    between atoms: C_11  and  C_12 
REMARK    9  A    between atoms: C_12  and  O_13 
REMARK   10  A    between atoms: N_14  and  C_15 
ROOT
HETATM    1  C   UNL     1      27.257  43.843  51.225  1.00  0.00     0.256 C 
HETATM    2  N   UNL     1      26.000  44.497  51.644  1.00  0.00    -0.254 N 
HETATM    3  C   UNL     1      25.943  45.216  52.830  1.00  0.00     0.330 C 
HETATM    4  O   UNL     1      25.032  45.967  53.177  1.00  0.00    -0.246 OA
HETATM    5  N   UNL     1      26.957  45.054  53.722  1.00  0.00    -0.308 N 
HETATM    6  C   UNL     1      28.068  44.249  53.562  1.00  0.00     0.048 A 
HETATM    7  C   UNL     1      28.261  43.609  52.348  1.00  0.00     0.034 A 
HETATM    8  C   UNL     1      28.972  44.102  54.615  1.00  0.00     0.030 A 
HETATM    9  C   UNL     1      30.092  43.290  54.458  1.00  0.00     0.002 A 
HETATM   10  C   UNL     1      30.314  42.643  53.245  1.00  0.00     0.001 A 
HETATM   11  C   UNL     1      29.412  42.809  52.192  1.00  0.00     0.015 A 
HETATM   12  H   UNL     1      26.833  45.586  54.577  1.00  0.00     0.170 HD
ENDROOT
BRANCH   1  13
HETATM   13  C   UNL     1      26.904  42.387  50.644  1.00  0.00     0.279 C 
HETATM   14  N   UNL     1      26.950  42.280  49.255  1.00  0.00    -0.356 N 
HETATM   15  H   UNL     1      27.470  43.034  48.808  1.00  0.00     0.162 HD
HETATM   16  O   UNL     1      26.456  41.481  51.353  1.00  0.00    -0.268 OA
BRANCH  14  17
HETATM   17  C   UNL     1      26.933  41.029  48.516  1.00  0.00     0.124 C 
BRANCH  17  18
HETATM   18  C   UNL     1      27.889  40.900  47.328  1.00  0.00     0.047 C 
BRANCH  18  19
HETATM   19  C   UNL     1      27.981  39.473  46.797  1.00  0.00     0.236 C 
BRANCH  19  20
HETATM   20  N   UNL     1      27.908  38.437  47.914  1.00  0.00    -0.075 N 
HETATM   21  H   UNL     1      27.182  38.737  48.577  1.00  0.00     0.279 HD
HETATM   22  C   UNL     1      27.491  37.069  47.412  1.00  0.00     0.269 C 
BRANCH  20  23
HETATM   23  C   UNL     1      29.214  38.307  48.678  1.00  0.00     0.234 C 
BRANCH  23  24
HETATM   24  C   UNL     1      29.070  38.499  50.185  1.00  0.00     0.027 C 
BRANCH  24  25
HETATM   25  C   UNL     1      30.195  37.865  51.002  1.00  0.00    -0.003 C 
HETATM   26  C   UNL     1      29.801  36.481  51.498  1.00  0.00     0.005 C 
ENDBRANCH  24  25
ENDBRANCH  23  24
ENDBRANCH  20  23
ENDBRANCH  19  20
ENDBRANCH  18  19
ENDBRANCH  17  18
ENDBRANCH  14  17
ENDBRANCH   1  13
BRANCH   1  27
HETATM   27  O   UNL     1      27.890  44.685  50.269  1.00  0.00    -0.359 OA
HETATM   28  H   UNL     1      27.250  45.352  49.977  1.00  0.00     0.213 HD
ENDBRANCH   1  27
BRANCH   2  29
HETATM   29  C   UNL     1      24.876  44.534  50.723  1.00  0.00     0.042 A 
HETATM   30  C   UNL     1      23.814  43.616  50.797  1.00  0.00     0.030 A 
HETATM   31  C   UNL     1      22.704  43.710  49.948  1.00  0.00     0.002 A 
HETATM   32  C   UNL     1      22.628  44.727  49.005  1.00  0.00     0.000 A 
HETATM   33  C   UNL     1      23.664  45.647  48.909  1.00  0.00     0.002 A 
HETATM   34  C   UNL     1      24.772  45.551  49.758  1.00  0.00     0.030 A 
ENDBRANCH   2  29
TORSDOF 10
ENDMDL
MODEL 10
REMARK VINA RESULT:      -7.1     12.085     13.956
REMARK  10 active torsions:
REMARK  status: ('A' for Active; 'I' for Inactive)
REMARK    1  A    between atoms: C_2  and  C_3 
REMARK    2  A    between atoms: C_3  and  C_4 
REMARK    3  A    between atoms: C_4  and  N_5 
REMARK    4  A    between atoms: N_5  and  C_7 
REMARK    5  A    between atoms: C_7  and  C_8 
REMARK    6  A    between atoms: C_8  and  C_9 
REMARK    7  A    between atoms: C_9  and  N_10 
REMARK       I    between atoms: N_10  and  C_11 
REMARK    8  A    between atoms: C_11  and  C_12 
REMARK    9  A    between atoms: C_12  and  O_13 
REMARK   10  A    between atoms: N_14  and  C_15 
ROOT
HETATM    1  C   UNL     1      27.925  48.589  40.597  1.00  0.00     0.256 C 
HETATM    2  N   UNL     1      28.003  49.635  39.556  1.00  0.00    -0.254 N 
HETATM    3  C   UNL     1      27.321  49.485  38.357  1.00  0.00     0.330 C 
HETATM    4  O   UNL     1      27.139  50.363  37.514  1.00  0.00    -0.246 OA
HETATM    5  N   UNL     1      26.841  48.250  38.048  1.00  0.00    -0.308 N 
HETATM    6  C   UNL     1      26.945  47.113  38.824  1.00  0.00     0.048 A 
HETATM    7  C   UNL     1      27.491  47.217  40.094  1.00  0.00     0.034 A 
HETATM    8  C   UNL     1      26.497  45.890  38.322  1.00  0.00     0.030 A 
HETATM    9  C   UNL     1      26.602  44.741  39.102  1.00  0.00     0.002 A 
HETATM   10  C   UNL     1      27.138  44.820  40.384  1.00  0.00     0.001 A 
HETATM   11  C   UNL     1      27.570  46.051  40.883  1.00  0.00     0.015 A 
HETATM   12  H   UNL     1      26.382  48.209  37.144  1.00  0.00     0.170 HD
ENDROOT
BRANCH   1  13
HETATM   13  C   UNL     1      29.392  48.382  41.220  1.00  0.00     0.279 C 
HETATM   14  N   UNL     1      30.351  47.908  40.326  1.00  0.00    -0.356 N 
HETATM   15  H   UNL     1      30.086  48.027  39.348  1.00  0.00     0.162 HD
HETATM   16  O   UNL     1      29.615  48.463  42.432  1.00  0.00    -0.268 OA
BRANCH  14  17
HETATM   17  C   UNL     1      31.782  47.893  40.572  1.00  0.00     0.124 C 
BRANCH  17  18
HETATM   18  C   UNL     1      32.474  49.240  40.787  1.00  0.00     0.047 C 
BRANCH  18  19
HETATM   19  C   UNL     1      33.831  49.104  41.472  1.00  0.00     0.236 C 
BRANCH  19  20
HETATM   20  N   UNL     1      34.632  50.401  41.424  1.00  0.00    -0.075 N 
HETATM   21  H   UNL     1      35.486  50.267  41.979  1.00  0.00     0.279 HD
HETATM   22  C   UNL     1      35.085  50.754  40.021  1.00  0.00     0.269 C 
BRANCH  20  23
HETATM   23  C   UNL     1      33.873  51.579  42.009  1.00  0.00     0.234 C 
BRANCH  23  24
HETATM   24  C   UNL     1      33.843  51.596  43.536  1.00  0.00     0.027 C 
BRANCH  24  25
HETATM   25  C   UNL     1      32.443  51.444  44.131  1.00  0.00    -0.003 C 
HETATM   26  C   UNL     1      31.390  52.050  43.216  1.00  0.00     0.005 C 
ENDBRANCH  24  25
ENDBRANCH  23  24
ENDBRANCH  20  23
ENDBRANCH  19  20
ENDBRANCH  18  19
ENDBRANCH  17  18
ENDBRANCH  14  17
ENDBRANCH   1  13
BRANCH   1  27
HETATM   27  O   UNL     1      26.965  49.002  41.561  1.00  0.00    -0.359 OA
HETATM   28  H   UNL     1      26.367  49.641  41.144  1.00  0.00     0.213 HD
ENDBRANCH   1  27
BRANCH   2  29
HETATM   29  C   UNL     1      28.648  50.901  39.866  1.00  0.00     0.042 A 
HETATM   30  C   UNL     1      29.892  51.262  39.318  1.00  0.00     0.030 A 
HETATM   31  C   UNL     1      30.467  52.514  39.570  1.00  0.00     0.002 A 
HETATM   32  C   UNL     1      29.809  53.437  40.373  1.00  0.00     0.000 A 
HETATM   33  C   UNL     1      28.579  53.106  40.928  1.00  0.00     0.002 A 
HETATM   34  C   UNL     1      28.007  51.855  40.675  1.00  0.00     0.030 A 
ENDBRANCH   2  29
TORSDOF 10
ENDMDL
