MODEL 1
REMARK VINA RESULT:      -7.5      0.000      0.000
REMARK  4 active torsions:
REMARK  status: ('A' for Active; 'I' for Inactive)
REMARK    1  A    between atoms: O_2  and  C_3 
REMARK    2  A    between atoms: C_6  and  C_7 
REMARK    3  A    between atoms: C_12  and  N_13 
REMARK    4  A    between atoms: C_15  and  C_16 
ROOT
HETATM    1  C   UNL     1      32.167  48.819  42.428  1.00  0.00     0.135 C 
HETATM    2  N   UNL     1      33.551  48.862  41.964  1.00  0.00    -0.214 N 
HETATM    3  C   UNL     1      34.024  49.982  41.380  1.00  0.00     0.736 A 
HETATM    4  N   UNL     1      33.394  51.187  41.534  1.00  0.00    -0.074 N 
HETATM    5  N   UNL     1      34.058  52.170  40.902  1.00  0.00     0.037 NA
HETATM    6  C   UNL     1      35.062  51.483  40.361  1.00  0.00     0.753 A 
HETATM    7  N   UNL     1      35.072  50.143  40.616  1.00  0.00     0.131 NA
HETATM    8  C   UNL     1      32.200  51.399  42.341  1.00  0.00     0.164 C 
HETATM    9  C   UNL     1      31.865  50.141  43.173  1.00  0.00     0.063 C 
HETATM   10  H   UNL     1      33.958  47.978  41.674  1.00  0.00     0.178 HD
ENDROOT
BRANCH   1  11
HETATM   11  C   UNL     1      31.181  48.433  41.332  1.00  0.00    -0.035 A 
HETATM   12  C   UNL     1      31.589  47.922  40.086  1.00  0.00     0.012 A 
HETATM   13  C   UNL     1      30.660  47.550  39.105  1.00  0.00     0.037 A 
HETATM   14  C   UNL     1      29.296  47.668  39.350  1.00  0.00     0.068 A 
HETATM   15  C   UNL     1      28.873  48.162  40.583  1.00  0.00     0.037 A 
HETATM   16  C   UNL     1      29.799  48.530  41.566  1.00  0.00     0.012 A 
BRANCH  14  17
HETATM   17  O   UNL     1      28.290  47.336  38.486  1.00  0.00    -0.356 OA
HETATM   18  C   UNL     1      27.209  48.254  38.380  1.00  0.00     0.210 C 
ENDBRANCH  14  17
ENDBRANCH   1  11
BRANCH   8  19
HETATM   19  C   UNL     1      30.997  51.910  41.556  1.00  0.00    -0.031 A 
HETATM   20  C   UNL     1      30.886  51.806  40.161  1.00  0.00     0.028 A 
HETATM   21  C   UNL     1      29.735  52.248  39.506  1.00  0.00     0.011 A 
HETATM   22 BR   UNL     1      29.601  52.072  37.628  1.00  0.00    -0.051 Br
HETATM   23  C   UNL     1      28.681  52.809  40.223  1.00  0.00     0.019 A 
HETATM   24  C   UNL     1      28.778  52.928  41.606  1.00  0.00     0.002 A 
HETATM   25  C   UNL     1      29.923  52.480  42.268  1.00  0.00     0.009 A 
ENDBRANCH   8  19
BRANCH   6  26
HETATM   26  N   UNL     1      36.011  51.988  39.579  1.00  0.00    -0.229 N 
HETATM   27  H   UNL     1      36.677  51.331  39.194  1.00  0.00     0.174 HD
HETATM   28  H   UNL     1      36.403  52.877  39.860  1.00  0.00     0.174 HD
ENDBRANCH   6  26
TORSDOF 4
ENDMDL
MODEL 2
REMARK VINA RESULT:      -7.2      3.719      5.774
REMARK  4 active torsions:
REMARK  status: ('A' for Active; 'I' for Inactive)
REMARK    1  A    between atoms: O_2  and  C_3 
REMARK    2  A    between atoms: C_6  and  C_7 
REMARK    3  A    between atoms: C_12  and  N_13 
REMARK    4  A    between atoms: C_15  and  C_16 
ROOT
HETATM    1  C   UNL     1      30.795  47.814  39.732  1.00  0.00     0.135 C 
HETATM    2  N   UNL     1      29.781  46.924  40.291  1.00  0.00    -0.214 N 
HETATM    3  C   UNL     1      28.505  47.348  40.393  1.00  0.00     0.736 A 
HETATM    4  N   UNL     1      28.049  48.415  39.668  1.00  0.00    -0.074 N 
HETATM    5  N   UNL     1      26.741  48.636  39.894  1.00  0.00     0.037 NA
HETATM    6  C   UNL     1      26.480  47.684  40.788  1.00  0.00     0.753 A 
HETATM    7  N   UNL     1      27.531  46.885  41.131  1.00  0.00     0.131 NA
HETATM    8  C   UNL     1      28.849  49.171  38.715  1.00  0.00     0.164 C 
HETATM    9  C   UNL     1      30.209  48.481  38.466  1.00  0.00     0.063 C 
HETATM   10  H   UNL     1      30.103  46.246  40.975  1.00  0.00     0.178 HD
ENDROOT
BRANCH   1  11
HETATM   11  C   UNL     1      31.394  48.761  40.766  1.00  0.00    -0.035 A 
HETATM   12  C   UNL     1      31.070  48.699  42.133  1.00  0.00     0.012 A 
HETATM   13  C   UNL     1      31.656  49.564  43.066  1.00  0.00     0.037 A 
HETATM   14  C   UNL     1      32.593  50.507  42.657  1.00  0.00     0.068 A 
HETATM   15  C   UNL     1      32.936  50.575  41.308  1.00  0.00     0.037 A 
HETATM   16  C   UNL     1      32.354  49.708  40.375  1.00  0.00     0.012 A 
BRANCH  14  17
HETATM   17  O   UNL     1      33.241  51.402  43.463  1.00  0.00    -0.356 OA
HETATM   18  C   UNL     1      32.579  51.776  44.665  1.00  0.00     0.210 C 
ENDBRANCH  14  17
ENDBRANCH   1  11
BRANCH   8  19
HETATM   19  C   UNL     1      29.006  50.648  39.062  1.00  0.00    -0.031 A 
HETATM   20  C   UNL     1      29.320  51.108  40.350  1.00  0.00     0.028 A 
HETATM   21  C   UNL     1      29.499  52.471  40.592  1.00  0.00     0.011 A 
HETATM   22 BR   UNL     1      29.949  53.061  42.331  1.00  0.00    -0.051 Br
HETATM   23  C   UNL     1      29.359  53.399  39.563  1.00  0.00     0.019 A 
HETATM   24  C   UNL     1      29.038  52.961  38.282  1.00  0.00     0.002 A 
HETATM   25  C   UNL     1      28.867  51.599  38.032  1.00  0.00     0.009 A 
ENDBRANCH   8  19
BRANCH   6  26
HETATM   26  N   UNL     1      25.309  47.486  41.385  1.00  0.00    -0.229 N 
HETATM   27  H   UNL     1      24.540  47.208  40.790  1.00  0.00     0.174 HD
HETATM   28  H   UNL     1      25.064  48.129  42.125  1.00  0.00     0.174 HD
ENDBRANCH   6  26
TORSDOF 4
ENDMDL
MODEL 3
REMARK VINA RESULT:      -7.1     14.707     16.460
REMARK  4 active torsions:
REMARK  status: ('A' for Active; 'I' for Inactive)
REMARK    1  A    between atoms: O_2  and  C_3 
REMARK    2  A    between atoms: C_6  and  C_7 
REMARK    3  A    between atoms: C_12  and  N_13 
REMARK    4  A    between atoms: C_15  and  C_16 
ROOT
HETATM    1  C   UNL     1      16.451  51.032  46.639  1.00  0.00     0.135 C 
HETATM    2  N   UNL     1      15.341  51.678  47.333  1.00  0.00    -0.214 N 
HETATM    3  C   UNL     1      15.563  52.311  48.502  1.00  0.00     0.736 A 
HETATM    4  N   UNL     1      16.822  52.692  48.878  1.00  0.00    -0.074 N 
HETATM    5  N   UNL     1      16.806  53.341  50.056  1.00  0.00     0.037 NA
HETATM    6  C   UNL     1      15.508  53.289  50.350  1.00  0.00     0.753 A 
HETATM    7  N   UNL     1      14.716  52.657  49.436  1.00  0.00     0.131 NA
HETATM    8  C   UNL     1      18.022  52.492  48.077  1.00  0.00     0.164 C 
HETATM    9  C   UNL     1      17.661  51.996  46.658  1.00  0.00     0.063 C 
HETATM   10  H   UNL     1      14.421  51.271  47.191  1.00  0.00     0.178 HD
ENDROOT
BRANCH   1  11
HETATM   11  C   UNL     1      16.722  49.616  47.134  1.00  0.00    -0.035 A 
HETATM   12  C   UNL     1      15.889  48.960  48.057  1.00  0.00     0.012 A 
HETATM   13  C   UNL     1      16.146  47.647  48.475  1.00  0.00     0.037 A 
HETATM   14  C   UNL     1      17.239  46.951  47.969  1.00  0.00     0.068 A 
HETATM   15  C   UNL     1      18.070  47.582  47.044  1.00  0.00     0.037 A 
HETATM   16  C   UNL     1      17.812  48.891  46.623  1.00  0.00     0.012 A 
BRANCH  14  17
HETATM   17  O   UNL     1      17.597  45.670  48.287  1.00  0.00    -0.356 OA
HETATM   18  C   UNL     1      18.854  45.219  47.801  1.00  0.00     0.210 C 
ENDBRANCH  14  17
ENDBRANCH   1  11
BRANCH   8  19
HETATM   19  C   UNL     1      19.081  51.621  48.741  1.00  0.00    -0.031 A 
HETATM   20  C   UNL     1      20.434  51.635  48.371  1.00  0.00     0.028 A 
HETATM   21  C   UNL     1      21.364  50.849  49.053  1.00  0.00     0.011 A 
HETATM   22 BR   UNL     1      23.186  50.908  48.551  1.00  0.00    -0.051 Br
HETATM   23  C   UNL     1      20.966  50.028  50.105  1.00  0.00     0.019 A 
HETATM   24  C   UNL     1      19.626  49.995  50.480  1.00  0.00     0.002 A 
HETATM   25  C   UNL     1      18.692  50.786  49.808  1.00  0.00     0.009 A 
ENDBRANCH   8  19
BRANCH   6  26
HETATM   26  N   UNL     1      14.947  53.761  51.458  1.00  0.00    -0.229 N 
HETATM   27  H   UNL     1      15.570  54.172  52.141  1.00  0.00     0.174 HD
HETATM   28  H   UNL     1      14.187  53.220  51.846  1.00  0.00     0.174 HD
ENDBRANCH   6  26
TORSDOF 4
ENDMDL
MODEL 4
REMARK VINA RESULT:      -7.1     25.116     27.003
REMARK  4 active torsions:
REMARK  status: ('A' for Active; 'I' for Inactive)
REMARK    1  A    between atoms: O_2  and  C_3 
REMARK    2  A    between atoms: C_6  and  C_7 
REMARK    3  A    between atoms: C_12  and  N_13 
REMARK    4  A    between atoms: C_15  and  C_16 
ROOT
HETATM    1  C   UNL     1      37.024  43.062  63.486  1.00  0.00     0.135 C 
HETATM    2  N   UNL     1      36.076  43.230  64.583  1.00  0.00    -0.214 N 
HETATM    3  C   UNL     1      36.454  43.890  65.696  1.00  0.00     0.736 A 
HETATM    4  N   UNL     1      37.543  44.719  65.698  1.00  0.00    -0.074 N 
HETATM    5  N   UNL     1      37.712  45.302  66.898  1.00  0.00     0.037 NA
HETATM    6  C   UNL     1      36.708  44.757  67.582  1.00  0.00     0.753 A 
HETATM    7  N   UNL     1      35.925  43.879  66.892  1.00  0.00     0.131 NA
HETATM    8  C   UNL     1      38.372  44.998  64.533  1.00  0.00     0.164 C 
HETATM    9  C   UNL     1      37.737  44.414  63.251  1.00  0.00     0.063 C 
HETATM   10  H   UNL     1      35.373  42.504  64.689  1.00  0.00     0.178 HD
ENDROOT
BRANCH   1  11
HETATM   11  C   UNL     1      37.934  41.852  63.662  1.00  0.00    -0.035 A 
HETATM   12  C   UNL     1      37.845  40.987  64.768  1.00  0.00     0.012 A 
HETATM   13  C   UNL     1      38.676  39.866  64.892  1.00  0.00     0.037 A 
HETATM   14  C   UNL     1      39.611  39.573  63.904  1.00  0.00     0.068 A 
HETATM   15  C   UNL     1      39.705  40.412  62.795  1.00  0.00     0.037 A 
HETATM   16  C   UNL     1      38.873  41.530  62.668  1.00  0.00     0.012 A 
BRANCH  14  17
HETATM   17  O   UNL     1      40.473  38.512  63.900  1.00  0.00    -0.356 OA
HETATM   18  C   UNL     1      41.732  38.709  64.531  1.00  0.00     0.210 C 
ENDBRANCH  14  17
ENDBRANCH   1  11
BRANCH   8  19
HETATM   19  C   UNL     1      39.832  44.591  64.692  1.00  0.00    -0.031 A 
HETATM   20  C   UNL     1      40.258  43.570  65.556  1.00  0.00     0.028 A 
HETATM   21  C   UNL     1      41.606  43.211  65.618  1.00  0.00     0.011 A 
HETATM   22 BR   UNL     1      42.148  41.814  66.771  1.00  0.00    -0.051 Br
HETATM   23  C   UNL     1      42.553  43.865  64.834  1.00  0.00     0.019 A 
HETATM   24  C   UNL     1      42.149  44.885  63.978  1.00  0.00     0.002 A 
HETATM   25  C   UNL     1      40.802  45.244  63.905  1.00  0.00     0.009 A 
ENDBRANCH   8  19
BRANCH   6  26
HETATM   26  N   UNL     1      36.444  44.970  68.867  1.00  0.00    -0.229 N 
HETATM   27  H   UNL     1      35.592  45.474  69.075  1.00  0.00     0.174 HD
HETATM   28  H   UNL     1      37.230  45.200  69.458  1.00  0.00     0.174 HD
ENDBRANCH   6  26
TORSDOF 4
ENDMDL
MODEL 5
REMARK VINA RESULT:      -7.0     13.852     15.843
REMARK  4 active torsions:
REMARK  status: ('A' for Active; 'I' for Inactive)
REMARK    1  A    between atoms: O_2  and  C_3 
REMARK    2  A    between atoms: C_6  and  C_7 
REMARK    3  A    between atoms: C_12  and  N_13 
REMARK    4  A    between atoms: C_15  and  C_16 
ROOT
HETATM    1  C   UNL     1      16.899  51.971  48.561  1.00  0.00     0.135 C 
HETATM    2  N   UNL     1      16.895  52.708  47.300  1.00  0.00    -0.214 N 
HETATM    3  C   UNL     1      16.892  52.032  46.133  1.00  0.00     0.736 A 
HETATM    4  N   UNL     1      16.524  50.716  46.073  1.00  0.00    -0.074 N 
HETATM    5  N   UNL     1      16.555  50.256  44.809  1.00  0.00     0.037 NA
HETATM    6  C   UNL     1      16.981  51.340  44.163  1.00  0.00     0.753 A 
HETATM    7  N   UNL     1      17.212  52.441  44.934  1.00  0.00     0.131 NA
HETATM    8  C   UNL     1      16.080  49.927  47.214  1.00  0.00     0.164 C 
HETATM    9  C   UNL     1      15.868  50.823  48.455  1.00  0.00     0.063 C 
HETATM   10  H   UNL     1      17.338  53.621  47.308  1.00  0.00     0.178 HD
ENDROOT
BRANCH   1  11
HETATM   11  C   UNL     1      18.299  51.569  49.012  1.00  0.00    -0.035 A 
HETATM   12  C   UNL     1      18.530  50.719  50.109  1.00  0.00     0.012 A 
HETATM   13  C   UNL     1      19.826  50.344  50.487  1.00  0.00     0.037 A 
HETATM   14  C   UNL     1      20.926  50.800  49.768  1.00  0.00     0.068 A 
HETATM   15  C   UNL     1      20.716  51.633  48.670  1.00  0.00     0.037 A 
HETATM   16  C   UNL     1      19.421  52.006  48.290  1.00  0.00     0.012 A 
BRANCH  14  17
HETATM   17  O   UNL     1      22.236  50.505  50.025  1.00  0.00    -0.356 OA
HETATM   18  C   UNL     1      23.162  50.735  48.971  1.00  0.00     0.210 C 
ENDBRANCH  14  17
ENDBRANCH   1  11
BRANCH   8  19
HETATM   19  C   UNL     1      16.956  48.717  47.518  1.00  0.00    -0.031 A 
HETATM   20  C   UNL     1      18.332  48.674  47.245  1.00  0.00     0.028 A 
HETATM   21  C   UNL     1      19.088  47.553  47.594  1.00  0.00     0.011 A 
HETATM   22 BR   UNL     1      20.946  47.532  47.240  1.00  0.00    -0.051 Br
HETATM   23  C   UNL     1      18.491  46.455  48.208  1.00  0.00     0.019 A 
HETATM   24  C   UNL     1      17.126  46.478  48.477  1.00  0.00     0.002 A 
HETATM   25  C   UNL     1      16.365  47.598  48.139  1.00  0.00     0.009 A 
ENDBRANCH   8  19
BRANCH   6  26
HETATM   26  N   UNL     1      17.227  51.414  42.858  1.00  0.00    -0.229 N 
HETATM   27  H   UNL     1      17.499  50.554  42.400  1.00  0.00     0.174 HD
HETATM   28  H   UNL     1      17.712  52.241  42.536  1.00  0.00     0.174 HD
ENDBRANCH   6  26
TORSDOF 4
ENDMDL
MODEL 6
REMARK VINA RESULT:      -6.9     13.518     14.881
REMARK  4 active torsions:
REMARK  status: ('A' for Active; 'I' for Inactive)
REMARK    1  A    between atoms: O_2  and  C_3 
REMARK    2  A    between atoms: C_6  and  C_7 
REMARK    3  A    between atoms: C_12  and  N_13 
REMARK    4  A    between atoms: C_15  and  C_16 
ROOT
HETATM    1  C   UNL     1      19.006  47.946  49.843  1.00  0.00     0.135 C 
HETATM    2  N   UNL     1      20.434  47.884  49.544  1.00  0.00    -0.214 N 
HETATM    3  C   UNL     1      21.084  49.003  49.164  1.00  0.00     0.736 A 
HETATM    4  N   UNL     1      20.563  50.246  49.401  1.00  0.00    -0.074 N 
HETATM    5  N   UNL     1      21.395  51.214  48.976  1.00  0.00     0.037 NA
HETATM    6  C   UNL     1      22.385  50.484  48.466  1.00  0.00     0.753 A 
HETATM    7  N   UNL     1      22.230  49.131  48.547  1.00  0.00     0.131 NA
HETATM    8  C   UNL     1      19.306  50.498  50.091  1.00  0.00     0.164 C 
HETATM    9  C   UNL     1      18.748  49.199  50.713  1.00  0.00     0.063 C 
HETATM   10  H   UNL     1      20.784  46.999  49.190  1.00  0.00     0.178 HD
ENDROOT
BRANCH   1  11
HETATM   11  C   UNL     1      18.129  47.804  48.604  1.00  0.00    -0.035 A 
HETATM   12  C   UNL     1      18.625  47.351  47.369  1.00  0.00     0.012 A 
HETATM   13  C   UNL     1      17.791  47.204  46.252  1.00  0.00     0.037 A 
HETATM   14  C   UNL     1      16.434  47.496  46.346  1.00  0.00     0.068 A 
HETATM   15  C   UNL     1      15.923  47.935  47.567  1.00  0.00     0.037 A 
HETATM   16  C   UNL     1      16.754  48.078  48.684  1.00  0.00     0.012 A 
BRANCH  14  17
HETATM   17  O   UNL     1      15.515  47.389  45.340  1.00  0.00    -0.356 OA
HETATM   18  C   UNL     1      14.250  47.999  45.563  1.00  0.00     0.210 C 
ENDBRANCH  14  17
ENDBRANCH   1  11
BRANCH   8  19
HETATM   19  C   UNL     1      18.266  51.230  49.250  1.00  0.00    -0.031 A 
HETATM   20  C   UNL     1      18.309  51.287  47.849  1.00  0.00     0.028 A 
HETATM   21  C   UNL     1      17.297  51.931  47.134  1.00  0.00     0.011 A 
HETATM   22 BR   UNL     1      17.366  51.969  45.245  1.00  0.00    -0.051 Br
HETATM   23  C   UNL     1      16.234  52.537  47.798  1.00  0.00     0.019 A 
HETATM   24  C   UNL     1      16.180  52.498  49.188  1.00  0.00     0.002 A 
HETATM   25  C   UNL     1      17.184  51.848  49.908  1.00  0.00     0.009 A 
ENDBRANCH   8  19
BRANCH   6  26
HETATM   26  N   UNL     1      23.468  50.964  47.865  1.00  0.00    -0.229 N 
HETATM   27  H   UNL     1      23.679  51.940  48.025  1.00  0.00     0.174 HD
HETATM   28  H   UNL     1      23.645  50.639  46.924  1.00  0.00     0.174 HD
ENDBRANCH   6  26
TORSDOF 4
ENDMDL
MODEL 7
REMARK VINA RESULT:      -6.7     14.240     16.210
REMARK  4 active torsions:
REMARK  status: ('A' for Active; 'I' for Inactive)
REMARK    1  A    between atoms: O_2  and  C_3 
REMARK    2  A    between atoms: C_6  and  C_7 
REMARK    3  A    between atoms: C_12  and  N_13 
REMARK    4  A    between atoms: C_15  and  C_16 
ROOT
HETATM    1  C   UNL     1      19.288  51.558  47.790  1.00  0.00     0.135 C 
HETATM    2  N   UNL     1      19.495  51.415  49.228  1.00  0.00    -0.214 N 
HETATM    3  C   UNL     1      19.201  50.245  49.831  1.00  0.00     0.736 A 
HETATM    4  N   UNL     1      19.073  49.087  49.114  1.00  0.00    -0.074 N 
HETATM    5  N   UNL     1      18.819  48.039  49.918  1.00  0.00     0.037 NA
HETATM    6  C   UNL     1      18.777  48.642  51.105  1.00  0.00     0.753 A 
HETATM    7  N   UNL     1      18.991  49.990  51.096  1.00  0.00     0.131 NA
HETATM    8  C   UNL     1      19.261  48.979  47.674  1.00  0.00     0.164 C 
HETATM    9  C   UNL     1      19.836  50.291  47.094  1.00  0.00     0.063 C 
HETATM   10  H   UNL     1      19.406  52.260  49.785  1.00  0.00     0.178 HD
ENDROOT
BRANCH   1  11
HETATM   11  C   UNL     1      17.861  51.952  47.428  1.00  0.00    -0.035 A 
HETATM   12  C   UNL     1      16.870  52.197  48.396  1.00  0.00     0.012 A 
HETATM   13  C   UNL     1      15.572  52.583  48.036  1.00  0.00     0.037 A 
HETATM   14  C   UNL     1      15.234  52.747  46.697  1.00  0.00     0.068 A 
HETATM   15  C   UNL     1      16.207  52.519  45.724  1.00  0.00     0.037 A 
HETATM   16  C   UNL     1      17.505  52.137  46.082  1.00  0.00     0.012 A 
BRANCH  14  17
HETATM   17  O   UNL     1      14.012  53.124  46.214  1.00  0.00    -0.356 OA
HETATM   18  C   UNL     1      13.902  54.454  45.723  1.00  0.00     0.210 C 
ENDBRANCH  14  17
ENDBRANCH   1  11
BRANCH   8  19
HETATM   19  C   UNL     1      18.026  48.505  46.915  1.00  0.00    -0.031 A 
HETATM   20  C   UNL     1      18.086  47.882  45.659  1.00  0.00     0.028 A 
HETATM   21  C   UNL     1      16.922  47.425  45.039  1.00  0.00     0.011 A 
HETATM   22 BR   UNL     1      17.034  46.565  43.359  1.00  0.00    -0.051 Br
HETATM   23  C   UNL     1      15.680  47.589  45.648  1.00  0.00     0.019 A 
HETATM   24  C   UNL     1      15.602  48.213  46.890  1.00  0.00     0.002 A 
HETATM   25  C   UNL     1      16.763  48.664  47.519  1.00  0.00     0.009 A 
ENDBRANCH   8  19
BRANCH   6  26
HETATM   26  N   UNL     1      18.511  48.049  52.264  1.00  0.00    -0.229 N 
HETATM   27  H   UNL     1      18.623  47.044  52.294  1.00  0.00     0.174 HD
HETATM   28  H   UNL     1      17.720  48.405  52.783  1.00  0.00     0.174 HD
ENDBRANCH   6  26
TORSDOF 4
ENDMDL
MODEL 8
REMARK VINA RESULT:      -6.4     24.798     26.780
REMARK  4 active torsions:
REMARK  status: ('A' for Active; 'I' for Inactive)
REMARK    1  A    between atoms: O_2  and  C_3 
REMARK    2  A    between atoms: C_6  and  C_7 
REMARK    3  A    between atoms: C_12  and  N_13 
REMARK    4  A    between atoms: C_15  and  C_16 
ROOT
HETATM    1  C   UNL     1      37.644  44.059  63.495  1.00  0.00     0.135 C 
HETATM    2  N   UNL     1      36.711  43.317  64.338  1.00  0.00    -0.214 N 
HETATM    3  C   UNL     1      36.161  43.918  65.413  1.00  0.00     0.736 A 
HETATM    4  N   UNL     1      36.147  45.280  65.538  1.00  0.00    -0.074 N 
HETATM    5  N   UNL     1      35.516  45.661  66.663  1.00  0.00     0.037 NA
HETATM    6  C   UNL     1      35.201  44.477  67.184  1.00  0.00     0.753 A 
HETATM    7  N   UNL     1      35.589  43.386  66.461  1.00  0.00     0.131 NA
HETATM    8  C   UNL     1      36.677  46.208  64.549  1.00  0.00     0.164 C 
HETATM    9  C   UNL     1      37.057  45.468  63.247  1.00  0.00     0.063 C 
HETATM   10  H   UNL     1      36.845  42.311  64.384  1.00  0.00     0.178 HD
ENDROOT
BRANCH   1  11
HETATM   11  C   UNL     1      39.078  44.017  64.011  1.00  0.00    -0.035 A 
HETATM   12  C   UNL     1      39.491  43.154  65.041  1.00  0.00     0.012 A 
HETATM   13  C   UNL     1      40.822  43.117  65.479  1.00  0.00     0.037 A 
HETATM   14  C   UNL     1      41.779  43.936  64.886  1.00  0.00     0.068 A 
HETATM   15  C   UNL     1      41.389  44.789  63.855  1.00  0.00     0.037 A 
HETATM   16  C   UNL     1      40.061  44.824  63.415  1.00  0.00     0.012 A 
BRANCH  14  17
HETATM   17  O   UNL     1      43.105  43.992  65.212  1.00  0.00    -0.356 OA
HETATM   18  C   UNL     1      43.588  42.991  66.099  1.00  0.00     0.210 C 
ENDBRANCH  14  17
ENDBRANCH   1  11
BRANCH   8  19
HETATM   19  C   UNL     1      37.808  47.092  65.062  1.00  0.00    -0.031 A 
HETATM   20  C   UNL     1      38.766  46.656  65.990  1.00  0.00     0.028 A 
HETATM   21  C   UNL     1      39.808  47.499  66.382  1.00  0.00     0.011 A 
HETATM   22 BR   UNL     1      41.100  46.877  67.614  1.00  0.00    -0.051 Br
HETATM   23  C   UNL     1      39.909  48.790  65.869  1.00  0.00     0.019 A 
HETATM   24  C   UNL     1      38.962  49.241  64.955  1.00  0.00     0.002 A 
HETATM   25  C   UNL     1      37.923  48.400  64.552  1.00  0.00     0.009 A 
ENDBRANCH   8  19
BRANCH   6  26
HETATM   26  N   UNL     1      34.587  44.283  68.347  1.00  0.00    -0.229 N 
HETATM   27  H   UNL     1      34.787  44.949  69.080  1.00  0.00     0.174 HD
HETATM   28  H   UNL     1      34.495  43.324  68.655  1.00  0.00     0.174 HD
ENDBRANCH   6  26
TORSDOF 4
ENDMDL
MODEL 9
REMARK VINA RESULT:      -6.3      1.498      2.097
REMARK  4 active torsions:
REMARK  status: ('A' for Active; 'I' for Inactive)
REMARK    1  A    between atoms: O_2  and  C_3 
REMARK    2  A    between atoms: C_6  and  C_7 
REMARK    3  A    between atoms: C_12  and  N_13 
REMARK    4  A    between atoms: C_15  and  C_16 
ROOT
HETATM    1  C   UNL     1      31.497  49.633  42.575  1.00  0.00     0.135 C 
HETATM    2  N   UNL     1      32.927  49.827  42.353  1.00  0.00    -0.214 N 
HETATM    3  C   UNL     1      33.344  50.757  41.470  1.00  0.00     0.736 A 
HETATM    4  N   UNL     1      32.518  51.766  41.053  1.00  0.00    -0.074 N 
HETATM    5  N   UNL     1      33.151  52.598  40.208  1.00  0.00     0.037 NA
HETATM    6  C   UNL     1      34.346  52.015  40.134  1.00  0.00     0.753 A 
HETATM    7  N   UNL     1      34.503  50.882  40.878  1.00  0.00     0.131 NA
HETATM    8  C   UNL     1      31.153  51.963  41.520  1.00  0.00     0.164 C 
HETATM    9  C   UNL     1      30.833  51.023  42.703  1.00  0.00     0.063 C 
HETATM   10  H   UNL     1      33.521  49.015  42.489  1.00  0.00     0.178 HD
ENDROOT
BRANCH   1  11
HETATM   11  C   UNL     1      30.861  48.682  41.566  1.00  0.00    -0.035 A 
HETATM   12  C   UNL     1      29.547  48.197  41.702  1.00  0.00     0.012 A 
HETATM   13  C   UNL     1      28.977  47.345  40.746  1.00  0.00     0.037 A 
HETATM   14  C   UNL     1      29.704  46.966  39.622  1.00  0.00     0.068 A 
HETATM   15  C   UNL     1      31.003  47.446  39.466  1.00  0.00     0.037 A 
HETATM   16  C   UNL     1      31.572  48.300  40.417  1.00  0.00     0.012 A 
BRANCH  14  17
HETATM   17  O   UNL     1      29.265  46.149  38.617  1.00  0.00    -0.356 OA
HETATM   18  C   UNL     1      29.200  44.759  38.906  1.00  0.00     0.210 C 
ENDBRANCH  14  17
ENDBRANCH   1  11
BRANCH   8  19
HETATM   19  C   UNL     1      30.099  51.888  40.421  1.00  0.00    -0.031 A 
HETATM   20  C   UNL     1      28.967  51.062  40.493  1.00  0.00     0.028 A 
HETATM   21  C   UNL     1      28.013  51.076  39.475  1.00  0.00     0.011 A 
HETATM   22 BR   UNL     1      26.483  49.973  39.611  1.00  0.00    -0.051 Br
HETATM   23  C   UNL     1      28.171  51.901  38.364  1.00  0.00     0.019 A 
HETATM   24  C   UNL     1      29.292  52.720  38.271  1.00  0.00     0.002 A 
HETATM   25  C   UNL     1      30.246  52.717  39.290  1.00  0.00     0.009 A 
ENDBRANCH   8  19
BRANCH   6  26
HETATM   26  N   UNL     1      35.361  52.425  39.379  1.00  0.00    -0.229 N 
HETATM   27  H   UNL     1      36.290  52.267  39.746  1.00  0.00     0.174 HD
HETATM   28  H   UNL     1      35.237  53.303  38.894  1.00  0.00     0.174 HD
ENDBRANCH   6  26
TORSDOF 4
ENDMDL
MODEL 10
REMARK VINA RESULT:      -6.2      3.929      5.931
REMARK  4 active torsions:
REMARK  status: ('A' for Active; 'I' for Inactive)
REMARK    1  A    between atoms: O_2  and  C_3 
REMARK    2  A    between atoms: C_6  and  C_7 
REMARK    3  A    between atoms: C_12  and  N_13 
REMARK    4  A    between atoms: C_15  and  C_16 
ROOT
HETATM    1  C   UNL     1      29.998  46.904  38.579  1.00  0.00     0.135 C 
HETATM    2  N   UNL     1      29.463  45.767  39.321  1.00  0.00    -0.214 N 
HETATM    3  C   UNL     1      28.354  45.923  40.073  1.00  0.00     0.736 A 
HETATM    4  N   UNL     1      27.508  46.981  39.883  1.00  0.00    -0.074 N 
HETATM    5  N   UNL     1      26.450  46.917  40.711  1.00  0.00     0.037 NA
HETATM    6  C   UNL     1      26.738  45.811  41.395  1.00  0.00     0.753 A 
HETATM    7  N   UNL     1      27.898  45.181  41.047  1.00  0.00     0.131 NA
HETATM    8  C   UNL     1      27.682  48.008  38.865  1.00  0.00     0.164 C 
HETATM    9  C   UNL     1      28.819  47.631  37.889  1.00  0.00     0.063 C 
HETATM   10  H   UNL     1      30.134  45.067  39.622  1.00  0.00     0.178 HD
ENDROOT
BRANCH   1  11
HETATM   11  C   UNL     1      30.922  47.782  39.415  1.00  0.00    -0.035 A 
HETATM   12  C   UNL     1      31.154  49.138  39.123  1.00  0.00     0.012 A 
HETATM   13  C   UNL     1      31.988  49.930  39.925  1.00  0.00     0.037 A 
HETATM   14  C   UNL     1      32.603  49.386  41.048  1.00  0.00     0.068 A 
HETATM   15  C   UNL     1      32.376  48.047  41.359  1.00  0.00     0.037 A 
HETATM   16  C   UNL     1      31.540  47.256  40.562  1.00  0.00     0.012 A 
BRANCH  14  17
HETATM   17  O   UNL     1      33.431  50.048  41.912  1.00  0.00    -0.356 OA
HETATM   18  C   UNL     1      32.809  50.740  42.988  1.00  0.00     0.210 C 
ENDBRANCH  14  17
ENDBRANCH   1  11
BRANCH   8  19
HETATM   19  C   UNL     1      27.842  49.419  39.420  1.00  0.00    -0.031 A 
HETATM   20  C   UNL     1      28.209  50.521  38.632  1.00  0.00     0.028 A 
HETATM   21  C   UNL     1      28.289  51.797  39.191  1.00  0.00     0.011 A 
HETATM   22 BR   UNL     1      28.760  53.268  38.101  1.00  0.00    -0.051 Br
HETATM   23  C   UNL     1      28.018  51.999  40.542  1.00  0.00     0.019 A 
HETATM   24  C   UNL     1      27.661  50.917  41.340  1.00  0.00     0.002 A 
HETATM   25  C   UNL     1      27.570  49.639  40.785  1.00  0.00     0.009 A 
ENDBRANCH   8  19
BRANCH   6  26
HETATM   26  N   UNL     1      26.017  45.309  42.392  1.00  0.00    -0.229 N 
HETATM   27  H   UNL     1      25.016  45.446  42.339  1.00  0.00     0.174 HD
HETATM   28  H   UNL     1      26.410  45.390  43.320  1.00  0.00     0.174 HD
ENDBRANCH   6  26
TORSDOF 4
ENDMDL
