MODEL 1
REMARK VINA RESULT:      -8.3      0.000      0.000
REMARK  7 active torsions:
REMARK  status: ('A' for Active; 'I' for Inactive)
REMARK    1  A    between atoms: C_2  and  N_3 
REMARK    2  A    between atoms: C_2  and  C_17 
REMARK       I    between atoms: N_3  and  C_4 
REMARK    3  A    between atoms: C_4  and  C_5 
REMARK    4  A    between atoms: C_6  and  N_7 
REMARK    5  A    between atoms: C_17  and  O_18 
REMARK    6  A    between atoms: C_17  and  C_19 
REMARK    7  A    between atoms: C_22  and  O_23 
ROOT
HETATM    1  N   UNL     1      27.928  43.216  53.458  1.00  0.00    -0.350 N 
HETATM    2  C   UNL     1      29.275  43.501  53.560  1.00  0.00     0.255 C 
HETATM    3  O   UNL     1      30.082  43.493  52.643  1.00  0.00    -0.268 OA
HETATM    4  H   UNL     1      27.355  43.266  54.292  1.00  0.00     0.163 HD
ENDROOT
BRANCH   1   5
HETATM    5  C   UNL     1      27.269  42.754  52.222  1.00  0.00     0.114 C 
HETATM    6  C   UNL     1      27.288  41.226  52.113  1.00  0.00     0.035 C 
BRANCH   5   7
HETATM    7  C   UNL     1      25.864  43.404  52.009  1.00  0.00     0.173 C 
BRANCH   7   8
HETATM    8  O   UNL     1      24.961  42.539  51.325  1.00  0.00    -0.389 OA
HETATM    9  H   UNL     1      24.234  43.082  50.978  1.00  0.00     0.210 HD
ENDBRANCH   7   8
BRANCH   7  10
HETATM   10  C   UNL     1      25.923  44.749  51.306  1.00  0.00    -0.028 A 
HETATM   11  C   UNL     1      26.911  45.009  50.349  1.00  0.00     0.012 A 
HETATM   12  C   UNL     1      26.947  46.239  49.685  1.00  0.00     0.037 A 
HETATM   13  C   UNL     1      25.997  47.227  49.956  1.00  0.00     0.068 A 
HETATM   14  C   UNL     1      25.014  46.980  50.911  1.00  0.00     0.037 A 
HETATM   15  C   UNL     1      24.978  45.753  51.579  1.00  0.00     0.012 A 
BRANCH  13  16
HETATM   16  O   UNL     1      26.142  48.378  49.230  1.00  0.00    -0.356 OA
HETATM   17  C   UNL     1      27.450  48.933  49.167  1.00  0.00     0.210 C 
ENDBRANCH  13  16
ENDBRANCH   7  10
ENDBRANCH   5   7
ENDBRANCH   1   5
BRANCH   2  18
HETATM   18  C   UNL     1      29.737  43.866  54.910  1.00  0.00     0.079 A 
HETATM   19  C   UNL     1      29.376  45.039  55.578  1.00  0.00     0.165 A 
HETATM   20  N   UNL     1      29.985  45.392  56.758  1.00  0.00    -0.241 NA
HETATM   21  C   UNL     1      30.930  44.581  57.274  1.00  0.00     0.119 A 
HETATM   22  C   UNL     1      31.329  43.402  56.679  1.00  0.00     0.020 A 
HETATM   23  C   UNL     1      30.730  43.046  55.476  1.00  0.00     0.022 A 
BRANCH  19  24
HETATM   24  N   UNL     1      28.329  45.919  55.127  1.00  0.00    -0.226 N 
HETATM   25  N   UNL     1      27.038  45.464  55.060  1.00  0.00    -0.179 NA
HETATM   26  C   UNL     1      26.324  46.503  54.633  1.00  0.00     0.141 A 
HETATM   27  C   UNL     1      27.120  47.614  54.335  1.00  0.00     0.040 A 
HETATM   28  C   UNL     1      28.400  47.203  54.617  1.00  0.00     0.122 A 
ENDBRANCH  19  24
ENDBRANCH   2  18
TORSDOF 7
ENDMDL
MODEL 2
REMARK VINA RESULT:      -8.0      2.591      6.542
REMARK  7 active torsions:
REMARK  status: ('A' for Active; 'I' for Inactive)
REMARK    1  A    between atoms: C_2  and  N_3 
REMARK    2  A    between atoms: C_2  and  C_17 
REMARK       I    between atoms: N_3  and  C_4 
REMARK    3  A    between atoms: C_4  and  C_5 
REMARK    4  A    between atoms: C_6  and  N_7 
REMARK    5  A    between atoms: C_17  and  O_18 
REMARK    6  A    between atoms: C_17  and  C_19 
REMARK    7  A    between atoms: C_22  and  O_23 
ROOT
HETATM    1  N   UNL     1      26.801  42.272  52.499  1.00  0.00    -0.350 N 
HETATM    2  C   UNL     1      26.720  42.487  51.138  1.00  0.00     0.255 C 
HETATM    3  O   UNL     1      27.645  42.412  50.343  1.00  0.00    -0.268 OA
HETATM    4  H   UNL     1      25.958  42.353  53.054  1.00  0.00     0.163 HD
ENDROOT
BRANCH   1   5
HETATM    5  C   UNL     1      28.058  42.012  53.225  1.00  0.00     0.114 C 
HETATM    6  C   UNL     1      28.615  40.622  52.904  1.00  0.00     0.035 C 
BRANCH   5   7
HETATM    7  C   UNL     1      29.090  43.176  53.078  1.00  0.00     0.173 C 
BRANCH   7   8
HETATM    8  O   UNL     1      30.191  42.827  52.243  1.00  0.00    -0.389 OA
HETATM    9  H   UNL     1      30.752  42.205  52.734  1.00  0.00     0.210 HD
ENDBRANCH   7   8
BRANCH   7  10
HETATM   10  C   UNL     1      29.599  43.702  54.409  1.00  0.00    -0.028 A 
HETATM   11  C   UNL     1      30.600  43.017  55.109  1.00  0.00     0.012 A 
HETATM   12  C   UNL     1      31.084  43.517  56.321  1.00  0.00     0.037 A 
HETATM   13  C   UNL     1      30.588  44.708  56.854  1.00  0.00     0.068 A 
HETATM   14  C   UNL     1      29.588  45.394  56.169  1.00  0.00     0.037 A 
HETATM   15  C   UNL     1      29.099  44.895  54.958  1.00  0.00     0.012 A 
BRANCH  13  16
HETATM   16  O   UNL     1      31.155  45.088  58.040  1.00  0.00    -0.356 OA
HETATM   17  C   UNL     1      30.731  46.332  58.582  1.00  0.00     0.210 C 
ENDBRANCH  13  16
ENDBRANCH   7  10
ENDBRANCH   5   7
ENDBRANCH   1   5
BRANCH   2  18
HETATM   18  C   UNL     1      25.375  42.811  50.633  1.00  0.00     0.079 A 
HETATM   19  C   UNL     1      24.555  43.812  51.160  1.00  0.00     0.165 A 
HETATM   20  N   UNL     1      23.249  43.938  50.752  1.00  0.00    -0.241 NA
HETATM   21  C   UNL     1      22.769  43.088  49.823  1.00  0.00     0.119 A 
HETATM   22  C   UNL     1      23.523  42.085  49.248  1.00  0.00     0.020 A 
HETATM   23  C   UNL     1      24.840  41.940  49.667  1.00  0.00     0.022 A 
BRANCH  19  24
HETATM   24  N   UNL     1      25.013  44.799  52.104  1.00  0.00    -0.226 N 
HETATM   25  N   UNL     1      24.981  44.525  53.446  1.00  0.00    -0.179 NA
HETATM   26  C   UNL     1      25.479  45.611  54.034  1.00  0.00     0.141 A 
HETATM   27  C   UNL     1      25.763  46.633  53.123  1.00  0.00     0.040 A 
HETATM   28  C   UNL     1      25.417  46.107  51.901  1.00  0.00     0.122 A 
ENDBRANCH  19  24
ENDBRANCH   2  18
TORSDOF 7
ENDMDL
MODEL 3
REMARK VINA RESULT:      -7.9      3.618      7.040
REMARK  7 active torsions:
REMARK  status: ('A' for Active; 'I' for Inactive)
REMARK    1  A    between atoms: C_2  and  N_3 
REMARK    2  A    between atoms: C_2  and  C_17 
REMARK       I    between atoms: N_3  and  C_4 
REMARK    3  A    between atoms: C_4  and  C_5 
REMARK    4  A    between atoms: C_6  and  N_7 
REMARK    5  A    between atoms: C_17  and  O_18 
REMARK    6  A    between atoms: C_17  and  C_19 
REMARK    7  A    between atoms: C_22  and  O_23 
ROOT
HETATM    1  N   UNL     1      24.848  45.810  50.117  1.00  0.00    -0.350 N 
HETATM    2  C   UNL     1      25.076  47.014  50.752  1.00  0.00     0.255 C 
HETATM    3  O   UNL     1      24.984  47.222  51.953  1.00  0.00    -0.268 OA
HETATM    4  H   UNL     1      24.968  45.760  49.113  1.00  0.00     0.163 HD
ENDROOT
BRANCH   1   5
HETATM    5  C   UNL     1      24.353  44.596  50.793  1.00  0.00     0.114 C 
HETATM    6  C   UNL     1      23.058  44.085  50.154  1.00  0.00     0.035 C 
BRANCH   5   7
HETATM    7  C   UNL     1      25.464  43.511  50.970  1.00  0.00     0.173 C 
BRANCH   7   8
HETATM    8  O   UNL     1      24.925  42.204  51.152  1.00  0.00    -0.389 OA
HETATM    9  H   UNL     1      23.958  42.270  51.102  1.00  0.00     0.210 HD
ENDBRANCH   7   8
BRANCH   7  10
HETATM   10  C   UNL     1      26.441  43.826  52.090  1.00  0.00    -0.028 A 
HETATM   11  C   UNL     1      25.978  44.259  53.338  1.00  0.00     0.012 A 
HETATM   12  C   UNL     1      26.879  44.523  54.374  1.00  0.00     0.037 A 
HETATM   13  C   UNL     1      28.254  44.355  54.188  1.00  0.00     0.068 A 
HETATM   14  C   UNL     1      28.724  43.931  52.948  1.00  0.00     0.037 A 
HETATM   15  C   UNL     1      27.826  43.669  51.909  1.00  0.00     0.012 A 
BRANCH  13  16
HETATM   16  O   UNL     1      29.020  44.640  55.285  1.00  0.00    -0.356 OA
HETATM   17  C   UNL     1      29.174  46.014  55.619  1.00  0.00     0.210 C 
ENDBRANCH  13  16
ENDBRANCH   7  10
ENDBRANCH   5   7
ENDBRANCH   1   5
BRANCH   2  18
HETATM   18  C   UNL     1      25.488  48.120  49.870  1.00  0.00     0.079 A 
HETATM   19  C   UNL     1      24.637  48.776  48.977  1.00  0.00     0.165 A 
HETATM   20  N   UNL     1      25.134  49.675  48.065  1.00  0.00    -0.241 NA
HETATM   21  C   UNL     1      26.458  49.929  48.051  1.00  0.00     0.119 A 
HETATM   22  C   UNL     1      27.356  49.331  48.910  1.00  0.00     0.020 A 
HETATM   23  C   UNL     1      26.865  48.407  49.825  1.00  0.00     0.022 A 
BRANCH  19  24
HETATM   24  N   UNL     1      23.207  48.610  48.976  1.00  0.00    -0.226 N 
HETATM   25  N   UNL     1      22.650  47.489  48.418  1.00  0.00    -0.179 NA
HETATM   26  C   UNL     1      21.338  47.629  48.593  1.00  0.00     0.141 A 
HETATM   27  C   UNL     1      21.001  48.853  49.178  1.00  0.00     0.040 A 
HETATM   28  C   UNL     1      22.208  49.481  49.375  1.00  0.00     0.122 A 
ENDBRANCH  19  24
ENDBRANCH   2  18
TORSDOF 7
ENDMDL
MODEL 4
REMARK VINA RESULT:      -7.8      2.348      6.210
REMARK  7 active torsions:
REMARK  status: ('A' for Active; 'I' for Inactive)
REMARK    1  A    between atoms: C_2  and  N_3 
REMARK    2  A    between atoms: C_2  and  C_17 
REMARK       I    between atoms: N_3  and  C_4 
REMARK    3  A    between atoms: C_4  and  C_5 
REMARK    4  A    between atoms: C_6  and  N_7 
REMARK    5  A    between atoms: C_17  and  O_18 
REMARK    6  A    between atoms: C_17  and  C_19 
REMARK    7  A    between atoms: C_22  and  O_23 
ROOT
HETATM    1  N   UNL     1      26.936  43.767  51.862  1.00  0.00    -0.350 N 
HETATM    2  C   UNL     1      25.742  44.342  52.249  1.00  0.00     0.255 C 
HETATM    3  O   UNL     1      25.062  44.008  53.208  1.00  0.00    -0.268 OA
HETATM    4  H   UNL     1      27.414  44.141  51.052  1.00  0.00     0.163 HD
ENDROOT
BRANCH   1   5
HETATM    5  C   UNL     1      27.530  42.578  52.501  1.00  0.00     0.114 C 
HETATM    6  C   UNL     1      27.007  41.282  51.872  1.00  0.00     0.035 C 
BRANCH   5   7
HETATM    7  C   UNL     1      29.086  42.667  52.608  1.00  0.00     0.173 C 
BRANCH   7   8
HETATM    8  O   UNL     1      29.718  41.400  52.443  1.00  0.00    -0.389 OA
HETATM    9  H   UNL     1      30.677  41.546  52.410  1.00  0.00     0.210 HD
ENDBRANCH   7   8
BRANCH   7  10
HETATM   10  C   UNL     1      29.566  43.317  53.895  1.00  0.00    -0.028 A 
HETATM   11  C   UNL     1      28.910  44.441  54.411  1.00  0.00     0.012 A 
HETATM   12  C   UNL     1      29.338  45.022  55.609  1.00  0.00     0.037 A 
HETATM   13  C   UNL     1      30.420  44.492  56.315  1.00  0.00     0.068 A 
HETATM   14  C   UNL     1      31.083  43.377  55.807  1.00  0.00     0.037 A 
HETATM   15  C   UNL     1      30.659  42.796  54.607  1.00  0.00     0.012 A 
BRANCH  13  16
HETATM   16  O   UNL     1      30.728  45.150  57.474  1.00  0.00    -0.356 OA
HETATM   17  C   UNL     1      29.701  45.950  58.047  1.00  0.00     0.210 C 
ENDBRANCH  13  16
ENDBRANCH   7  10
ENDBRANCH   5   7
ENDBRANCH   1   5
BRANCH   2  18
HETATM   18  C   UNL     1      25.292  45.472  51.419  1.00  0.00     0.079 A 
HETATM   19  C   UNL     1      25.309  46.808  51.828  1.00  0.00     0.165 A 
HETATM   20  N   UNL     1      24.712  47.784  51.068  1.00  0.00    -0.241 NA
HETATM   21  C   UNL     1      24.117  47.437  49.909  1.00  0.00     0.119 A 
HETATM   22  C   UNL     1      24.072  46.143  49.434  1.00  0.00     0.020 A 
HETATM   23  C   UNL     1      24.659  45.147  50.206  1.00  0.00     0.022 A 
BRANCH  19  24
HETATM   24  N   UNL     1      25.983  47.266  53.016  1.00  0.00    -0.226 N 
HETATM   25  N   UNL     1      25.268  47.873  54.014  1.00  0.00    -0.179 NA
HETATM   26  C   UNL     1      26.161  48.155  54.961  1.00  0.00     0.141 A 
HETATM   27  C   UNL     1      27.466  47.826  54.582  1.00  0.00     0.040 A 
HETATM   28  C   UNL     1      27.333  47.299  53.319  1.00  0.00     0.122 A 
ENDBRANCH  19  24
ENDBRANCH   2  18
TORSDOF 7
ENDMDL
MODEL 5
REMARK VINA RESULT:      -7.6      2.990      7.601
REMARK  7 active torsions:
REMARK  status: ('A' for Active; 'I' for Inactive)
REMARK    1  A    between atoms: C_2  and  N_3 
REMARK    2  A    between atoms: C_2  and  C_17 
REMARK       I    between atoms: N_3  and  C_4 
REMARK    3  A    between atoms: C_4  and  C_5 
REMARK    4  A    between atoms: C_6  and  N_7 
REMARK    5  A    between atoms: C_17  and  O_18 
REMARK    6  A    between atoms: C_17  and  C_19 
REMARK    7  A    between atoms: C_22  and  O_23 
ROOT
HETATM    1  N   UNL     1      25.246  46.453  52.058  1.00  0.00    -0.350 N 
HETATM    2  C   UNL     1      25.396  47.149  50.875  1.00  0.00     0.255 C 
HETATM    3  O   UNL     1      26.386  47.777  50.531  1.00  0.00    -0.268 OA
HETATM    4  H   UNL     1      24.378  45.961  52.226  1.00  0.00     0.163 HD
ENDROOT
BRANCH   1   5
HETATM    5  C   UNL     1      26.241  46.445  53.147  1.00  0.00     0.114 C 
HETATM    6  C   UNL     1      25.970  47.557  54.165  1.00  0.00     0.035 C 
BRANCH   5   7
HETATM    7  C   UNL     1      26.439  45.026  53.771  1.00  0.00     0.173 C 
BRANCH   7   8
HETATM    8  O   UNL     1      25.368  44.656  54.635  1.00  0.00    -0.389 OA
HETATM    9  H   UNL     1      24.541  44.720  54.130  1.00  0.00     0.210 HD
ENDBRANCH   7   8
BRANCH   7  10
HETATM   10  C   UNL     1      27.765  44.865  54.495  1.00  0.00    -0.028 A 
HETATM   11  C   UNL     1      28.562  43.736  54.277  1.00  0.00     0.012 A 
HETATM   12  C   UNL     1      29.793  43.603  54.926  1.00  0.00     0.037 A 
HETATM   13  C   UNL     1      30.254  44.593  55.797  1.00  0.00     0.068 A 
HETATM   14  C   UNL     1      29.466  45.718  56.025  1.00  0.00     0.037 A 
HETATM   15  C   UNL     1      28.232  45.852  55.380  1.00  0.00     0.012 A 
BRANCH  13  16
HETATM   16  O   UNL     1      31.477  44.341  56.357  1.00  0.00    -0.356 OA
HETATM   17  C   UNL     1      31.596  43.148  57.122  1.00  0.00     0.210 C 
ENDBRANCH  13  16
ENDBRANCH   7  10
ENDBRANCH   5   7
ENDBRANCH   1   5
BRANCH   2  18
HETATM   18  C   UNL     1      24.242  47.087  49.962  1.00  0.00     0.079 A 
HETATM   19  C   UNL     1      23.770  45.914  49.365  1.00  0.00     0.165 A 
HETATM   20  N   UNL     1      22.803  45.962  48.391  1.00  0.00    -0.241 NA
HETATM   21  C   UNL     1      22.301  47.158  48.024  1.00  0.00     0.119 A 
HETATM   22  C   UNL     1      22.707  48.355  48.578  1.00  0.00     0.020 A 
HETATM   23  C   UNL     1      23.698  48.318  49.552  1.00  0.00     0.022 A 
BRANCH  19  24
HETATM   24  N   UNL     1      24.206  44.597  49.751  1.00  0.00    -0.226 N 
HETATM   25  N   UNL     1      23.716  44.025  50.895  1.00  0.00    -0.179 NA
HETATM   26  C   UNL     1      24.289  42.825  50.957  1.00  0.00     0.141 A 
HETATM   27  C   UNL     1      25.211  42.616  49.927  1.00  0.00     0.040 A 
HETATM   28  C   UNL     1      25.173  43.778  49.194  1.00  0.00     0.122 A 
ENDBRANCH  19  24
ENDBRANCH   2  18
TORSDOF 7
ENDMDL
MODEL 6
REMARK VINA RESULT:      -7.3      5.923      8.671
REMARK  7 active torsions:
REMARK  status: ('A' for Active; 'I' for Inactive)
REMARK    1  A    between atoms: C_2  and  N_3 
REMARK    2  A    between atoms: C_2  and  C_17 
REMARK       I    between atoms: N_3  and  C_4 
REMARK    3  A    between atoms: C_4  and  C_5 
REMARK    4  A    between atoms: C_6  and  N_7 
REMARK    5  A    between atoms: C_17  and  O_18 
REMARK    6  A    between atoms: C_17  and  C_19 
REMARK    7  A    between atoms: C_22  and  O_23 
ROOT
HETATM    1  N   UNL     1      23.041  48.457  49.701  1.00  0.00    -0.350 N 
HETATM    2  C   UNL     1      24.346  48.009  49.658  1.00  0.00     0.255 C 
HETATM    3  O   UNL     1      25.243  48.475  48.973  1.00  0.00    -0.268 OA
HETATM    4  H   UNL     1      22.387  47.993  50.320  1.00  0.00     0.163 HD
ENDROOT
BRANCH   1   5
HETATM    5  C   UNL     1      22.501  49.524  48.837  1.00  0.00     0.114 C 
HETATM    6  C   UNL     1      21.489  48.972  47.829  1.00  0.00     0.035 C 
BRANCH   5   7
HETATM    7  C   UNL     1      22.001  50.761  49.650  1.00  0.00     0.173 C 
BRANCH   7   8
HETATM    8  O   UNL     1      22.287  50.651  51.042  1.00  0.00    -0.389 OA
HETATM    9  H   UNL     1      22.761  51.454  51.314  1.00  0.00     0.210 HD
ENDBRANCH   7   8
BRANCH   7  10
HETATM   10  C   UNL     1      20.525  51.058  49.449  1.00  0.00    -0.028 A 
HETATM   11  C   UNL     1      19.559  50.439  50.251  1.00  0.00     0.012 A 
HETATM   12  C   UNL     1      18.203  50.733  50.080  1.00  0.00     0.037 A 
HETATM   13  C   UNL     1      17.785  51.652  49.114  1.00  0.00     0.068 A 
HETATM   14  C   UNL     1      18.738  52.269  48.307  1.00  0.00     0.037 A 
HETATM   15  C   UNL     1      20.095  51.974  48.473  1.00  0.00     0.012 A 
BRANCH  13  16
HETATM   16  O   UNL     1      16.434  51.854  49.060  1.00  0.00    -0.356 OA
HETATM   17  C   UNL     1      15.911  52.907  49.859  1.00  0.00     0.210 C 
ENDBRANCH  13  16
ENDBRANCH   7  10
ENDBRANCH   5   7
ENDBRANCH   1   5
BRANCH   2  18
HETATM   18  C   UNL     1      24.649  46.877  50.550  1.00  0.00     0.079 A 
HETATM   19  C   UNL     1      24.165  45.578  50.370  1.00  0.00     0.165 A 
HETATM   20  N   UNL     1      24.346  44.620  51.337  1.00  0.00    -0.241 NA
HETATM   21  C   UNL     1      25.013  44.945  52.463  1.00  0.00     0.119 A 
HETATM   22  C   UNL     1      25.531  46.200  52.705  1.00  0.00     0.020 A 
HETATM   23  C   UNL     1      25.336  47.181  51.739  1.00  0.00     0.022 A 
BRANCH  19  24
HETATM   24  N   UNL     1      23.505  45.136  49.168  1.00  0.00    -0.226 N 
HETATM   25  N   UNL     1      22.228  45.554  48.899  1.00  0.00    -0.179 NA
HETATM   26  C   UNL     1      21.919  44.996  47.730  1.00  0.00     0.141 A 
HETATM   27  C   UNL     1      22.927  44.151  47.256  1.00  0.00     0.040 A 
HETATM   28  C   UNL     1      23.912  44.223  48.212  1.00  0.00     0.122 A 
ENDBRANCH  19  24
ENDBRANCH   2  18
TORSDOF 7
ENDMDL
MODEL 7
REMARK VINA RESULT:      -7.2      3.926      7.745
REMARK  7 active torsions:
REMARK  status: ('A' for Active; 'I' for Inactive)
REMARK    1  A    between atoms: C_2  and  N_3 
REMARK    2  A    between atoms: C_2  and  C_17 
REMARK       I    between atoms: N_3  and  C_4 
REMARK    3  A    between atoms: C_4  and  C_5 
REMARK    4  A    between atoms: C_6  and  N_7 
REMARK    5  A    between atoms: C_17  and  O_18 
REMARK    6  A    between atoms: C_17  and  C_19 
REMARK    7  A    between atoms: C_22  and  O_23 
ROOT
HETATM    1  N   UNL     1      23.107  46.195  49.740  1.00  0.00    -0.350 N 
HETATM    2  C   UNL     1      22.778  46.928  48.618  1.00  0.00     0.255 C 
HETATM    3  O   UNL     1      22.741  46.508  47.471  1.00  0.00    -0.268 OA
HETATM    4  H   UNL     1      23.092  46.654  50.643  1.00  0.00     0.163 HD
ENDROOT
BRANCH   1   5
HETATM    5  C   UNL     1      23.568  44.795  49.711  1.00  0.00     0.114 C 
HETATM    6  C   UNL     1      22.654  43.920  48.846  1.00  0.00     0.035 C 
BRANCH   5   7
HETATM    7  C   UNL     1      25.090  44.668  49.382  1.00  0.00     0.173 C 
BRANCH   7   8
HETATM    8  O   UNL     1      25.369  43.588  48.495  1.00  0.00    -0.389 OA
HETATM    9  H   UNL     1      24.903  43.759  47.660  1.00  0.00     0.210 HD
ENDBRANCH   7   8
BRANCH   7  10
HETATM   10  C   UNL     1      25.967  44.559  50.618  1.00  0.00    -0.028 A 
HETATM   11  C   UNL     1      27.160  43.827  50.581  1.00  0.00     0.012 A 
HETATM   12  C   UNL     1      27.977  43.750  51.713  1.00  0.00     0.037 A 
HETATM   13  C   UNL     1      27.627  44.404  52.896  1.00  0.00     0.068 A 
HETATM   14  C   UNL     1      26.439  45.130  52.944  1.00  0.00     0.037 A 
HETATM   15  C   UNL     1      25.617  45.206  51.815  1.00  0.00     0.012 A 
BRANCH  13  16
HETATM   16  O   UNL     1      28.519  44.253  53.922  1.00  0.00    -0.356 OA
HETATM   17  C   UNL     1      28.939  42.926  54.214  1.00  0.00     0.210 C 
ENDBRANCH  13  16
ENDBRANCH   7  10
ENDBRANCH   5   7
ENDBRANCH   1   5
BRANCH   2  18
HETATM   18  C   UNL     1      22.423  48.335  48.870  1.00  0.00     0.079 A 
HETATM   19  C   UNL     1      23.343  49.335  49.196  1.00  0.00     0.165 A 
HETATM   20  N   UNL     1      22.918  50.581  49.588  1.00  0.00    -0.241 NA
HETATM   21  C   UNL     1      21.595  50.833  49.643  1.00  0.00     0.119 A 
HETATM   22  C   UNL     1      20.629  49.902  49.323  1.00  0.00     0.020 A 
HETATM   23  C   UNL     1      21.050  48.633  48.942  1.00  0.00     0.022 A 
BRANCH  19  24
HETATM   24  N   UNL     1      24.770  49.164  49.096  1.00  0.00    -0.226 N 
HETATM   25  N   UNL     1      25.413  48.295  49.937  1.00  0.00    -0.179 NA
HETATM   26  C   UNL     1      26.695  48.351  49.583  1.00  0.00     0.141 A 
HETATM   27  C   UNL     1      26.934  49.299  48.583  1.00  0.00     0.040 A 
HETATM   28  C   UNL     1      25.696  49.836  48.318  1.00  0.00     0.122 A 
ENDBRANCH  19  24
ENDBRANCH   2  18
TORSDOF 7
ENDMDL
MODEL 8
REMARK VINA RESULT:      -7.2      3.222      6.981
REMARK  7 active torsions:
REMARK  status: ('A' for Active; 'I' for Inactive)
REMARK    1  A    between atoms: C_2  and  N_3 
REMARK    2  A    between atoms: C_2  and  C_17 
REMARK       I    between atoms: N_3  and  C_4 
REMARK    3  A    between atoms: C_4  and  C_5 
REMARK    4  A    between atoms: C_6  and  N_7 
REMARK    5  A    between atoms: C_17  and  O_18 
REMARK    6  A    between atoms: C_17  and  C_19 
REMARK    7  A    between atoms: C_22  and  O_23 
ROOT
HETATM    1  N   UNL     1      26.170  44.068  51.529  1.00  0.00    -0.350 N 
HETATM    2  C   UNL     1      26.711  43.896  50.271  1.00  0.00     0.255 C 
HETATM    3  O   UNL     1      27.405  44.703  49.671  1.00  0.00    -0.268 OA
HETATM    4  H   UNL     1      25.617  43.319  51.928  1.00  0.00     0.163 HD
ENDROOT
BRANCH   1   5
HETATM    5  C   UNL     1      26.269  45.315  52.312  1.00  0.00     0.114 C 
HETATM    6  C   UNL     1      25.287  46.376  51.805  1.00  0.00     0.035 C 
BRANCH   5   7
HETATM    7  C   UNL     1      26.217  45.064  53.853  1.00  0.00     0.173 C 
BRANCH   7   8
HETATM    8  O   UNL     1      25.509  46.086  54.549  1.00  0.00    -0.389 OA
HETATM    9  H   UNL     1      24.605  45.769  54.707  1.00  0.00     0.210 HD
ENDBRANCH   7   8
BRANCH   7  10
HETATM   10  C   UNL     1      27.588  44.870  54.479  1.00  0.00    -0.028 A 
HETATM   11  C   UNL     1      28.293  43.675  54.291  1.00  0.00     0.012 A 
HETATM   12  C   UNL     1      29.565  43.510  54.847  1.00  0.00     0.037 A 
HETATM   13  C   UNL     1      30.160  44.531  55.593  1.00  0.00     0.068 A 
HETATM   14  C   UNL     1      29.464  45.721  55.790  1.00  0.00     0.037 A 
HETATM   15  C   UNL     1      28.190  45.888  55.238  1.00  0.00     0.012 A 
BRANCH  13  16
HETATM   16  O   UNL     1      31.408  44.241  56.071  1.00  0.00    -0.356 OA
HETATM   17  C   UNL     1      31.480  43.327  57.159  1.00  0.00     0.210 C 
ENDBRANCH  13  16
ENDBRANCH   7  10
ENDBRANCH   5   7
ENDBRANCH   1   5
BRANCH   2  18
HETATM   18  C   UNL     1      26.420  42.600  49.636  1.00  0.00     0.079 A 
HETATM   19  C   UNL     1      25.146  42.181  49.242  1.00  0.00     0.165 A 
HETATM   20  N   UNL     1      24.929  40.893  48.820  1.00  0.00    -0.241 NA
HETATM   21  C   UNL     1      25.968  40.035  48.777  1.00  0.00     0.119 A 
HETATM   22  C   UNL     1      27.254  40.379  49.136  1.00  0.00     0.020 A 
HETATM   23  C   UNL     1      27.480  41.676  49.581  1.00  0.00     0.022 A 
BRANCH  19  24
HETATM   24  N   UNL     1      24.003  43.056  49.195  1.00  0.00    -0.226 N 
HETATM   25  N   UNL     1      23.201  43.190  50.298  1.00  0.00    -0.179 NA
HETATM   26  C   UNL     1      22.264  44.066  49.942  1.00  0.00     0.141 A 
HETATM   27  C   UNL     1      22.373  44.455  48.603  1.00  0.00     0.040 A 
HETATM   28  C   UNL     1      23.465  43.764  48.135  1.00  0.00     0.122 A 
ENDBRANCH  19  24
ENDBRANCH   2  18
TORSDOF 7
ENDMDL
MODEL 9
REMARK VINA RESULT:      -7.1      3.081      7.477
REMARK  7 active torsions:
REMARK  status: ('A' for Active; 'I' for Inactive)
REMARK    1  A    between atoms: C_2  and  N_3 
REMARK    2  A    between atoms: C_2  and  C_17 
REMARK       I    between atoms: N_3  and  C_4 
REMARK    3  A    between atoms: C_4  and  C_5 
REMARK    4  A    between atoms: C_6  and  N_7 
REMARK    5  A    between atoms: C_17  and  O_18 
REMARK    6  A    between atoms: C_17  and  C_19 
REMARK    7  A    between atoms: C_22  and  O_23 
ROOT
HETATM    1  N   UNL     1      25.582  44.621  51.516  1.00  0.00    -0.350 N 
HETATM    2  C   UNL     1      25.906  44.218  50.236  1.00  0.00     0.255 C 
HETATM    3  O   UNL     1      26.877  44.585  49.592  1.00  0.00    -0.268 OA
HETATM    4  H   UNL     1      24.752  44.237  51.952  1.00  0.00     0.163 HD
ENDROOT
BRANCH   1   5
HETATM    5  C   UNL     1      26.319  45.649  52.274  1.00  0.00     0.114 C 
HETATM    6  C   UNL     1      25.877  47.062  51.881  1.00  0.00     0.035 C 
BRANCH   5   7
HETATM    7  C   UNL     1      26.326  45.374  53.812  1.00  0.00     0.173 C 
BRANCH   7   8
HETATM    8  O   UNL     1      25.891  46.500  54.570  1.00  0.00    -0.389 OA
HETATM    9  H   UNL     1      26.667  46.882  55.010  1.00  0.00     0.210 HD
ENDBRANCH   7   8
BRANCH   7  10
HETATM   10  C   UNL     1      27.670  44.892  54.332  1.00  0.00    -0.028 A 
HETATM   11  C   UNL     1      28.317  45.573  55.371  1.00  0.00     0.012 A 
HETATM   12  C   UNL     1      29.541  45.113  55.864  1.00  0.00     0.037 A 
HETATM   13  C   UNL     1      30.139  43.965  55.338  1.00  0.00     0.068 A 
HETATM   14  C   UNL     1      29.507  43.284  54.301  1.00  0.00     0.037 A 
HETATM   15  C   UNL     1      28.284  43.744  53.803  1.00  0.00     0.012 A 
BRANCH  13  16
HETATM   16  O   UNL     1      31.330  43.621  55.918  1.00  0.00    -0.356 OA
HETATM   17  C   UNL     1      31.445  43.837  57.318  1.00  0.00     0.210 C 
ENDBRANCH  13  16
ENDBRANCH   7  10
ENDBRANCH   5   7
ENDBRANCH   1   5
BRANCH   2  18
HETATM   18  C   UNL     1      24.984  43.239  49.636  1.00  0.00     0.079 A 
HETATM   19  C   UNL     1      25.325  41.918  49.331  1.00  0.00     0.165 A 
HETATM   20  N   UNL     1      24.468  41.120  48.613  1.00  0.00    -0.241 NA
HETATM   21  C   UNL     1      23.283  41.623  48.215  1.00  0.00     0.119 A 
HETATM   22  C   UNL     1      22.873  42.911  48.490  1.00  0.00     0.020 A 
HETATM   23  C   UNL     1      23.740  43.732  49.201  1.00  0.00     0.022 A 
BRANCH  19  24
HETATM   24  N   UNL     1      26.540  41.288  49.779  1.00  0.00    -0.226 N 
HETATM   25  N   UNL     1      27.445  40.823  48.862  1.00  0.00    -0.179 NA
HETATM   26  C   UNL     1      28.446  40.324  49.583  1.00  0.00     0.141 A 
HETATM   27  C   UNL     1      28.192  40.369  50.958  1.00  0.00     0.040 A 
HETATM   28  C   UNL     1      26.950  40.949  51.056  1.00  0.00     0.122 A 
ENDBRANCH  19  24
ENDBRANCH   2  18
TORSDOF 7
ENDMDL
MODEL 10
REMARK VINA RESULT:      -7.0      2.918      5.835
REMARK  7 active torsions:
REMARK  status: ('A' for Active; 'I' for Inactive)
REMARK    1  A    between atoms: C_2  and  N_3 
REMARK    2  A    between atoms: C_2  and  C_17 
REMARK       I    between atoms: N_3  and  C_4 
REMARK    3  A    between atoms: C_4  and  C_5 
REMARK    4  A    between atoms: C_6  and  N_7 
REMARK    5  A    between atoms: C_17  and  O_18 
REMARK    6  A    between atoms: C_17  and  C_19 
REMARK    7  A    between atoms: C_22  and  O_23 
ROOT
HETATM    1  N   UNL     1      25.716  45.242  50.651  1.00  0.00    -0.350 N 
HETATM    2  C   UNL     1      25.036  44.205  51.258  1.00  0.00     0.255 C 
HETATM    3  O   UNL     1      24.112  44.317  52.049  1.00  0.00    -0.268 OA
HETATM    4  H   UNL     1      26.461  45.021  50.002  1.00  0.00     0.163 HD
ENDROOT
BRANCH   1   5
HETATM    5  C   UNL     1      25.489  46.669  50.948  1.00  0.00     0.114 C 
HETATM    6  C   UNL     1      26.142  47.078  52.272  1.00  0.00     0.035 C 
BRANCH   5   7
HETATM    7  C   UNL     1      25.830  47.597  49.739  1.00  0.00     0.173 C 
BRANCH   7   8
HETATM    8  O   UNL     1      26.899  48.496  50.026  1.00  0.00    -0.389 OA
HETATM    9  H   UNL     1      26.530  49.255  50.506  1.00  0.00     0.210 HD
ENDBRANCH   7   8
BRANCH   7  10
HETATM   10  C   UNL     1      24.633  48.372  49.216  1.00  0.00    -0.028 A 
HETATM   11  C   UNL     1      24.812  49.574  48.520  1.00  0.00     0.012 A 
HETATM   12  C   UNL     1      23.709  50.271  48.019  1.00  0.00     0.037 A 
HETATM   13  C   UNL     1      22.412  49.784  48.195  1.00  0.00     0.068 A 
HETATM   14  C   UNL     1      22.223  48.593  48.892  1.00  0.00     0.037 A 
HETATM   15  C   UNL     1      23.324  47.894  49.398  1.00  0.00     0.012 A 
BRANCH  13  16
HETATM   16  O   UNL     1      21.427  50.559  47.647  1.00  0.00    -0.356 OA
HETATM   17  C   UNL     1      20.685  51.378  48.543  1.00  0.00     0.210 C 
ENDBRANCH  13  16
ENDBRANCH   7  10
ENDBRANCH   5   7
ENDBRANCH   1   5
BRANCH   2  18
HETATM   18  C   UNL     1      25.481  42.854  50.873  1.00  0.00     0.079 A 
HETATM   19  C   UNL     1      26.646  42.242  51.345  1.00  0.00     0.165 A 
HETATM   20  N   UNL     1      27.084  41.057  50.807  1.00  0.00    -0.241 NA
HETATM   21  C   UNL     1      26.367  40.481  49.822  1.00  0.00     0.119 A 
HETATM   22  C   UNL     1      25.202  41.018  49.315  1.00  0.00     0.020 A 
HETATM   23  C   UNL     1      24.760  42.226  49.841  1.00  0.00     0.022 A 
BRANCH  19  24
HETATM   24  N   UNL     1      27.427  42.760  52.439  1.00  0.00    -0.226 N 
HETATM   25  N   UNL     1      28.157  43.907  52.272  1.00  0.00    -0.179 NA
HETATM   26  C   UNL     1      28.738  44.124  53.450  1.00  0.00     0.141 A 
HETATM   27  C   UNL     1      28.479  43.104  54.372  1.00  0.00     0.040 A 
HETATM   28  C   UNL     1      27.675  42.223  53.690  1.00  0.00     0.122 A 
ENDBRANCH  19  24
ENDBRANCH   2  18
TORSDOF 7
ENDMDL
