MODEL 1
REMARK VINA RESULT:      -8.8      0.000      0.000
REMARK  8 active torsions:
REMARK  status: ('A' for Active; 'I' for Inactive)
REMARK    1  A    between atoms: C_2  and  C_3 
REMARK    2  A    between atoms: C_3  and  O_4 
REMARK    3  A    between atoms: O_4  and  C_5 
REMARK    4  A    between atoms: C_8  and  C_9 
REMARK    5  A    between atoms: N_10  and  C_11 
REMARK    6  A    between atoms: C_11  and  C_12 
REMARK    7  A    between atoms: C_25  and  C_26 
REMARK    8  A    between atoms: C_27  and  O_28 
ROOT
HETATM    1  C   UNL     1      26.266  42.878  52.154  1.00  0.00     0.159 A 
HETATM    2  N   UNL     1      27.115  43.072  53.362  1.00  0.00    -0.329 N 
HETATM    3  C   UNL     1      28.296  42.319  53.349  1.00  0.00     0.273 A 
HETATM    4  O   UNL     1      29.137  42.209  54.224  1.00  0.00    -0.266 OA
HETATM    5  C   UNL     1      28.262  41.670  52.093  1.00  0.00     0.129 A 
HETATM    6  C   UNL     1      27.132  41.955  51.388  1.00  0.00     0.034 A 
HETATM    7  N   UNL     1      29.009  40.837  51.353  1.00  0.00    -0.272 N 
HETATM    8  H   UNL     1      29.913  40.424  51.562  1.00  0.00     0.189 HD
HETATM    9  N   UNL     1      28.409  40.553  50.167  1.00  0.00    -0.173 NA
HETATM   10  C   UNL     1      27.247  41.247  50.182  1.00  0.00     0.101 A 
ENDROOT
BRANCH   1  11
HETATM   11  C   UNL     1      26.081  44.114  51.307  1.00  0.00    -0.030 A 
HETATM   12  C   UNL     1      24.864  44.812  51.234  1.00  0.00     0.012 A 
HETATM   13  C   UNL     1      24.774  46.013  50.526  1.00  0.00     0.037 A 
HETATM   14  C   UNL     1      25.893  46.544  49.888  1.00  0.00     0.069 A 
HETATM   15  C   UNL     1      27.090  45.830  49.896  1.00  0.00     0.037 A 
HETATM   16  C   UNL     1      27.184  44.629  50.605  1.00  0.00     0.012 A 
BRANCH  14  17
HETATM   17  O   UNL     1      25.706  47.757  49.282  1.00  0.00    -0.348 OA
BRANCH  17  18
HETATM   18  C   UNL     1      26.855  48.606  49.251  1.00  0.00     0.202 C 
BRANCH  18  19
HETATM   19  C   UNL     1      26.550  49.747  48.326  1.00  0.00    -0.011 C 
HETATM   20  C   UNL     1      25.318  50.086  47.921  1.00  0.00     0.009 C 
ENDBRANCH  18  19
ENDBRANCH  17  18
ENDBRANCH  14  17
ENDBRANCH   1  11
BRANCH   2  21
HETATM   21  C   UNL     1      26.598  43.689  54.564  1.00  0.00     0.167 C 
BRANCH  21  22
HETATM   22  C   UNL     1      26.981  45.141  54.655  1.00  0.00    -0.023 A 
HETATM   23  C   UNL     1      28.253  45.526  55.067  1.00  0.00     0.125 A 
HETATM   24  N   UNL     1      28.676  46.809  55.124  1.00  0.00    -0.273 NA
HETATM   25  C   UNL     1      27.789  47.759  54.759  1.00  0.00     0.116 A 
HETATM   26  C   UNL     1      26.499  47.487  54.340  1.00  0.00     0.020 A 
HETATM   27  C   UNL     1      26.092  46.157  54.290  1.00  0.00     0.012 A 
ENDBRANCH  21  22
ENDBRANCH   2  21
BRANCH  10  28
HETATM   28  C   UNL     1      26.322  41.227  49.055  1.00  0.00     0.028 A 
HETATM   29  C   UNL     1      26.759  41.171  47.724  1.00  0.00     0.078 A 
HETATM   30  C   UNL     1      25.850  41.044  46.675  1.00  0.00     0.037 A 
HETATM   31  C   UNL     1      24.482  41.009  46.941  1.00  0.00     0.003 A 
HETATM   32  C   UNL     1      24.028  41.101  48.256  1.00  0.00     0.001 A 
HETATM   33  C   UNL     1      24.942  41.207  49.307  1.00  0.00     0.017 A 
BRANCH  29  34
HETATM   34  O   UNL     1      28.080  41.262  47.372  1.00  0.00    -0.360 OA
HETATM   35  H   UNL     1      28.567  41.534  48.171  1.00  0.00     0.217 HD
ENDBRANCH  29  34
ENDBRANCH  10  28
TORSDOF 8
ENDMDL
MODEL 2
REMARK VINA RESULT:      -7.9     10.629     13.562
REMARK  8 active torsions:
REMARK  status: ('A' for Active; 'I' for Inactive)
REMARK    1  A    between atoms: C_2  and  C_3 
REMARK    2  A    between atoms: C_3  and  O_4 
REMARK    3  A    between atoms: O_4  and  C_5 
REMARK    4  A    between atoms: C_8  and  C_9 
REMARK    5  A    between atoms: N_10  and  C_11 
REMARK    6  A    between atoms: C_11  and  C_12 
REMARK    7  A    between atoms: C_25  and  C_26 
REMARK    8  A    between atoms: C_27  and  O_28 
ROOT
HETATM    1  C   UNL     1      27.372  48.028  40.736  1.00  0.00     0.159 A 
HETATM    2  N   UNL     1      26.775  46.725  40.329  1.00  0.00    -0.329 N 
HETATM    3  C   UNL     1      26.176  46.748  39.064  1.00  0.00     0.273 A 
HETATM    4  O   UNL     1      25.544  45.868  38.507  1.00  0.00    -0.266 OA
HETATM    5  C   UNL     1      26.434  48.058  38.598  1.00  0.00     0.129 A 
HETATM    6  C   UNL     1      27.103  48.815  39.511  1.00  0.00     0.034 A 
HETATM    7  N   UNL     1      26.222  48.816  37.512  1.00  0.00    -0.272 N 
HETATM    8  H   UNL     1      25.758  48.578  36.641  1.00  0.00     0.189 HD
HETATM    9  N   UNL     1      26.731  50.066  37.672  1.00  0.00    -0.173 NA
HETATM   10  C   UNL     1      27.282  50.069  38.909  1.00  0.00     0.101 A 
ENDROOT
BRANCH   1  11
HETATM   11  C   UNL     1      28.869  48.006  40.925  1.00  0.00    -0.030 A 
HETATM   12  C   UNL     1      29.750  47.484  39.964  1.00  0.00     0.012 A 
HETATM   13  C   UNL     1      31.133  47.588  40.135  1.00  0.00     0.037 A 
HETATM   14  C   UNL     1      31.661  48.222  41.259  1.00  0.00     0.069 A 
HETATM   15  C   UNL     1      30.801  48.687  42.251  1.00  0.00     0.037 A 
HETATM   16  C   UNL     1      29.417  48.585  42.083  1.00  0.00     0.012 A 
BRANCH  14  17
HETATM   17  O   UNL     1      33.025  48.326  41.289  1.00  0.00    -0.348 OA
BRANCH  17  18
HETATM   18  C   UNL     1      33.531  49.605  41.679  1.00  0.00     0.202 C 
BRANCH  18  19
HETATM   19  C   UNL     1      33.248  50.564  40.562  1.00  0.00    -0.011 C 
HETATM   20  C   UNL     1      32.520  51.681  40.688  1.00  0.00     0.009 C 
ENDBRANCH  18  19
ENDBRANCH  17  18
ENDBRANCH  14  17
ENDBRANCH   1  11
BRANCH   2  21
HETATM   21  C   UNL     1      26.531  45.669  41.289  1.00  0.00     0.167 C 
BRANCH  21  22
HETATM   22  C   UNL     1      27.097  44.354  40.826  1.00  0.00    -0.023 A 
HETATM   23  C   UNL     1      28.229  44.301  40.019  1.00  0.00     0.125 A 
HETATM   24  N   UNL     1      28.814  43.154  39.608  1.00  0.00    -0.273 NA
HETATM   25  C   UNL     1      28.243  41.999  40.014  1.00  0.00     0.116 A 
HETATM   26  C   UNL     1      27.114  41.939  40.811  1.00  0.00     0.020 A 
HETATM   27  C   UNL     1      26.533  43.136  41.220  1.00  0.00     0.012 A 
ENDBRANCH  21  22
ENDBRANCH   2  21
BRANCH  10  28
HETATM   28  C   UNL     1      27.967  51.240  39.445  1.00  0.00     0.028 A 
HETATM   29  C   UNL     1      28.836  52.022  38.671  1.00  0.00     0.078 A 
HETATM   30  C   UNL     1      29.390  53.196  39.181  1.00  0.00     0.037 A 
HETATM   31  C   UNL     1      29.111  53.584  40.491  1.00  0.00     0.003 A 
HETATM   32  C   UNL     1      28.278  52.799  41.286  1.00  0.00     0.001 A 
HETATM   33  C   UNL     1      27.707  51.635  40.766  1.00  0.00     0.017 A 
BRANCH  29  34
HETATM   34  O   UNL     1      29.211  51.679  37.400  1.00  0.00    -0.360 OA
HETATM   35  H   UNL     1      28.480  51.158  37.021  1.00  0.00     0.217 HD
ENDBRANCH  29  34
ENDBRANCH  10  28
TORSDOF 8
ENDMDL
MODEL 3
REMARK VINA RESULT:      -7.8      2.919      7.889
REMARK  8 active torsions:
REMARK  status: ('A' for Active; 'I' for Inactive)
REMARK    1  A    between atoms: C_2  and  C_3 
REMARK    2  A    between atoms: C_3  and  O_4 
REMARK    3  A    between atoms: O_4  and  C_5 
REMARK    4  A    between atoms: C_8  and  C_9 
REMARK    5  A    between atoms: N_10  and  C_11 
REMARK    6  A    between atoms: C_11  and  C_12 
REMARK    7  A    between atoms: C_25  and  C_26 
REMARK    8  A    between atoms: C_27  and  O_28 
ROOT
HETATM    1  C   UNL     1      24.205  44.265  50.711  1.00  0.00     0.159 A 
HETATM    2  N   UNL     1      23.344  44.683  49.571  1.00  0.00    -0.329 N 
HETATM    3  C   UNL     1      23.482  46.033  49.222  1.00  0.00     0.273 A 
HETATM    4  O   UNL     1      22.856  46.672  48.395  1.00  0.00    -0.266 OA
HETATM    5  C   UNL     1      24.491  46.499  50.096  1.00  0.00     0.129 A 
HETATM    6  C   UNL     1      24.924  45.535  50.956  1.00  0.00     0.034 A 
HETATM    7  N   UNL     1      25.177  47.621  50.359  1.00  0.00    -0.272 N 
HETATM    8  H   UNL     1      25.118  48.531  49.913  1.00  0.00     0.189 HD
HETATM    9  N   UNL     1      26.061  47.437  51.374  1.00  0.00    -0.173 NA
HETATM   10  C   UNL     1      25.912  46.144  51.745  1.00  0.00     0.101 A 
ENDROOT
BRANCH   1  11
HETATM   11  C   UNL     1      25.247  43.227  50.369  1.00  0.00    -0.030 A 
HETATM   12  C   UNL     1      26.101  43.343  49.261  1.00  0.00     0.012 A 
HETATM   13  C   UNL     1      27.124  42.414  49.050  1.00  0.00     0.037 A 
HETATM   14  C   UNL     1      27.319  41.362  49.944  1.00  0.00     0.069 A 
HETATM   15  C   UNL     1      26.439  41.196  51.011  1.00  0.00     0.037 A 
HETATM   16  C   UNL     1      25.415  42.124  51.225  1.00  0.00     0.012 A 
BRANCH  14  17
HETATM   17  O   UNL     1      28.390  40.553  49.676  1.00  0.00    -0.348 OA
BRANCH  17  18
HETATM   18  C   UNL     1      28.091  39.160  49.570  1.00  0.00     0.202 C 
BRANCH  18  19
HETATM   19  C   UNL     1      29.392  38.415  49.579  1.00  0.00    -0.011 C 
HETATM   20  C   UNL     1      29.966  37.905  50.677  1.00  0.00     0.009 C 
ENDBRANCH  18  19
ENDBRANCH  17  18
ENDBRANCH  14  17
ENDBRANCH   1  11
BRANCH   2  21
HETATM   21  C   UNL     1      22.233  43.871  49.119  1.00  0.00     0.167 C 
BRANCH  21  22
HETATM   22  C   UNL     1      22.662  42.865  48.087  1.00  0.00    -0.023 A 
HETATM   23  C   UNL     1      22.922  43.246  46.774  1.00  0.00     0.125 A 
HETATM   24  N   UNL     1      23.356  42.401  45.811  1.00  0.00    -0.273 NA
HETATM   25  C   UNL     1      23.535  41.111  46.167  1.00  0.00     0.116 A 
HETATM   26  C   UNL     1      23.301  40.626  47.442  1.00  0.00     0.020 A 
HETATM   27  C   UNL     1      22.856  41.519  48.414  1.00  0.00     0.012 A 
ENDBRANCH  21  22
ENDBRANCH   2  21
BRANCH  10  28
HETATM   28  C   UNL     1      26.720  45.546  52.801  1.00  0.00     0.028 A 
HETATM   29  C   UNL     1      26.563  45.887  54.152  1.00  0.00     0.078 A 
HETATM   30  C   UNL     1      27.275  45.219  55.148  1.00  0.00     0.037 A 
HETATM   31  C   UNL     1      28.187  44.223  54.800  1.00  0.00     0.003 A 
HETATM   32  C   UNL     1      28.383  43.897  53.460  1.00  0.00     0.001 A 
HETATM   33  C   UNL     1      27.652  44.552  52.466  1.00  0.00     0.017 A 
BRANCH  29  34
HETATM   34  O   UNL     1      25.737  46.895  54.573  1.00  0.00    -0.360 OA
HETATM   35  H   UNL     1      24.909  46.475  54.870  1.00  0.00     0.217 HD
ENDBRANCH  29  34
ENDBRANCH  10  28
TORSDOF 8
ENDMDL
MODEL 4
REMARK VINA RESULT:      -7.7      4.098      7.786
REMARK  8 active torsions:
REMARK  status: ('A' for Active; 'I' for Inactive)
REMARK    1  A    between atoms: C_2  and  C_3 
REMARK    2  A    between atoms: C_3  and  O_4 
REMARK    3  A    between atoms: O_4  and  C_5 
REMARK    4  A    between atoms: C_8  and  C_9 
REMARK    5  A    between atoms: N_10  and  C_11 
REMARK    6  A    between atoms: C_11  and  C_12 
REMARK    7  A    between atoms: C_25  and  C_26 
REMARK    8  A    between atoms: C_27  and  O_28 
ROOT
HETATM    1  C   UNL     1      23.045  46.900  49.566  1.00  0.00     0.159 A 
HETATM    2  N   UNL     1      22.699  47.799  48.430  1.00  0.00    -0.329 N 
HETATM    3  C   UNL     1      23.689  48.745  48.135  1.00  0.00     0.273 A 
HETATM    4  O   UNL     1      23.655  49.653  47.324  1.00  0.00    -0.266 OA
HETATM    5  C   UNL     1      24.729  48.430  49.040  1.00  0.00     0.129 A 
HETATM    6  C   UNL     1      24.406  47.397  49.868  1.00  0.00     0.034 A 
HETATM    7  N   UNL     1      25.968  48.835  49.354  1.00  0.00    -0.272 N 
HETATM    8  H   UNL     1      26.527  49.577  48.942  1.00  0.00     0.189 HD
HETATM    9  N   UNL     1      26.488  48.103  50.374  1.00  0.00    -0.173 NA
HETATM   10  C   UNL     1      25.525  47.207  50.693  1.00  0.00     0.101 A 
ENDROOT
BRANCH   1  11
HETATM   11  C   UNL     1      23.180  45.442  49.200  1.00  0.00    -0.030 A 
HETATM   12  C   UNL     1      23.759  45.010  47.994  1.00  0.00     0.012 A 
HETATM   13  C   UNL     1      23.963  43.650  47.751  1.00  0.00     0.037 A 
HETATM   14  C   UNL     1      23.606  42.698  48.705  1.00  0.00     0.069 A 
HETATM   15  C   UNL     1      22.973  43.106  49.876  1.00  0.00     0.037 A 
HETATM   16  C   UNL     1      22.767  44.467  50.124  1.00  0.00     0.012 A 
BRANCH  14  17
HETATM   17  O   UNL     1      23.915  41.403  48.388  1.00  0.00    -0.348 OA
BRANCH  17  18
HETATM   18  C   UNL     1      25.286  41.164  48.066  1.00  0.00     0.202 C 
BRANCH  18  19
HETATM   19  C   UNL     1      26.080  41.306  49.330  1.00  0.00    -0.011 C 
HETATM   20  C   UNL     1      26.014  40.460  50.367  1.00  0.00     0.009 C 
ENDBRANCH  18  19
ENDBRANCH  17  18
ENDBRANCH  14  17
ENDBRANCH   1  11
BRANCH   2  21
HETATM   21  C   UNL     1      21.344  47.908  47.933  1.00  0.00     0.167 C 
BRANCH  21  22
HETATM   22  C   UNL     1      20.429  48.542  48.946  1.00  0.00    -0.023 A 
HETATM   23  C   UNL     1      19.380  47.827  49.516  1.00  0.00     0.125 A 
HETATM   24  N   UNL     1      18.553  48.321  50.464  1.00  0.00    -0.273 NA
HETATM   25  C   UNL     1      18.773  49.592  50.862  1.00  0.00     0.116 A 
HETATM   26  C   UNL     1      19.783  50.393  50.357  1.00  0.00     0.020 A 
HETATM   27  C   UNL     1      20.620  49.857  49.383  1.00  0.00     0.012 A 
ENDBRANCH  21  22
ENDBRANCH   2  21
BRANCH  10  28
HETATM   28  C   UNL     1      25.717  46.207  51.738  1.00  0.00     0.028 A 
HETATM   29  C   UNL     1      25.623  46.517  53.102  1.00  0.00     0.078 A 
HETATM   30  C   UNL     1      25.705  45.518  54.072  1.00  0.00     0.037 A 
HETATM   31  C   UNL     1      25.922  44.195  53.689  1.00  0.00     0.003 A 
HETATM   32  C   UNL     1      26.055  43.874  52.339  1.00  0.00     0.001 A 
HETATM   33  C   UNL     1      25.951  44.873  51.369  1.00  0.00     0.017 A 
BRANCH  29  34
HETATM   34  O   UNL     1      25.473  47.797  53.564  1.00  0.00    -0.360 OA
HETATM   35  H   UNL     1      25.919  47.838  54.430  1.00  0.00     0.217 HD
ENDBRANCH  29  34
ENDBRANCH  10  28
TORSDOF 8
ENDMDL
MODEL 5
REMARK VINA RESULT:      -7.6      3.045      6.026
REMARK  8 active torsions:
REMARK  status: ('A' for Active; 'I' for Inactive)
REMARK    1  A    between atoms: C_2  and  C_3 
REMARK    2  A    between atoms: C_3  and  O_4 
REMARK    3  A    between atoms: O_4  and  C_5 
REMARK    4  A    between atoms: C_8  and  C_9 
REMARK    5  A    between atoms: N_10  and  C_11 
REMARK    6  A    between atoms: C_11  and  C_12 
REMARK    7  A    between atoms: C_25  and  C_26 
REMARK    8  A    between atoms: C_27  and  O_28 
ROOT
HETATM    1  C   UNL     1      26.006  43.306  49.409  1.00  0.00     0.159 A 
HETATM    2  N   UNL     1      25.931  44.029  50.708  1.00  0.00    -0.329 N 
HETATM    3  C   UNL     1      24.624  44.227  51.172  1.00  0.00     0.273 A 
HETATM    4  O   UNL     1      24.251  44.849  52.150  1.00  0.00    -0.266 OA
HETATM    5  C   UNL     1      23.827  43.571  50.205  1.00  0.00     0.129 A 
HETATM    6  C   UNL     1      24.567  43.041  49.190  1.00  0.00     0.034 A 
HETATM    7  N   UNL     1      22.538  43.298  49.958  1.00  0.00    -0.272 N 
HETATM    8  H   UNL     1      21.714  43.537  50.502  1.00  0.00     0.189 HD
HETATM    9  N   UNL     1      22.390  42.598  48.803  1.00  0.00    -0.173 NA
HETATM   10  C   UNL     1      23.645  42.433  48.325  1.00  0.00     0.101 A 
ENDROOT
BRANCH   1  11
HETATM   11  C   UNL     1      26.697  41.965  49.471  1.00  0.00    -0.030 A 
HETATM   12  C   UNL     1      26.505  41.059  50.527  1.00  0.00     0.012 A 
HETATM   13  C   UNL     1      27.078  39.785  50.484  1.00  0.00     0.037 A 
HETATM   14  C   UNL     1      27.840  39.388  49.386  1.00  0.00     0.069 A 
HETATM   15  C   UNL     1      28.093  40.298  48.362  1.00  0.00     0.037 A 
HETATM   16  C   UNL     1      27.521  41.573  48.402  1.00  0.00     0.012 A 
BRANCH  14  17
HETATM   17  O   UNL     1      28.295  38.098  49.420  1.00  0.00    -0.348 OA
BRANCH  17  18
HETATM   18  C   UNL     1      29.712  37.948  49.319  1.00  0.00     0.202 C 
BRANCH  18  19
HETATM   19  C   UNL     1      30.250  37.774  50.708  1.00  0.00    -0.011 C 
HETATM   20  C   UNL     1      29.874  36.803  51.551  1.00  0.00     0.009 C 
ENDBRANCH  18  19
ENDBRANCH  17  18
ENDBRANCH  14  17
ENDBRANCH   1  11
BRANCH   2  21
HETATM   21  C   UNL     1      27.065  44.756  51.240  1.00  0.00     0.167 C 
BRANCH  21  22
HETATM   22  C   UNL     1      27.807  43.954  52.274  1.00  0.00    -0.023 A 
HETATM   23  C   UNL     1      27.256  43.710  53.528  1.00  0.00     0.125 A 
HETATM   24  N   UNL     1      27.848  42.958  54.483  1.00  0.00    -0.273 NA
HETATM   25  C   UNL     1      29.052  42.426  54.180  1.00  0.00     0.116 A 
HETATM   26  C   UNL     1      29.691  42.611  52.967  1.00  0.00     0.020 A 
HETATM   27  C   UNL     1      29.057  43.388  52.002  1.00  0.00     0.012 A 
ENDBRANCH  21  22
ENDBRANCH   2  21
BRANCH  10  28
HETATM   28  C   UNL     1      23.912  41.692  47.098  1.00  0.00     0.028 A 
HETATM   29  C   UNL     1      23.967  42.312  45.842  1.00  0.00     0.078 A 
HETATM   30  C   UNL     1      24.331  41.596  44.702  1.00  0.00     0.037 A 
HETATM   31  C   UNL     1      24.608  40.232  44.799  1.00  0.00     0.003 A 
HETATM   32  C   UNL     1      24.522  39.591  46.033  1.00  0.00     0.001 A 
HETATM   33  C   UNL     1      24.179  40.316  47.177  1.00  0.00     0.017 A 
BRANCH  29  34
HETATM   34  O   UNL     1      23.649  43.631  45.650  1.00  0.00    -0.360 OA
HETATM   35  H   UNL     1      24.445  44.148  45.868  1.00  0.00     0.217 HD
ENDBRANCH  29  34
ENDBRANCH  10  28
TORSDOF 8
ENDMDL
MODEL 6
REMARK VINA RESULT:      -7.3      2.509      7.448
REMARK  8 active torsions:
REMARK  status: ('A' for Active; 'I' for Inactive)
REMARK    1  A    between atoms: C_2  and  C_3 
REMARK    2  A    between atoms: C_3  and  O_4 
REMARK    3  A    between atoms: O_4  and  C_5 
REMARK    4  A    between atoms: C_8  and  C_9 
REMARK    5  A    between atoms: N_10  and  C_11 
REMARK    6  A    between atoms: C_11  and  C_12 
REMARK    7  A    between atoms: C_25  and  C_26 
REMARK    8  A    between atoms: C_27  and  O_28 
ROOT
HETATM    1  C   UNL     1      26.420  42.733  51.798  1.00  0.00     0.159 A 
HETATM    2  N   UNL     1      26.493  41.749  50.683  1.00  0.00    -0.329 N 
HETATM    3  C   UNL     1      26.417  42.329  49.411  1.00  0.00     0.273 A 
HETATM    4  O   UNL     1      26.369  41.777  48.326  1.00  0.00    -0.266 OA
HETATM    5  C   UNL     1      26.359  43.716  49.681  1.00  0.00     0.129 A 
HETATM    6  C   UNL     1      26.354  43.988  51.016  1.00  0.00     0.034 A 
HETATM    7  N   UNL     1      26.303  44.883  49.024  1.00  0.00    -0.272 N 
HETATM    8  H   UNL     1      26.294  45.060  48.024  1.00  0.00     0.189 HD
HETATM    9  N   UNL     1      26.261  45.935  49.883  1.00  0.00    -0.173 NA
HETATM   10  C   UNL     1      26.296  45.385  51.120  1.00  0.00     0.101 A 
ENDROOT
BRANCH   1  11
HETATM   11  C   UNL     1      27.660  42.812  52.654  1.00  0.00    -0.030 A 
HETATM   12  C   UNL     1      27.636  42.634  54.048  1.00  0.00     0.012 A 
HETATM   13  C   UNL     1      28.825  42.604  54.782  1.00  0.00     0.037 A 
HETATM   14  C   UNL     1      30.055  42.740  54.142  1.00  0.00     0.069 A 
HETATM   15  C   UNL     1      30.092  42.983  52.770  1.00  0.00     0.037 A 
HETATM   16  C   UNL     1      28.905  43.012  52.033  1.00  0.00     0.012 A 
BRANCH  14  17
HETATM   17  O   UNL     1      31.155  42.628  54.949  1.00  0.00    -0.348 OA
BRANCH  17  18
HETATM   18  C   UNL     1      31.026  43.227  56.241  1.00  0.00     0.202 C 
BRANCH  18  19
HETATM   19  C   UNL     1      31.035  44.714  56.053  1.00  0.00    -0.011 C 
HETATM   20  C   UNL     1      30.197  45.561  56.667  1.00  0.00     0.009 C 
ENDBRANCH  18  19
ENDBRANCH  17  18
ENDBRANCH  14  17
ENDBRANCH   1  11
BRANCH   2  21
HETATM   21  C   UNL     1      26.300  40.332  50.907  1.00  0.00     0.167 C 
BRANCH  21  22
HETATM   22  C   UNL     1      27.256  39.504  50.091  1.00  0.00    -0.023 A 
HETATM   23  C   UNL     1      26.794  38.571  49.168  1.00  0.00     0.125 A 
HETATM   24  N   UNL     1      27.598  37.830  48.372  1.00  0.00    -0.273 NA
HETATM   25  C   UNL     1      28.928  38.021  48.503  1.00  0.00     0.116 A 
HETATM   26  C   UNL     1      29.492  38.918  49.393  1.00  0.00     0.020 A 
HETATM   27  C   UNL     1      28.641  39.667  50.199  1.00  0.00     0.012 A 
ENDBRANCH  21  22
ENDBRANCH   2  21
BRANCH  10  28
HETATM   28  C   UNL     1      26.298  46.203  52.327  1.00  0.00     0.028 A 
HETATM   29  C   UNL     1      25.420  47.281  52.507  1.00  0.00     0.078 A 
HETATM   30  C   UNL     1      25.374  47.974  53.716  1.00  0.00     0.037 A 
HETATM   31  C   UNL     1      26.237  47.621  54.753  1.00  0.00     0.003 A 
HETATM   32  C   UNL     1      27.142  46.575  54.579  1.00  0.00     0.001 A 
HETATM   33  C   UNL     1      27.171  45.869  53.374  1.00  0.00     0.017 A 
BRANCH  29  34
HETATM   34  O   UNL     1      24.586  47.732  51.520  1.00  0.00    -0.360 OA
HETATM   35  H   UNL     1      24.941  47.398  50.676  1.00  0.00     0.217 HD
ENDBRANCH  29  34
ENDBRANCH  10  28
TORSDOF 8
ENDMDL
MODEL 7
REMARK VINA RESULT:      -7.2      7.113     10.364
REMARK  8 active torsions:
REMARK  status: ('A' for Active; 'I' for Inactive)
REMARK    1  A    between atoms: C_2  and  C_3 
REMARK    2  A    between atoms: C_3  and  O_4 
REMARK    3  A    between atoms: O_4  and  C_5 
REMARK    4  A    between atoms: C_8  and  C_9 
REMARK    5  A    between atoms: N_10  and  C_11 
REMARK    6  A    between atoms: C_11  and  C_12 
REMARK    7  A    between atoms: C_25  and  C_26 
REMARK    8  A    between atoms: C_27  and  O_28 
ROOT
HETATM    1  C   UNL     1      19.894  48.859  49.187  1.00  0.00     0.159 A 
HETATM    2  N   UNL     1      19.193  50.160  49.000  1.00  0.00    -0.329 N 
HETATM    3  C   UNL     1      20.041  51.212  48.630  1.00  0.00     0.273 A 
HETATM    4  O   UNL     1      19.771  52.391  48.487  1.00  0.00    -0.266 OA
HETATM    5  C   UNL     1      21.305  50.590  48.506  1.00  0.00     0.129 A 
HETATM    6  C   UNL     1      21.268  49.264  48.815  1.00  0.00     0.034 A 
HETATM    7  N   UNL     1      22.567  50.899  48.174  1.00  0.00    -0.272 N 
HETATM    8  H   UNL     1      22.958  51.791  47.886  1.00  0.00     0.189 HD
HETATM    9  N   UNL     1      23.381  49.814  48.252  1.00  0.00    -0.173 NA
HETATM   10  C   UNL     1      22.580  48.796  48.645  1.00  0.00     0.101 A 
ENDROOT
BRANCH   1  11
HETATM   11  C   UNL     1      19.479  47.773  48.225  1.00  0.00    -0.030 A 
HETATM   12  C   UNL     1      19.461  47.956  46.832  1.00  0.00     0.012 A 
HETATM   13  C   UNL     1      19.178  46.888  45.978  1.00  0.00     0.037 A 
HETATM   14  C   UNL     1      18.918  45.619  46.493  1.00  0.00     0.069 A 
HETATM   15  C   UNL     1      18.868  45.437  47.874  1.00  0.00     0.037 A 
HETATM   16  C   UNL     1      19.151  46.504  48.731  1.00  0.00     0.012 A 
BRANCH  14  17
HETATM   17  O   UNL     1      18.721  44.635  45.563  1.00  0.00    -0.348 OA
BRANCH  17  18
HETATM   18  C   UNL     1      19.908  44.127  44.952  1.00  0.00     0.202 C 
BRANCH  18  19
HETATM   19  C   UNL     1      20.194  42.786  45.560  1.00  0.00    -0.011 C 
HETATM   20  C   UNL     1      21.320  42.476  46.217  1.00  0.00     0.009 C 
ENDBRANCH  18  19
ENDBRANCH  17  18
ENDBRANCH  14  17
ENDBRANCH   1  11
BRANCH   2  21
HETATM   21  C   UNL     1      17.852  50.379  49.498  1.00  0.00     0.167 C 
BRANCH  21  22
HETATM   22  C   UNL     1      16.819  50.183  48.422  1.00  0.00    -0.023 A 
HETATM   23  C   UNL     1      16.491  51.210  47.542  1.00  0.00     0.125 A 
HETATM   24  N   UNL     1      15.609  51.085  46.526  1.00  0.00    -0.273 NA
HETATM   25  C   UNL     1      15.016  49.881  46.378  1.00  0.00     0.116 A 
HETATM   26  C   UNL     1      15.264  48.795  47.200  1.00  0.00     0.020 A 
HETATM   27  C   UNL     1      16.179  48.953  48.237  1.00  0.00     0.012 A 
ENDBRANCH  21  22
ENDBRANCH   2  21
BRANCH  10  28
HETATM   28  C   UNL     1      23.084  47.439  48.816  1.00  0.00     0.028 A 
HETATM   29  C   UNL     1      24.021  47.103  49.804  1.00  0.00     0.078 A 
HETATM   30  C   UNL     1      24.401  45.778  50.011  1.00  0.00     0.037 A 
HETATM   31  C   UNL     1      23.875  44.770  49.203  1.00  0.00     0.003 A 
HETATM   32  C   UNL     1      22.971  45.090  48.192  1.00  0.00     0.001 A 
HETATM   33  C   UNL     1      22.576  46.416  48.001  1.00  0.00     0.017 A 
BRANCH  29  34
HETATM   34  O   UNL     1      24.631  48.038  50.597  1.00  0.00    -0.360 OA
HETATM   35  H   UNL     1      23.929  48.464  51.122  1.00  0.00     0.217 HD
ENDBRANCH  29  34
ENDBRANCH  10  28
TORSDOF 8
ENDMDL
MODEL 8
REMARK VINA RESULT:      -7.2      4.471      8.236
REMARK  8 active torsions:
REMARK  status: ('A' for Active; 'I' for Inactive)
REMARK    1  A    between atoms: C_2  and  C_3 
REMARK    2  A    between atoms: C_3  and  O_4 
REMARK    3  A    between atoms: O_4  and  C_5 
REMARK    4  A    between atoms: C_8  and  C_9 
REMARK    5  A    between atoms: N_10  and  C_11 
REMARK    6  A    between atoms: C_11  and  C_12 
REMARK    7  A    between atoms: C_25  and  C_26 
REMARK    8  A    between atoms: C_27  and  O_28 
ROOT
HETATM    1  C   UNL     1      22.711  47.456  49.115  1.00  0.00     0.159 A 
HETATM    2  N   UNL     1      22.221  48.429  48.099  1.00  0.00    -0.329 N 
HETATM    3  C   UNL     1      23.158  49.414  47.761  1.00  0.00     0.273 A 
HETATM    4  O   UNL     1      23.017  50.378  47.031  1.00  0.00    -0.266 OA
HETATM    5  C   UNL     1      24.302  49.054  48.511  1.00  0.00     0.129 A 
HETATM    6  C   UNL     1      24.092  47.958  49.292  1.00  0.00     0.034 A 
HETATM    7  N   UNL     1      25.565  49.461  48.706  1.00  0.00    -0.272 N 
HETATM    8  H   UNL     1      26.062  50.242  48.288  1.00  0.00     0.189 HD
HETATM    9  N   UNL     1      26.211  48.667  49.600  1.00  0.00    -0.173 NA
HETATM   10  C   UNL     1      25.303  47.730  49.963  1.00  0.00     0.101 A 
ENDROOT
BRANCH   1  11
HETATM   11  C   UNL     1      22.818  46.032  48.627  1.00  0.00    -0.030 A 
HETATM   12  C   UNL     1      22.893  45.698  47.265  1.00  0.00     0.012 A 
HETATM   13  C   UNL     1      23.104  44.375  46.867  1.00  0.00     0.037 A 
HETATM   14  C   UNL     1      23.255  43.366  47.817  1.00  0.00     0.069 A 
HETATM   15  C   UNL     1      23.118  43.672  49.169  1.00  0.00     0.037 A 
HETATM   16  C   UNL     1      22.907  44.994  49.571  1.00  0.00     0.012 A 
BRANCH  14  17
HETATM   17  O   UNL     1      23.525  42.122  47.316  1.00  0.00    -0.348 OA
BRANCH  17  18
HETATM   18  C   UNL     1      22.433  41.482  46.652  1.00  0.00     0.202 C 
BRANCH  18  19
HETATM   19  C   UNL     1      22.148  40.202  47.380  1.00  0.00    -0.011 C 
HETATM   20  C   UNL     1      21.809  39.050  46.784  1.00  0.00     0.009 C 
ENDBRANCH  18  19
ENDBRANCH  17  18
ENDBRANCH  14  17
ENDBRANCH   1  11
BRANCH   2  21
HETATM   21  C   UNL     1      20.816  48.547  47.775  1.00  0.00     0.167 C 
BRANCH  21  22
HETATM   22  C   UNL     1      20.160  49.666  48.537  1.00  0.00    -0.023 A 
HETATM   23  C   UNL     1      19.691  49.477  49.834  1.00  0.00     0.125 A 
HETATM   24  N   UNL     1      19.137  50.452  50.589  1.00  0.00    -0.273 NA
HETATM   25  C   UNL     1      19.036  51.675  50.027  1.00  0.00     0.116 A 
HETATM   26  C   UNL     1      19.464  51.970  48.744  1.00  0.00     0.020 A 
HETATM   27  C   UNL     1      20.032  50.947  47.990  1.00  0.00     0.012 A 
ENDBRANCH  21  22
ENDBRANCH   2  21
BRANCH  10  28
HETATM   28  C   UNL     1      25.630  46.661  50.898  1.00  0.00     0.028 A 
HETATM   29  C   UNL     1      26.231  45.462  50.490  1.00  0.00     0.078 A 
HETATM   30  C   UNL     1      26.630  44.505  51.423  1.00  0.00     0.037 A 
HETATM   31  C   UNL     1      26.396  44.719  52.781  1.00  0.00     0.003 A 
HETATM   32  C   UNL     1      25.766  45.889  53.202  1.00  0.00     0.001 A 
HETATM   33  C   UNL     1      25.387  46.855  52.267  1.00  0.00     0.017 A 
BRANCH  29  34
HETATM   34  O   UNL     1      26.440  45.146  49.174  1.00  0.00    -0.360 OA
HETATM   35  H   UNL     1      26.058  45.871  48.646  1.00  0.00     0.217 HD
ENDBRANCH  29  34
ENDBRANCH  10  28
TORSDOF 8
ENDMDL
MODEL 9
REMARK VINA RESULT:      -7.1      9.006     12.221
REMARK  8 active torsions:
REMARK  status: ('A' for Active; 'I' for Inactive)
REMARK    1  A    between atoms: C_2  and  C_3 
REMARK    2  A    between atoms: C_3  and  O_4 
REMARK    3  A    between atoms: O_4  and  C_5 
REMARK    4  A    between atoms: C_8  and  C_9 
REMARK    5  A    between atoms: N_10  and  C_11 
REMARK    6  A    between atoms: C_11  and  C_12 
REMARK    7  A    between atoms: C_25  and  C_26 
REMARK    8  A    between atoms: C_27  and  O_28 
ROOT
HETATM    1  C   UNL     1      18.384  47.927  46.214  1.00  0.00     0.159 A 
HETATM    2  N   UNL     1      17.439  46.820  45.900  1.00  0.00    -0.329 N 
HETATM    3  C   UNL     1      17.630  45.674  46.683  1.00  0.00     0.273 A 
HETATM    4  O   UNL     1      17.070  44.596  46.600  1.00  0.00    -0.266 OA
HETATM    5  C   UNL     1      18.666  46.047  47.570  1.00  0.00     0.129 A 
HETATM    6  C   UNL     1      19.124  47.309  47.337  1.00  0.00     0.034 A 
HETATM    7  N   UNL     1      19.365  45.540  48.596  1.00  0.00    -0.272 N 
HETATM    8  H   UNL     1      19.290  44.629  49.038  1.00  0.00     0.189 HD
HETATM    9  N   UNL     1      20.283  46.428  49.060  1.00  0.00    -0.173 NA
HETATM   10  C   UNL     1      20.134  47.529  48.285  1.00  0.00     0.101 A 
ENDROOT
BRANCH   1  11
HETATM   11  C   UNL     1      17.734  49.179  46.750  1.00  0.00    -0.030 A 
HETATM   12  C   UNL     1      16.866  49.173  47.855  1.00  0.00     0.012 A 
HETATM   13  C   UNL     1      16.379  50.371  48.383  1.00  0.00     0.037 A 
HETATM   14  C   UNL     1      16.755  51.594  47.829  1.00  0.00     0.069 A 
HETATM   15  C   UNL     1      17.562  51.613  46.694  1.00  0.00     0.037 A 
HETATM   16  C   UNL     1      18.052  50.416  46.163  1.00  0.00     0.012 A 
BRANCH  14  17
HETATM   17  O   UNL     1      16.272  52.703  48.468  1.00  0.00    -0.348 OA
BRANCH  17  18
HETATM   18  C   UNL     1      16.405  52.693  49.891  1.00  0.00     0.202 C 
BRANCH  18  19
HETATM   19  C   UNL     1      15.305  53.543  50.455  1.00  0.00    -0.011 C 
HETATM   20  C   UNL     1      14.052  53.117  50.669  1.00  0.00     0.009 C 
ENDBRANCH  18  19
ENDBRANCH  17  18
ENDBRANCH  14  17
ENDBRANCH   1  11
BRANCH   2  21
HETATM   21  C   UNL     1      16.660  46.809  44.680  1.00  0.00     0.167 C 
BRANCH  21  22
HETATM   22  C   UNL     1      15.577  47.853  44.703  1.00  0.00    -0.023 A 
HETATM   23  C   UNL     1      15.567  48.901  43.787  1.00  0.00     0.125 A 
HETATM   24  N   UNL     1      14.599  49.843  43.723  1.00  0.00    -0.273 NA
HETATM   25  C   UNL     1      13.592  49.744  44.617  1.00  0.00     0.116 A 
HETATM   26  C   UNL     1      13.508  48.747  45.574  1.00  0.00     0.020 A 
HETATM   27  C   UNL     1      14.518  47.790  45.615  1.00  0.00     0.012 A 
ENDBRANCH  21  22
ENDBRANCH   2  21
BRANCH  10  28
HETATM   28  C   UNL     1      20.931  48.732  48.494  1.00  0.00     0.028 A 
HETATM   29  C   UNL     1      22.291  48.801  48.160  1.00  0.00     0.078 A 
HETATM   30  C   UNL     1      22.997  49.998  48.271  1.00  0.00     0.037 A 
HETATM   31  C   UNL     1      22.359  51.139  48.757  1.00  0.00     0.003 A 
HETATM   32  C   UNL     1      21.017  51.079  49.130  1.00  0.00     0.001 A 
HETATM   33  C   UNL     1      20.307  49.883  48.997  1.00  0.00     0.017 A 
BRANCH  29  34
HETATM   34  O   UNL     1      23.008  47.714  47.735  1.00  0.00    -0.360 OA
HETATM   35  H   UNL     1      23.895  47.788  48.131  1.00  0.00     0.217 HD
ENDBRANCH  29  34
ENDBRANCH  10  28
TORSDOF 8
ENDMDL
MODEL 10
REMARK VINA RESULT:      -7.0      3.063      6.036
REMARK  8 active torsions:
REMARK  status: ('A' for Active; 'I' for Inactive)
REMARK    1  A    between atoms: C_2  and  C_3 
REMARK    2  A    between atoms: C_3  and  O_4 
REMARK    3  A    between atoms: O_4  and  C_5 
REMARK    4  A    between atoms: C_8  and  C_9 
REMARK    5  A    between atoms: N_10  and  C_11 
REMARK    6  A    between atoms: C_11  and  C_12 
REMARK    7  A    between atoms: C_25  and  C_26 
REMARK    8  A    between atoms: C_27  and  O_28 
ROOT
HETATM    1  C   UNL     1      26.029  43.327  49.346  1.00  0.00     0.159 A 
HETATM    2  N   UNL     1      25.915  44.013  50.662  1.00  0.00    -0.329 N 
HETATM    3  C   UNL     1      24.595  44.185  51.098  1.00  0.00     0.273 A 
HETATM    4  O   UNL     1      24.191  44.777  52.083  1.00  0.00    -0.266 OA
HETATM    5  C   UNL     1      23.829  43.550  50.093  1.00  0.00     0.129 A 
HETATM    6  C   UNL     1      24.598  43.056  49.084  1.00  0.00     0.034 A 
HETATM    7  N   UNL     1      22.548  43.272  49.807  1.00  0.00    -0.272 N 
HETATM    8  H   UNL     1      21.709  43.488  50.336  1.00  0.00     0.189 HD
HETATM    9  N   UNL     1      22.436  42.604  48.629  1.00  0.00    -0.173 NA
HETATM   10  C   UNL     1      23.705  42.463  48.179  1.00  0.00     0.101 A 
ENDROOT
BRANCH   1  11
HETATM   11  C   UNL     1      26.731  41.991  49.388  1.00  0.00    -0.030 A 
HETATM   12  C   UNL     1      26.592  41.092  50.458  1.00  0.00     0.012 A 
HETATM   13  C   UNL     1      27.171  39.822  50.399  1.00  0.00     0.037 A 
HETATM   14  C   UNL     1      27.888  39.422  49.273  1.00  0.00     0.069 A 
HETATM   15  C   UNL     1      28.090  40.326  48.232  1.00  0.00     0.037 A 
HETATM   16  C   UNL     1      27.512  41.598  48.287  1.00  0.00     0.012 A 
BRANCH  14  17
HETATM   17  O   UNL     1      28.353  38.135  49.297  1.00  0.00    -0.348 OA
BRANCH  17  18
HETATM   18  C   UNL     1      27.348  37.126  49.418  1.00  0.00     0.202 C 
BRANCH  18  19
HETATM   19  C   UNL     1      26.742  36.926  48.061  1.00  0.00    -0.011 C 
HETATM   20  C   UNL     1      25.843  35.977  47.765  1.00  0.00     0.009 C 
ENDBRANCH  18  19
ENDBRANCH  17  18
ENDBRANCH  14  17
ENDBRANCH   1  11
BRANCH   2  21
HETATM   21  C   UNL     1      27.027  44.736  51.242  1.00  0.00     0.167 C 
BRANCH  21  22
HETATM   22  C   UNL     1      27.750  43.912  52.273  1.00  0.00    -0.023 A 
HETATM   23  C   UNL     1      27.144  43.573  53.478  1.00  0.00     0.125 A 
HETATM   24  N   UNL     1      27.720  42.797  54.424  1.00  0.00    -0.273 NA
HETATM   25  C   UNL     1      28.963  42.340  54.164  1.00  0.00     0.116 A 
HETATM   26  C   UNL     1      29.658  42.622  53.001  1.00  0.00     0.020 A 
HETATM   27  C   UNL     1      29.040  43.422  52.044  1.00  0.00     0.012 A 
ENDBRANCH  21  22
ENDBRANCH   2  21
BRANCH  10  28
HETATM   28  C   UNL     1      24.009  41.759  46.938  1.00  0.00     0.028 A 
HETATM   29  C   UNL     1      24.340  40.397  46.908  1.00  0.00     0.078 A 
HETATM   30  C   UNL     1      24.519  39.729  45.697  1.00  0.00     0.037 A 
HETATM   31  C   UNL     1      24.407  40.427  44.495  1.00  0.00     0.003 A 
HETATM   32  C   UNL     1      24.115  41.790  44.508  1.00  0.00     0.001 A 
HETATM   33  C   UNL     1      23.915  42.452  45.722  1.00  0.00     0.017 A 
BRANCH  29  34
HETATM   34  O   UNL     1      24.531  39.653  48.042  1.00  0.00    -0.360 OA
HETATM   35  H   UNL     1      23.649  39.370  48.345  1.00  0.00     0.217 HD
ENDBRANCH  29  34
ENDBRANCH  10  28
TORSDOF 8
ENDMDL
