MODEL 1
REMARK VINA RESULT:      -8.0      0.000      0.000
REMARK  7 active torsions:
REMARK  status: ('A' for Active; 'I' for Inactive)
REMARK    1  A    between atoms: C_2  and  C_3 
REMARK    2  A    between atoms: C_3  and  O_4 
REMARK    3  A    between atoms: O_4  and  C_5 
REMARK    4  A    between atoms: C_8  and  C_9 
REMARK    5  A    between atoms: C_15  and  C_16 
REMARK    6  A    between atoms: C_19  and  N_20 
REMARK       I    between atoms: N_20  and  C_21 
REMARK    7  A    between atoms: C_29  and  N_30 
ROOT
HETATM    1  C   UNL     1      25.206  48.189  49.275  1.00  0.00     0.072 A 
HETATM    2  N   UNL     1      25.960  49.146  48.627  1.00  0.00    -0.274 N 
HETATM    3  H   UNL     1      26.968  49.259  48.655  1.00  0.00     0.189 HD
HETATM    4  N   UNL     1      25.233  50.039  47.919  1.00  0.00    -0.148 NA
HETATM    5  C   UNL     1      23.991  49.624  48.131  1.00  0.00     0.199 A 
HETATM    6  C   UNL     1      23.900  48.471  48.915  1.00  0.00     0.039 A 
HETATM    7  C   UNL     1      22.580  47.858  49.210  1.00  0.00     0.105 C 
HETATM    8  C   UNL     1      21.460  48.802  48.805  1.00  0.00     0.067 C 
HETATM    9  C   UNL     1      20.100  48.508  49.418  1.00  0.00     0.020 C 
HETATM   10  N   UNL     1      18.973  48.265  49.927  1.00  0.00    -0.096 N 
HETATM   11  C   UNL     1      21.660  49.929  48.073  1.00  0.00     0.139 C 
HETATM   12  O   UNL     1      22.940  50.304  47.631  1.00  0.00    -0.277 OA
ENDROOT
BRANCH   7  13
HETATM   13  C   UNL     1      22.566  46.541  48.445  1.00  0.00    -0.044 A 
HETATM   14  C   UNL     1      22.116  46.512  47.116  1.00  0.00     0.010 A 
HETATM   15  C   UNL     1      22.058  45.312  46.397  1.00  0.00     0.030 A 
HETATM   16  C   UNL     1      22.450  44.110  46.986  1.00  0.00     0.034 A 
HETATM   17  C   UNL     1      22.911  44.131  48.307  1.00  0.00     0.030 A 
HETATM   18  C   UNL     1      22.971  45.328  49.027  1.00  0.00     0.010 A 
BRANCH  16  19
HETATM   19  N   UNL     1      22.401  42.858  46.342  1.00  0.00    -0.328 N 
HETATM   20  C   UNL     1      21.283  42.084  46.086  1.00  0.00     0.218 C 
HETATM   21  C   UNL     1      21.641  40.790  45.398  1.00  0.00     0.117 C 
HETATM   22  O   UNL     1      20.117  42.360  46.340  1.00  0.00    -0.274 OA
HETATM   23  H   UNL     1      23.289  42.485  46.035  1.00  0.00     0.169 HD
ENDBRANCH  16  19
ENDBRANCH   7  13
BRANCH  11  24
HETATM   24  N   UNL     1      20.679  50.821  47.707  1.00  0.00    -0.282 NA
HETATM   25  H   UNL     1      20.999  51.694  47.297  1.00  0.00     0.126 HD
HETATM   26  H   UNL     1      19.985  50.951  48.442  1.00  0.00     0.126 HD
ENDBRANCH  11  24
BRANCH   1  27
HETATM   27  C   UNL     1      25.770  47.161  50.136  1.00  0.00    -0.007 A 
HETATM   28  C   UNL     1      25.525  47.189  51.515  1.00  0.00     0.016 A 
HETATM   29  C   UNL     1      26.019  46.184  52.352  1.00  0.00     0.037 A 
HETATM   30  C   UNL     1      26.769  45.137  51.819  1.00  0.00     0.068 A 
HETATM   31  C   UNL     1      27.041  45.122  50.450  1.00  0.00     0.037 A 
HETATM   32  C   UNL     1      26.543  46.122  49.609  1.00  0.00     0.016 A 
BRANCH  30  33
HETATM   33  O   UNL     1      27.295  44.093  52.528  1.00  0.00    -0.351 OA
BRANCH  33  34
HETATM   34  C   UNL     1      28.001  44.428  53.725  1.00  0.00     0.175 C 
BRANCH  34  35
HETATM   35  C   UNL     1      28.967  43.289  54.037  1.00  0.00     0.022 C 
HETATM   36  C   UNL     1      29.887  42.995  52.866  1.00  0.00     0.007 C 
ENDBRANCH  34  35
ENDBRANCH  33  34
ENDBRANCH  30  33
ENDBRANCH   1  27
TORSDOF 7
ENDMDL
MODEL 2
REMARK VINA RESULT:      -7.8     20.402     24.387
REMARK  7 active torsions:
REMARK  status: ('A' for Active; 'I' for Inactive)
REMARK    1  A    between atoms: C_2  and  C_3 
REMARK    2  A    between atoms: C_3  and  O_4 
REMARK    3  A    between atoms: O_4  and  C_5 
REMARK    4  A    between atoms: C_8  and  C_9 
REMARK    5  A    between atoms: C_15  and  C_16 
REMARK    6  A    between atoms: C_19  and  N_20 
REMARK       I    between atoms: N_20  and  C_21 
REMARK    7  A    between atoms: C_29  and  N_30 
ROOT
HETATM    1  C   UNL     1      39.168  41.080  63.529  1.00  0.00     0.072 A 
HETATM    2  N   UNL     1      39.238  40.282  62.406  1.00  0.00    -0.274 N 
HETATM    3  H   UNL     1      38.779  40.432  61.513  1.00  0.00     0.189 HD
HETATM    4  N   UNL     1      39.980  39.163  62.567  1.00  0.00    -0.148 NA
HETATM    5  C   UNL     1      40.383  39.271  63.826  1.00  0.00     0.199 A 
HETATM    6  C   UNL     1      39.961  40.440  64.464  1.00  0.00     0.039 A 
HETATM    7  C   UNL     1      40.364  40.727  65.864  1.00  0.00     0.105 C 
HETATM    8  C   UNL     1      40.986  39.491  66.495  1.00  0.00     0.067 C 
HETATM    9  C   UNL     1      41.056  39.495  68.014  1.00  0.00     0.020 C 
HETATM   10  N   UNL     1      41.112  39.499  69.273  1.00  0.00    -0.096 N 
HETATM   11  C   UNL     1      41.321  38.380  65.790  1.00  0.00     0.139 C 
HETATM   12  O   UNL     1      41.115  38.297  64.402  1.00  0.00    -0.277 OA
ENDROOT
BRANCH   7  13
HETATM   13  C   UNL     1      41.323  41.907  65.775  1.00  0.00    -0.044 A 
HETATM   14  C   UNL     1      42.705  41.677  65.699  1.00  0.00     0.010 A 
HETATM   15  C   UNL     1      43.615  42.741  65.652  1.00  0.00     0.030 A 
HETATM   16  C   UNL     1      43.166  44.062  65.678  1.00  0.00     0.034 A 
HETATM   17  C   UNL     1      41.789  44.300  65.741  1.00  0.00     0.030 A 
HETATM   18  C   UNL     1      40.879  43.240  65.788  1.00  0.00     0.010 A 
BRANCH  16  19
HETATM   19  N   UNL     1      44.014  45.188  65.657  1.00  0.00    -0.328 N 
HETATM   20  C   UNL     1      44.228  46.062  64.607  1.00  0.00     0.218 C 
HETATM   21  C   UNL     1      45.231  47.131  64.961  1.00  0.00     0.117 C 
HETATM   22  O   UNL     1      43.690  46.043  63.505  1.00  0.00    -0.274 OA
HETATM   23  H   UNL     1      44.524  45.371  66.510  1.00  0.00     0.169 HD
ENDBRANCH  16  19
ENDBRANCH   7  13
BRANCH  11  24
HETATM   24  N   UNL     1      41.862  37.235  66.326  1.00  0.00    -0.282 NA
HETATM   25  H   UNL     1      41.201  36.506  66.582  1.00  0.00     0.126 HD
HETATM   26  H   UNL     1      42.543  37.437  67.057  1.00  0.00     0.126 HD
ENDBRANCH  11  24
BRANCH   1  27
HETATM   27  C   UNL     1      38.384  42.304  63.603  1.00  0.00    -0.007 A 
HETATM   28  C   UNL     1      37.291  42.386  64.476  1.00  0.00     0.016 A 
HETATM   29  C   UNL     1      36.556  43.569  64.596  1.00  0.00     0.037 A 
HETATM   30  C   UNL     1      36.904  44.688  63.840  1.00  0.00     0.068 A 
HETATM   31  C   UNL     1      37.973  44.601  62.947  1.00  0.00     0.037 A 
HETATM   32  C   UNL     1      38.715  43.421  62.830  1.00  0.00     0.016 A 
BRANCH  30  33
HETATM   33  O   UNL     1      36.273  45.901  63.876  1.00  0.00    -0.351 OA
BRANCH  33  34
HETATM   34  C   UNL     1      36.731  46.826  64.866  1.00  0.00     0.175 C 
BRANCH  34  35
HETATM   35  C   UNL     1      36.922  48.181  64.192  1.00  0.00     0.022 C 
HETATM   36  C   UNL     1      37.691  49.145  65.077  1.00  0.00     0.007 C 
ENDBRANCH  34  35
ENDBRANCH  33  34
ENDBRANCH  30  33
ENDBRANCH   1  27
TORSDOF 7
ENDMDL
MODEL 3
REMARK VINA RESULT:      -7.3     20.737     24.143
REMARK  7 active torsions:
REMARK  status: ('A' for Active; 'I' for Inactive)
REMARK    1  A    between atoms: C_2  and  C_3 
REMARK    2  A    between atoms: C_3  and  O_4 
REMARK    3  A    between atoms: O_4  and  C_5 
REMARK    4  A    between atoms: C_8  and  C_9 
REMARK    5  A    between atoms: C_15  and  C_16 
REMARK    6  A    between atoms: C_19  and  N_20 
REMARK       I    between atoms: N_20  and  C_21 
REMARK    7  A    between atoms: C_29  and  N_30 
ROOT
HETATM    1  C   UNL     1      38.051  46.900  64.652  1.00  0.00     0.072 A 
HETATM    2  N   UNL     1      37.206  46.722  63.576  1.00  0.00    -0.274 N 
HETATM    3  H   UNL     1      36.679  47.434  63.081  1.00  0.00     0.189 HD
HETATM    4  N   UNL     1      37.060  45.434  63.194  1.00  0.00    -0.148 NA
HETATM    5  C   UNL     1      37.838  44.793  64.056  1.00  0.00     0.199 A 
HETATM    6  C   UNL     1      38.511  45.630  64.950  1.00  0.00     0.039 A 
HETATM    7  C   UNL     1      39.452  45.068  65.952  1.00  0.00     0.105 C 
HETATM    8  C   UNL     1      39.309  43.556  66.016  1.00  0.00     0.067 C 
HETATM    9  C   UNL     1      39.880  42.896  67.261  1.00  0.00     0.020 C 
HETATM   10  N   UNL     1      40.353  42.349  68.294  1.00  0.00    -0.096 N 
HETATM   11  C   UNL     1      38.591  42.835  65.118  1.00  0.00     0.139 C 
HETATM   12  O   UNL     1      37.920  43.448  64.046  1.00  0.00    -0.277 OA
ENDROOT
BRANCH   7  13
HETATM   13  C   UNL     1      40.835  45.526  65.510  1.00  0.00    -0.044 A 
HETATM   14  C   UNL     1      41.422  44.965  64.365  1.00  0.00     0.010 A 
HETATM   15  C   UNL     1      42.706  45.340  63.952  1.00  0.00     0.030 A 
HETATM   16  C   UNL     1      43.437  46.285  64.671  1.00  0.00     0.034 A 
HETATM   17  C   UNL     1      42.856  46.859  65.806  1.00  0.00     0.030 A 
HETATM   18  C   UNL     1      41.573  46.488  66.221  1.00  0.00     0.010 A 
BRANCH  16  19
HETATM   19  N   UNL     1      44.742  46.700  64.337  1.00  0.00    -0.328 N 
HETATM   20  C   UNL     1      45.928  46.315  64.935  1.00  0.00     0.218 C 
HETATM   21  C   UNL     1      47.120  46.999  64.313  1.00  0.00     0.117 C 
HETATM   22  O   UNL     1      46.070  45.510  65.848  1.00  0.00    -0.274 OA
HETATM   23  H   UNL     1      44.814  47.357  63.572  1.00  0.00     0.169 HD
ENDBRANCH  16  19
ENDBRANCH   7  13
BRANCH  11  24
HETATM   24  N   UNL     1      38.417  41.470  65.155  1.00  0.00    -0.282 NA
HETATM   25  H   UNL     1      37.881  41.109  65.939  1.00  0.00     0.126 HD
HETATM   26  H   UNL     1      39.290  40.968  64.997  1.00  0.00     0.126 HD
ENDBRANCH  11  24
BRANCH   1  27
HETATM   27  C   UNL     1      38.316  48.193  65.266  1.00  0.00    -0.007 A 
HETATM   28  C   UNL     1      39.408  48.960  64.841  1.00  0.00     0.016 A 
HETATM   29  C   UNL     1      39.651  50.225  65.386  1.00  0.00     0.037 A 
HETATM   30  C   UNL     1      38.804  50.738  66.367  1.00  0.00     0.068 A 
HETATM   31  C   UNL     1      37.733  49.963  66.815  1.00  0.00     0.037 A 
HETATM   32  C   UNL     1      37.483  48.701  66.267  1.00  0.00     0.016 A 
BRANCH  30  33
HETATM   33  O   UNL     1      38.928  51.961  66.966  1.00  0.00    -0.351 OA
BRANCH  33  34
HETATM   34  C   UNL     1      37.718  52.695  67.169  1.00  0.00     0.175 C 
BRANCH  34  35
HETATM   35  C   UNL     1      37.770  53.941  66.291  1.00  0.00     0.022 C 
HETATM   36  C   UNL     1      37.091  55.126  66.955  1.00  0.00     0.007 C 
ENDBRANCH  34  35
ENDBRANCH  33  34
ENDBRANCH  30  33
ENDBRANCH   1  27
TORSDOF 7
ENDMDL
MODEL 4
REMARK VINA RESULT:      -7.2      4.362      8.212
REMARK  7 active torsions:
REMARK  status: ('A' for Active; 'I' for Inactive)
REMARK    1  A    between atoms: C_2  and  C_3 
REMARK    2  A    between atoms: C_3  and  O_4 
REMARK    3  A    between atoms: O_4  and  C_5 
REMARK    4  A    between atoms: C_8  and  C_9 
REMARK    5  A    between atoms: C_15  and  C_16 
REMARK    6  A    between atoms: C_19  and  N_20 
REMARK       I    between atoms: N_20  and  C_21 
REMARK    7  A    between atoms: C_29  and  N_30 
ROOT
HETATM    1  C   UNL     1      19.496  47.283  48.065  1.00  0.00     0.072 A 
HETATM    2  N   UNL     1      19.169  46.105  48.705  1.00  0.00    -0.274 N 
HETATM    3  H   UNL     1      19.699  45.627  49.426  1.00  0.00     0.189 HD
HETATM    4  N   UNL     1      18.025  45.535  48.265  1.00  0.00    -0.148 NA
HETATM    5  C   UNL     1      17.630  46.384  47.325  1.00  0.00     0.199 A 
HETATM    6  C   UNL     1      18.458  47.499  47.178  1.00  0.00     0.039 A 
HETATM    7  C   UNL     1      18.129  48.562  46.195  1.00  0.00     0.105 C 
HETATM    8  C   UNL     1      17.019  48.094  45.267  1.00  0.00     0.067 C 
HETATM    9  C   UNL     1      16.870  48.880  43.974  1.00  0.00     0.020 C 
HETATM   10  N   UNL     1      16.748  49.531  42.901  1.00  0.00    -0.096 N 
HETATM   11  C   UNL     1      16.298  46.963  45.476  1.00  0.00     0.139 C 
HETATM   12  O   UNL     1      16.531  46.134  46.586  1.00  0.00    -0.277 OA
ENDROOT
BRANCH   7  13
HETATM   13  C   UNL     1      17.746  49.779  47.027  1.00  0.00    -0.044 A 
HETATM   14  C   UNL     1      18.488  50.964  46.909  1.00  0.00     0.010 A 
HETATM   15  C   UNL     1      18.183  52.090  47.686  1.00  0.00     0.030 A 
HETATM   16  C   UNL     1      17.130  52.059  48.599  1.00  0.00     0.034 A 
HETATM   17  C   UNL     1      16.377  50.885  48.715  1.00  0.00     0.030 A 
HETATM   18  C   UNL     1      16.678  49.761  47.940  1.00  0.00     0.010 A 
BRANCH  16  19
HETATM   19  N   UNL     1      16.772  53.137  49.433  1.00  0.00    -0.328 N 
HETATM   20  C   UNL     1      15.590  53.855  49.423  1.00  0.00     0.218 C 
HETATM   21  C   UNL     1      15.593  54.957  50.453  1.00  0.00     0.117 C 
HETATM   22  O   UNL     1      14.613  53.664  48.708  1.00  0.00    -0.274 OA
HETATM   23  H   UNL     1      17.465  53.416  50.115  1.00  0.00     0.169 HD
ENDBRANCH  16  19
ENDBRANCH   7  13
BRANCH  11  24
HETATM   24  N   UNL     1      15.304  46.492  44.648  1.00  0.00    -0.282 NA
HETATM   25  H   UNL     1      14.836  45.642  44.951  1.00  0.00     0.126 HD
HETATM   26  H   UNL     1      15.597  46.467  43.673  1.00  0.00     0.126 HD
ENDBRANCH  11  24
BRANCH   1  27
HETATM   27  C   UNL     1      20.708  48.041  48.338  1.00  0.00    -0.007 A 
HETATM   28  C   UNL     1      20.658  49.167  49.172  1.00  0.00     0.016 A 
HETATM   29  C   UNL     1      21.820  49.880  49.484  1.00  0.00     0.037 A 
HETATM   30  C   UNL     1      23.048  49.477  48.963  1.00  0.00     0.068 A 
HETATM   31  C   UNL     1      23.097  48.375  48.108  1.00  0.00     0.037 A 
HETATM   32  C   UNL     1      21.938  47.655  47.800  1.00  0.00     0.016 A 
BRANCH  30  33
HETATM   33  O   UNL     1      24.252  50.081  49.202  1.00  0.00    -0.351 OA
BRANCH  33  34
HETATM   34  C   UNL     1      25.163  50.139  48.102  1.00  0.00     0.175 C 
BRANCH  34  35
HETATM   35  C   UNL     1      26.558  49.816  48.629  1.00  0.00     0.022 C 
HETATM   36  C   UNL     1      26.578  48.512  49.407  1.00  0.00     0.007 C 
ENDBRANCH  34  35
ENDBRANCH  33  34
ENDBRANCH  30  33
ENDBRANCH   1  27
TORSDOF 7
ENDMDL
MODEL 5
REMARK VINA RESULT:      -7.2      1.613      2.159
REMARK  7 active torsions:
REMARK  status: ('A' for Active; 'I' for Inactive)
REMARK    1  A    between atoms: C_2  and  C_3 
REMARK    2  A    between atoms: C_3  and  O_4 
REMARK    3  A    between atoms: O_4  and  C_5 
REMARK    4  A    between atoms: C_8  and  C_9 
REMARK    5  A    between atoms: C_15  and  C_16 
REMARK    6  A    between atoms: C_19  and  N_20 
REMARK       I    between atoms: N_20  and  C_21 
REMARK    7  A    between atoms: C_29  and  N_30 
ROOT
HETATM    1  C   UNL     1      23.866  48.357  49.141  1.00  0.00     0.072 A 
HETATM    2  N   UNL     1      24.790  49.161  48.505  1.00  0.00    -0.274 N 
HETATM    3  H   UNL     1      25.794  49.026  48.456  1.00  0.00     0.189 HD
HETATM    4  N   UNL     1      24.261  50.264  47.929  1.00  0.00    -0.148 NA
HETATM    5  C   UNL     1      22.971  50.141  48.214  1.00  0.00     0.199 A 
HETATM    6  C   UNL     1      22.650  48.976  48.915  1.00  0.00     0.039 A 
HETATM    7  C   UNL     1      21.241  48.673  49.274  1.00  0.00     0.105 C 
HETATM    8  C   UNL     1      20.364  49.892  49.036  1.00  0.00     0.067 C 
HETATM    9  C   UNL     1      19.016  49.877  49.739  1.00  0.00     0.020 C 
HETATM   10  N   UNL     1      17.898  49.865  50.322  1.00  0.00    -0.096 N 
HETATM   11  C   UNL     1      20.789  51.000  48.376  1.00  0.00     0.139 C 
HETATM   12  O   UNL     1      22.091  51.096  47.857  1.00  0.00    -0.277 OA
ENDROOT
BRANCH   7  13
HETATM   13  C   UNL     1      20.854  47.475  48.417  1.00  0.00    -0.044 A 
HETATM   14  C   UNL     1      20.090  46.438  48.974  1.00  0.00     0.010 A 
HETATM   15  C   UNL     1      19.747  45.306  48.222  1.00  0.00     0.030 A 
HETATM   16  C   UNL     1      20.159  45.183  46.896  1.00  0.00     0.034 A 
HETATM   17  C   UNL     1      20.912  46.217  46.328  1.00  0.00     0.030 A 
HETATM   18  C   UNL     1      21.254  47.348  47.076  1.00  0.00     0.010 A 
BRANCH  16  19
HETATM   19  N   UNL     1      19.878  44.069  46.079  1.00  0.00    -0.328 N 
HETATM   20  C   UNL     1      20.631  42.918  45.933  1.00  0.00     0.218 C 
HETATM   21  C   UNL     1      20.013  41.963  44.943  1.00  0.00     0.117 C 
HETATM   22  O   UNL     1      21.670  42.634  46.518  1.00  0.00    -0.274 OA
HETATM   23  H   UNL     1      19.027  44.124  45.536  1.00  0.00     0.169 HD
ENDBRANCH  16  19
ENDBRANCH   7  13
BRANCH  11  24
HETATM   24  N   UNL     1      20.035  52.131  48.162  1.00  0.00    -0.282 NA
HETATM   25  H   UNL     1      20.244  52.927  48.760  1.00  0.00     0.126 HD
HETATM   26  H   UNL     1      19.040  51.924  48.099  1.00  0.00     0.126 HD
ENDBRANCH  11  24
BRANCH   1  27
HETATM   27  C   UNL     1      24.214  47.148  49.873  1.00  0.00    -0.007 A 
HETATM   28  C   UNL     1      23.805  45.897  49.394  1.00  0.00     0.016 A 
HETATM   29  C   UNL     1      24.171  44.721  50.057  1.00  0.00     0.037 A 
HETATM   30  C   UNL     1      24.949  44.783  51.212  1.00  0.00     0.068 A 
HETATM   31  C   UNL     1      25.332  46.030  51.709  1.00  0.00     0.037 A 
HETATM   32  C   UNL     1      24.974  47.207  51.044  1.00  0.00     0.016 A 
BRANCH  30  33
HETATM   33  O   UNL     1      25.379  43.710  51.941  1.00  0.00    -0.351 OA
BRANCH  33  34
HETATM   34  C   UNL     1      26.786  43.457  51.931  1.00  0.00     0.175 C 
BRANCH  34  35
HETATM   35  C   UNL     1      27.221  43.147  53.360  1.00  0.00     0.022 C 
HETATM   36  C   UNL     1      27.701  44.392  54.084  1.00  0.00     0.007 C 
ENDBRANCH  34  35
ENDBRANCH  33  34
ENDBRANCH  30  33
ENDBRANCH   1  27
TORSDOF 7
ENDMDL
MODEL 6
REMARK VINA RESULT:      -6.7      4.900      7.973
REMARK  7 active torsions:
REMARK  status: ('A' for Active; 'I' for Inactive)
REMARK    1  A    between atoms: C_2  and  C_3 
REMARK    2  A    between atoms: C_3  and  O_4 
REMARK    3  A    between atoms: O_4  and  C_5 
REMARK    4  A    between atoms: C_8  and  C_9 
REMARK    5  A    between atoms: C_15  and  C_16 
REMARK    6  A    between atoms: C_19  and  N_20 
REMARK       I    between atoms: N_20  and  C_21 
REMARK    7  A    between atoms: C_29  and  N_30 
ROOT
HETATM    1  C   UNL     1      21.036  46.095  48.328  1.00  0.00     0.072 A 
HETATM    2  N   UNL     1      21.340  45.048  49.173  1.00  0.00    -0.274 N 
HETATM    3  H   UNL     1      21.372  45.064  50.188  1.00  0.00     0.189 HD
HETATM    4  N   UNL     1      21.667  43.900  48.538  1.00  0.00    -0.148 NA
HETATM    5  C   UNL     1      21.561  44.244  47.262  1.00  0.00     0.199 A 
HETATM    6  C   UNL     1      21.137  45.559  47.057  1.00  0.00     0.039 A 
HETATM    7  C   UNL     1      20.931  46.083  45.683  1.00  0.00     0.105 C 
HETATM    8  C   UNL     1      21.513  45.120  44.661  1.00  0.00     0.067 C 
HETATM    9  C   UNL     1      21.756  45.700  43.277  1.00  0.00     0.020 C 
HETATM   10  N   UNL     1      21.958  46.182  42.129  1.00  0.00    -0.096 N 
HETATM   11  C   UNL     1      21.940  43.869  44.971  1.00  0.00     0.139 C 
HETATM   12  O   UNL     1      21.871  43.370  46.283  1.00  0.00    -0.277 OA
ENDROOT
BRANCH   7  13
HETATM   13  C   UNL     1      19.427  46.275  45.544  1.00  0.00    -0.044 A 
HETATM   14  C   UNL     1      18.889  47.570  45.521  1.00  0.00     0.010 A 
HETATM   15  C   UNL     1      17.507  47.780  45.430  1.00  0.00     0.030 A 
HETATM   16  C   UNL     1      16.627  46.700  45.358  1.00  0.00     0.034 A 
HETATM   17  C   UNL     1      17.155  45.404  45.368  1.00  0.00     0.030 A 
HETATM   18  C   UNL     1      18.534  45.192  45.459  1.00  0.00     0.010 A 
BRANCH  16  19
HETATM   19  N   UNL     1      15.225  46.822  45.288  1.00  0.00    -0.328 N 
HETATM   20  C   UNL     1      14.443  46.916  44.151  1.00  0.00     0.218 C 
HETATM   21  C   UNL     1      12.980  47.063  44.485  1.00  0.00     0.117 C 
HETATM   22  O   UNL     1      14.821  46.874  42.986  1.00  0.00    -0.274 OA
HETATM   23  H   UNL     1      14.739  46.846  46.174  1.00  0.00     0.169 HD
ENDBRANCH  16  19
ENDBRANCH   7  13
BRANCH  11  24
HETATM   24  N   UNL     1      22.494  42.977  44.082  1.00  0.00    -0.282 NA
HETATM   25  H   UNL     1      23.229  43.343  43.482  1.00  0.00     0.126 HD
HETATM   26  H   UNL     1      21.785  42.449  43.576  1.00  0.00     0.126 HD
ENDBRANCH  11  24
BRANCH   1  27
HETATM   27  C   UNL     1      20.709  47.436  48.787  1.00  0.00    -0.007 A 
HETATM   28  C   UNL     1      19.422  47.719  49.263  1.00  0.00     0.016 A 
HETATM   29  C   UNL     1      19.101  48.990  49.754  1.00  0.00     0.037 A 
HETATM   30  C   UNL     1      20.066  49.995  49.771  1.00  0.00     0.068 A 
HETATM   31  C   UNL     1      21.341  49.726  49.270  1.00  0.00     0.037 A 
HETATM   32  C   UNL     1      21.666  48.454  48.785  1.00  0.00     0.016 A 
BRANCH  30  33
HETATM   33  O   UNL     1      19.881  51.268  50.234  1.00  0.00    -0.351 OA
BRANCH  33  34
HETATM   34  C   UNL     1      18.715  51.951  49.769  1.00  0.00     0.175 C 
BRANCH  34  35
HETATM   35  C   UNL     1      19.014  52.503  48.379  1.00  0.00     0.022 C 
HETATM   36  C   UNL     1      18.132  51.866  47.319  1.00  0.00     0.007 C 
ENDBRANCH  34  35
ENDBRANCH  33  34
ENDBRANCH  30  33
ENDBRANCH   1  27
TORSDOF 7
ENDMDL
MODEL 7
REMARK VINA RESULT:      -6.7      5.610      9.775
REMARK  7 active torsions:
REMARK  status: ('A' for Active; 'I' for Inactive)
REMARK    1  A    between atoms: C_2  and  C_3 
REMARK    2  A    between atoms: C_3  and  O_4 
REMARK    3  A    between atoms: O_4  and  C_5 
REMARK    4  A    between atoms: C_8  and  C_9 
REMARK    5  A    between atoms: C_15  and  C_16 
REMARK    6  A    between atoms: C_19  and  N_20 
REMARK       I    between atoms: N_20  and  C_21 
REMARK    7  A    between atoms: C_29  and  N_30 
ROOT
HETATM    1  C   UNL     1      17.372  51.588  47.899  1.00  0.00     0.072 A 
HETATM    2  N   UNL     1      16.633  51.797  49.045  1.00  0.00    -0.274 N 
HETATM    3  H   UNL     1      15.668  52.102  49.110  1.00  0.00     0.189 HD
HETATM    4  N   UNL     1      17.322  51.599  50.191  1.00  0.00    -0.148 NA
HETATM    5  C   UNL     1      18.523  51.256  49.744  1.00  0.00     0.199 A 
HETATM    6  C   UNL     1      18.615  51.186  48.352  1.00  0.00     0.039 A 
HETATM    7  C   UNL     1      19.884  50.777  47.697  1.00  0.00     0.105 C 
HETATM    8  C   UNL     1      21.017  50.762  48.710  1.00  0.00     0.067 C 
HETATM    9  C   UNL     1      22.420  50.780  48.124  1.00  0.00     0.020 C 
HETATM   10  N   UNL     1      23.584  50.795  47.638  1.00  0.00    -0.096 N 
HETATM   11  C   UNL     1      20.825  50.883  50.048  1.00  0.00     0.139 C 
HETATM   12  O   UNL     1      19.540  51.029  50.599  1.00  0.00    -0.277 OA
ENDROOT
BRANCH   7  13
HETATM   13  C   UNL     1      19.601  49.410  47.087  1.00  0.00    -0.044 A 
HETATM   14  C   UNL     1      19.973  48.248  47.780  1.00  0.00     0.010 A 
HETATM   15  C   UNL     1      19.758  46.977  47.231  1.00  0.00     0.030 A 
HETATM   16  C   UNL     1      19.166  46.836  45.976  1.00  0.00     0.034 A 
HETATM   17  C   UNL     1      18.781  47.989  45.283  1.00  0.00     0.030 A 
HETATM   18  C   UNL     1      18.993  49.258  45.829  1.00  0.00     0.010 A 
BRANCH  16  19
HETATM   19  N   UNL     1      18.936  45.598  45.343  1.00  0.00    -0.328 N 
HETATM   20  C   UNL     1      18.099  44.580  45.761  1.00  0.00     0.218 C 
HETATM   21  C   UNL     1      18.143  43.396  44.828  1.00  0.00     0.117 C 
HETATM   22  O   UNL     1      17.369  44.578  46.746  1.00  0.00    -0.274 OA
HETATM   23  H   UNL     1      19.447  45.439  44.485  1.00  0.00     0.169 HD
ENDBRANCH  16  19
ENDBRANCH   7  13
BRANCH  11  24
HETATM   24  N   UNL     1      21.824  50.899  50.994  1.00  0.00    -0.282 NA
HETATM   25  H   UNL     1      22.193  51.814  51.238  1.00  0.00     0.126 HD
HETATM   26  H   UNL     1      22.548  50.210  50.799  1.00  0.00     0.126 HD
ENDBRANCH  11  24
BRANCH   1  27
HETATM   27  C   UNL     1      16.853  51.793  46.555  1.00  0.00    -0.007 A 
HETATM   28  C   UNL     1      17.463  52.721  45.701  1.00  0.00     0.016 A 
HETATM   29  C   UNL     1      17.009  52.897  44.390  1.00  0.00     0.037 A 
HETATM   30  C   UNL     1      15.934  52.147  43.917  1.00  0.00     0.068 A 
HETATM   31  C   UNL     1      15.304  51.243  44.774  1.00  0.00     0.037 A 
HETATM   32  C   UNL     1      15.761  51.059  46.083  1.00  0.00     0.016 A 
BRANCH  30  33
HETATM   33  O   UNL     1      15.406  52.217  42.657  1.00  0.00    -0.351 OA
BRANCH  33  34
HETATM   34  C   UNL     1      16.103  51.501  41.635  1.00  0.00     0.175 C 
BRANCH  34  35
HETATM   35  C   UNL     1      16.858  52.515  40.780  1.00  0.00     0.022 C 
HETATM   36  C   UNL     1      18.359  52.417  40.985  1.00  0.00     0.007 C 
ENDBRANCH  34  35
ENDBRANCH  33  34
ENDBRANCH  30  33
ENDBRANCH   1  27
TORSDOF 7
ENDMDL
MODEL 8
REMARK VINA RESULT:      -6.4     20.378     23.956
REMARK  7 active torsions:
REMARK  status: ('A' for Active; 'I' for Inactive)
REMARK    1  A    between atoms: C_2  and  C_3 
REMARK    2  A    between atoms: C_3  and  O_4 
REMARK    3  A    between atoms: O_4  and  C_5 
REMARK    4  A    between atoms: C_8  and  C_9 
REMARK    5  A    between atoms: C_15  and  C_16 
REMARK    6  A    between atoms: C_19  and  N_20 
REMARK       I    between atoms: N_20  and  C_21 
REMARK    7  A    between atoms: C_29  and  N_30 
ROOT
HETATM    1  C   UNL     1      37.218  47.024  65.090  1.00  0.00     0.072 A 
HETATM    2  N   UNL     1      37.099  46.584  63.788  1.00  0.00    -0.274 N 
HETATM    3  H   UNL     1      37.387  47.068  62.944  1.00  0.00     0.189 HD
HETATM    4  N   UNL     1      36.488  45.384  63.662  1.00  0.00    -0.148 NA
HETATM    5  C   UNL     1      36.221  45.070  64.923  1.00  0.00     0.199 A 
HETATM    6  C   UNL     1      36.678  46.005  65.854  1.00  0.00     0.039 A 
HETATM    7  C   UNL     1      36.492  45.778  67.310  1.00  0.00     0.105 C 
HETATM    8  C   UNL     1      35.535  44.619  67.543  1.00  0.00     0.067 C 
HETATM    9  C   UNL     1      34.926  44.541  68.934  1.00  0.00     0.020 C 
HETATM   10  N   UNL     1      34.421  44.476  70.087  1.00  0.00    -0.096 N 
HETATM   11  C   UNL     1      35.114  43.789  66.555  1.00  0.00     0.139 C 
HETATM   12  O   UNL     1      35.543  43.945  65.226  1.00  0.00    -0.277 OA
ENDROOT
BRANCH   7  13
HETATM   13  C   UNL     1      37.889  45.528  67.862  1.00  0.00    -0.044 A 
HETATM   14  C   UNL     1      38.506  44.285  67.658  1.00  0.00     0.010 A 
HETATM   15  C   UNL     1      39.776  44.011  68.182  1.00  0.00     0.030 A 
HETATM   16  C   UNL     1      40.461  44.974  68.923  1.00  0.00     0.034 A 
HETATM   17  C   UNL     1      39.858  46.221  69.123  1.00  0.00     0.030 A 
HETATM   18  C   UNL     1      38.591  46.496  68.599  1.00  0.00     0.010 A 
BRANCH  16  19
HETATM   19  N   UNL     1      41.730  44.772  69.504  1.00  0.00    -0.328 N 
HETATM   20  C   UNL     1      42.010  44.304  70.775  1.00  0.00     0.218 C 
HETATM   21  C   UNL     1      43.494  44.252  71.040  1.00  0.00     0.117 C 
HETATM   22  O   UNL     1      41.205  43.939  71.625  1.00  0.00    -0.274 OA
HETATM   23  H   UNL     1      42.523  45.001  68.921  1.00  0.00     0.169 HD
ENDBRANCH  16  19
ENDBRANCH   7  13
BRANCH  11  24
HETATM   24  N   UNL     1      34.231  42.746  66.719  1.00  0.00    -0.282 NA
HETATM   25  H   UNL     1      34.535  41.998  67.337  1.00  0.00     0.126 HD
HETATM   26  H   UNL     1      33.863  42.411  65.830  1.00  0.00     0.126 HD
ENDBRANCH  11  24
BRANCH   1  27
HETATM   27  C   UNL     1      37.793  48.308  65.460  1.00  0.00    -0.007 A 
HETATM   28  C   UNL     1      39.013  48.716  64.904  1.00  0.00     0.016 A 
HETATM   29  C   UNL     1      39.558  49.967  65.211  1.00  0.00     0.037 A 
HETATM   30  C   UNL     1      38.889  50.827  66.081  1.00  0.00     0.068 A 
HETATM   31  C   UNL     1      37.689  50.411  66.660  1.00  0.00     0.037 A 
HETATM   32  C   UNL     1      37.138  49.164  66.350  1.00  0.00     0.016 A 
BRANCH  30  33
HETATM   33  O   UNL     1      39.310  52.075  66.448  1.00  0.00    -0.351 OA
BRANCH  33  34
HETATM   34  C   UNL     1      38.400  52.846  67.236  1.00  0.00     0.175 C 
BRANCH  34  35
HETATM   35  C   UNL     1      37.901  54.006  66.378  1.00  0.00     0.022 C 
HETATM   36  C   UNL     1      37.063  54.981  67.185  1.00  0.00     0.007 C 
ENDBRANCH  34  35
ENDBRANCH  33  34
ENDBRANCH  30  33
ENDBRANCH   1  27
TORSDOF 7
ENDMDL
MODEL 9
REMARK VINA RESULT:      -6.3      2.048      2.316
REMARK  7 active torsions:
REMARK  status: ('A' for Active; 'I' for Inactive)
REMARK    1  A    between atoms: C_2  and  C_3 
REMARK    2  A    between atoms: C_3  and  O_4 
REMARK    3  A    between atoms: O_4  and  C_5 
REMARK    4  A    between atoms: C_8  and  C_9 
REMARK    5  A    between atoms: C_15  and  C_16 
REMARK    6  A    between atoms: C_19  and  N_20 
REMARK       I    between atoms: N_20  and  C_21 
REMARK    7  A    between atoms: C_29  and  N_30 
ROOT
HETATM    1  C   UNL     1      24.252  46.717  49.481  1.00  0.00     0.072 A 
HETATM    2  N   UNL     1      24.838  47.966  49.457  1.00  0.00    -0.274 N 
HETATM    3  H   UNL     1      25.749  48.227  49.819  1.00  0.00     0.189 HD
HETATM    4  N   UNL     1      24.061  48.932  48.918  1.00  0.00    -0.148 NA
HETATM    5  C   UNL     1      22.961  48.264  48.597  1.00  0.00     0.199 A 
HETATM    6  C   UNL     1      23.023  46.895  48.872  1.00  0.00     0.039 A 
HETATM    7  C   UNL     1      21.886  46.002  48.532  1.00  0.00     0.105 C 
HETATM    8  C   UNL     1      20.663  46.826  48.165  1.00  0.00     0.067 C 
HETATM    9  C   UNL     1      19.336  46.085  48.208  1.00  0.00     0.020 C 
HETATM   10  N   UNL     1      18.236  45.470  48.244  1.00  0.00    -0.096 N 
HETATM   11  C   UNL     1      20.699  48.168  47.961  1.00  0.00     0.139 C 
HETATM   12  O   UNL     1      21.894  48.899  48.075  1.00  0.00    -0.277 OA
ENDROOT
BRANCH   7  13
HETATM   13  C   UNL     1      22.387  45.125  47.393  1.00  0.00    -0.044 A 
HETATM   14  C   UNL     1      22.231  45.550  46.065  1.00  0.00     0.010 A 
HETATM   15  C   UNL     1      22.650  44.751  44.994  1.00  0.00     0.030 A 
HETATM   16  C   UNL     1      23.237  43.506  45.223  1.00  0.00     0.034 A 
HETATM   17  C   UNL     1      23.407  43.079  46.544  1.00  0.00     0.030 A 
HETATM   18  C   UNL     1      22.991  43.875  47.615  1.00  0.00     0.010 A 
BRANCH  16  19
HETATM   19  N   UNL     1      23.664  42.632  44.203  1.00  0.00    -0.328 N 
HETATM   20  C   UNL     1      22.886  41.772  43.449  1.00  0.00     0.218 C 
HETATM   21  C   UNL     1      23.714  40.976  42.472  1.00  0.00     0.117 C 
HETATM   22  O   UNL     1      21.669  41.636  43.500  1.00  0.00    -0.274 OA
HETATM   23  H   UNL     1      24.656  42.635  44.006  1.00  0.00     0.169 HD
ENDBRANCH  16  19
ENDBRANCH   7  13
BRANCH  11  24
HETATM   24  N   UNL     1      19.612  48.952  47.651  1.00  0.00    -0.282 NA
HETATM   25  H   UNL     1      18.778  48.459  47.345  1.00  0.00     0.126 HD
HETATM   26  H   UNL     1      19.862  49.735  47.050  1.00  0.00     0.126 HD
ENDBRANCH  11  24
BRANCH   1  27
HETATM   27  C   UNL     1      24.881  45.541  50.062  1.00  0.00    -0.007 A 
HETATM   28  C   UNL     1      24.336  44.948  51.209  1.00  0.00     0.016 A 
HETATM   29  C   UNL     1      24.899  43.789  51.754  1.00  0.00     0.037 A 
HETATM   30  C   UNL     1      26.017  43.209  51.158  1.00  0.00     0.068 A 
HETATM   31  C   UNL     1      26.580  43.813  50.032  1.00  0.00     0.037 A 
HETATM   32  C   UNL     1      26.016  44.968  49.481  1.00  0.00     0.016 A 
BRANCH  30  33
HETATM   33  O   UNL     1      26.649  42.074  51.585  1.00  0.00    -0.351 OA
BRANCH  33  34
HETATM   34  C   UNL     1      28.001  41.899  51.156  1.00  0.00     0.175 C 
BRANCH  34  35
HETATM   35  C   UNL     1      28.903  42.009  52.382  1.00  0.00     0.022 C 
HETATM   36  C   UNL     1      28.407  41.140  53.524  1.00  0.00     0.007 C 
ENDBRANCH  34  35
ENDBRANCH  33  34
ENDBRANCH  30  33
ENDBRANCH   1  27
TORSDOF 7
ENDMDL
MODEL 10
REMARK VINA RESULT:      -6.3     21.776     23.907
REMARK  7 active torsions:
REMARK  status: ('A' for Active; 'I' for Inactive)
REMARK    1  A    between atoms: C_2  and  C_3 
REMARK    2  A    between atoms: C_3  and  O_4 
REMARK    3  A    between atoms: O_4  and  C_5 
REMARK    4  A    between atoms: C_8  and  C_9 
REMARK    5  A    between atoms: C_15  and  C_16 
REMARK    6  A    between atoms: C_19  and  N_20 
REMARK       I    between atoms: N_20  and  C_21 
REMARK    7  A    between atoms: C_29  and  N_30 
ROOT
HETATM    1  C   UNL     1      38.077  45.310  65.286  1.00  0.00     0.072 A 
HETATM    2  N   UNL     1      37.732  44.715  64.090  1.00  0.00    -0.274 N 
HETATM    3  H   UNL     1      36.818  44.371  63.814  1.00  0.00     0.189 HD
HETATM    4  N   UNL     1      38.764  44.555  63.232  1.00  0.00    -0.148 NA
HETATM    5  C   UNL     1      39.780  45.067  63.915  1.00  0.00     0.199 A 
HETATM    6  C   UNL     1      39.426  45.588  65.162  1.00  0.00     0.039 A 
HETATM    7  C   UNL     1      40.445  46.233  66.029  1.00  0.00     0.105 C 
HETATM    8  C   UNL     1      41.841  45.958  65.494  1.00  0.00     0.067 C 
HETATM    9  C   UNL     1      42.977  46.182  66.480  1.00  0.00     0.020 C 
HETATM   10  N   UNL     1      43.918  46.367  67.298  1.00  0.00    -0.096 N 
HETATM   11  C   UNL     1      42.079  45.403  64.278  1.00  0.00     0.139 C 
HETATM   12  O   UNL     1      41.031  45.041  63.415  1.00  0.00    -0.277 OA
ENDROOT
BRANCH   7  13
HETATM   13  C   UNL     1      40.084  47.712  66.046  1.00  0.00    -0.044 A 
HETATM   14  C   UNL     1      39.937  48.380  67.271  1.00  0.00     0.010 A 
HETATM   15  C   UNL     1      39.573  49.732  67.321  1.00  0.00     0.030 A 
HETATM   16  C   UNL     1      39.345  50.450  66.147  1.00  0.00     0.034 A 
HETATM   17  C   UNL     1      39.501  49.796  64.920  1.00  0.00     0.030 A 
HETATM   18  C   UNL     1      39.866  48.447  64.868  1.00  0.00     0.010 A 
BRANCH  16  19
HETATM   19  N   UNL     1      38.954  51.803  66.109  1.00  0.00    -0.328 N 
HETATM   20  C   UNL     1      37.917  52.400  66.802  1.00  0.00     0.218 C 
HETATM   21  C   UNL     1      37.793  53.868  66.476  1.00  0.00     0.117 C 
HETATM   22  O   UNL     1      37.164  51.870  67.611  1.00  0.00    -0.274 OA
HETATM   23  H   UNL     1      39.495  52.403  65.501  1.00  0.00     0.169 HD
ENDBRANCH  16  19
ENDBRANCH   7  13
BRANCH  11  24
HETATM   24  N   UNL     1      43.324  45.117  63.768  1.00  0.00    -0.282 NA
HETATM   25  H   UNL     1      44.042  44.881  64.448  1.00  0.00     0.126 HD
HETATM   26  H   UNL     1      43.627  45.809  63.084  1.00  0.00     0.126 HD
ENDBRANCH  11  24
BRANCH   1  27
HETATM   27  C   UNL     1      37.141  45.534  66.377  1.00  0.00    -0.007 A 
HETATM   28  C   UNL     1      36.912  44.526  67.323  1.00  0.00     0.016 A 
HETATM   29  C   UNL     1      36.052  44.740  68.405  1.00  0.00     0.037 A 
HETATM   30  C   UNL     1      35.408  45.967  68.554  1.00  0.00     0.068 A 
HETATM   31  C   UNL     1      35.611  46.963  67.598  1.00  0.00     0.037 A 
HETATM   32  C   UNL     1      36.475  46.755  66.518  1.00  0.00     0.016 A 
BRANCH  30  33
HETATM   33  O   UNL     1      34.558  46.302  69.571  1.00  0.00    -0.351 OA
BRANCH  33  34
HETATM   34  C   UNL     1      35.064  47.213  70.549  1.00  0.00     0.175 C 
BRANCH  34  35
HETATM   35  C   UNL     1      33.874  47.866  71.246  1.00  0.00     0.022 C 
HETATM   36  C   UNL     1      32.620  47.807  70.391  1.00  0.00     0.007 C 
ENDBRANCH  34  35
ENDBRANCH  33  34
ENDBRANCH  30  33
ENDBRANCH   1  27
TORSDOF 7
ENDMDL
