MODEL 1
REMARK VINA RESULT:      -9.5      0.000      0.000
REMARK  6 active torsions:
REMARK  status: ('A' for Active; 'I' for Inactive)
REMARK    1  A    between atoms: O_2  and  C_3 
REMARK    2  A    between atoms: C_6  and  C_7 
REMARK    3  A    between atoms: C_12  and  C_13 
REMARK       I    between atoms: C_13  and  N_14 
REMARK    4  A    between atoms: N_14  and  C_15 
REMARK    5  A    between atoms: C_17  and  O_18 
REMARK    6  A    between atoms: C_24  and  C_25 
ROOT
HETATM    1  C   UNL     1      27.313  43.749  52.054  1.00  0.00     0.118 C 
HETATM    2  N   UNL     1      27.459  44.909  51.176  1.00  0.00    -0.366 N 
HETATM    3  C   UNL     1      26.402  45.607  50.714  1.00  0.00     0.123 A 
HETATM    4  N   UNL     1      25.127  45.140  50.858  1.00  0.00    -0.240 N 
HETATM    5  N   UNL     1      24.176  46.013  50.482  1.00  0.00    -0.165 NA
HETATM    6  C   UNL     1      24.890  47.052  49.983  1.00  0.00     0.148 A 
HETATM    7  C   UNL     1      26.289  46.816  50.084  1.00  0.00     0.089 A 
HETATM    8  C   UNL     1      24.817  43.882  51.510  1.00  0.00     0.221 C 
HETATM    9  C   UNL     1      25.872  43.611  52.592  1.00  0.00     0.066 C 
HETATM   10  H   UNL     1      28.412  45.255  51.063  1.00  0.00     0.161 HD
ENDROOT
BRANCH   6  11
HETATM   11  C   UNL     1      24.244  48.272  49.464  1.00  0.00     0.276 C 
HETATM   12  N   UNL     1      22.871  48.136  49.395  1.00  0.00    -0.322 N 
HETATM   13  H   UNL     1      22.543  47.215  49.677  1.00  0.00     0.169 HD
HETATM   14  O   UNL     1      24.899  49.265  49.167  1.00  0.00    -0.266 OA
BRANCH  12  15
HETATM   15  C   UNL     1      21.916  49.099  49.028  1.00  0.00     0.037 A 
HETATM   16  C   UNL     1      21.127  49.012  47.879  1.00  0.00     0.066 A 
HETATM   17  C   UNL     1      20.216  50.026  47.586  1.00  0.00     0.067 A 
HETATM   18  C   UNL     1      20.075  51.127  48.420  1.00  0.00     0.036 A 
HETATM   19  C   UNL     1      20.857  51.221  49.568  1.00  0.00     0.005 A 
HETATM   20  C   UNL     1      21.774  50.210  49.871  1.00  0.00     0.029 A 
BRANCH  17  21
HETATM   21  O   UNL     1      19.434  49.972  46.468  1.00  0.00    -0.361 OA
HETATM   22  H   UNL     1      18.502  50.001  46.746  1.00  0.00     0.217 HD
ENDBRANCH  17  21
ENDBRANCH  12  15
ENDBRANCH   6  11
BRANCH   8  23
HETATM   23  C   UNL     1      24.729  42.774  50.486  1.00  0.00     0.409 C 
HETATM   24  F   UNL     1      25.258  43.130  49.296  1.00  0.00    -0.169 F 
HETATM   25  F   UNL     1      25.322  41.628  50.877  1.00  0.00    -0.169 F 
HETATM   26  F   UNL     1      23.423  42.474  50.252  1.00  0.00    -0.169 F 
ENDBRANCH   8  23
BRANCH   1  27
HETATM   27  C   UNL     1      28.306  43.877  53.197  1.00  0.00    -0.035 A 
HETATM   28  C   UNL     1      29.416  43.019  53.291  1.00  0.00     0.012 A 
HETATM   29  C   UNL     1      30.340  43.142  54.332  1.00  0.00     0.037 A 
HETATM   30  C   UNL     1      30.169  44.126  55.304  1.00  0.00     0.068 A 
HETATM   31  C   UNL     1      29.057  44.967  55.233  1.00  0.00     0.037 A 
HETATM   32  C   UNL     1      28.133  44.850  54.189  1.00  0.00     0.012 A 
BRANCH  30  33
HETATM   33  O   UNL     1      31.000  44.355  56.366  1.00  0.00    -0.356 OA
HETATM   34  C   UNL     1      31.508  43.206  57.035  1.00  0.00     0.210 C 
ENDBRANCH  30  33
ENDBRANCH   1  27
TORSDOF 6
ENDMDL
MODEL 2
REMARK VINA RESULT:      -9.3      1.567      2.052
REMARK  6 active torsions:
REMARK  status: ('A' for Active; 'I' for Inactive)
REMARK    1  A    between atoms: O_2  and  C_3 
REMARK    2  A    between atoms: C_6  and  C_7 
REMARK    3  A    between atoms: C_12  and  C_13 
REMARK       I    between atoms: C_13  and  N_14 
REMARK    4  A    between atoms: N_14  and  C_15 
REMARK    5  A    between atoms: C_17  and  O_18 
REMARK    6  A    between atoms: C_24  and  C_25 
ROOT
HETATM    1  C   UNL     1      28.110  43.169  51.794  1.00  0.00     0.118 C 
HETATM    2  N   UNL     1      27.819  44.393  51.049  1.00  0.00    -0.366 N 
HETATM    3  C   UNL     1      26.620  44.628  50.479  1.00  0.00     0.123 A 
HETATM    4  N   UNL     1      25.680  43.643  50.375  1.00  0.00    -0.240 N 
HETATM    5  N   UNL     1      24.487  44.066  49.920  1.00  0.00    -0.165 NA
HETATM    6  C   UNL     1      24.713  45.371  49.631  1.00  0.00     0.148 A 
HETATM    7  C   UNL     1      26.050  45.748  49.938  1.00  0.00     0.089 A 
HETATM    8  C   UNL     1      25.894  42.294  50.863  1.00  0.00     0.221 C 
HETATM    9  C   UNL     1      26.832  42.349  52.077  1.00  0.00     0.066 C 
HETATM   10  H   UNL     1      28.524  45.127  51.121  1.00  0.00     0.161 HD
ENDROOT
BRANCH   6  11
HETATM   11  C   UNL     1      23.652  46.256  49.114  1.00  0.00     0.276 C 
HETATM   12  N   UNL     1      23.834  47.564  49.518  1.00  0.00    -0.322 N 
HETATM   13  H   UNL     1      24.639  47.689  50.127  1.00  0.00     0.169 HD
HETATM   14  O   UNL     1      22.755  45.827  48.396  1.00  0.00    -0.266 OA
BRANCH  12  15
HETATM   15  C   UNL     1      23.082  48.699  49.167  1.00  0.00     0.037 A 
HETATM   16  C   UNL     1      21.686  48.741  49.186  1.00  0.00     0.066 A 
HETATM   17  C   UNL     1      21.024  49.907  48.803  1.00  0.00     0.067 A 
HETATM   18  C   UNL     1      21.729  51.035  48.404  1.00  0.00     0.036 A 
HETATM   19  C   UNL     1      23.121  51.001  48.385  1.00  0.00     0.005 A 
HETATM   20  C   UNL     1      23.794  49.837  48.765  1.00  0.00     0.029 A 
BRANCH  17  21
HETATM   21  O   UNL     1      19.661  49.979  48.806  1.00  0.00    -0.361 OA
HETATM   22  H   UNL     1      19.352  49.988  47.884  1.00  0.00     0.217 HD
ENDBRANCH  17  21
ENDBRANCH  12  15
ENDBRANCH   6  11
BRANCH   8  23
HETATM   23  C   UNL     1      26.423  41.416  49.752  1.00  0.00     0.409 C 
HETATM   24  F   UNL     1      25.437  40.758  49.104  1.00  0.00    -0.169 F 
HETATM   25  F   UNL     1      27.149  42.084  48.833  1.00  0.00    -0.169 F 
HETATM   26  F   UNL     1      27.241  40.465  50.275  1.00  0.00    -0.169 F 
ENDBRANCH   8  23
BRANCH   1  27
HETATM   27  C   UNL     1      28.808  43.545  53.090  1.00  0.00    -0.035 A 
HETATM   28  C   UNL     1      28.325  44.594  53.894  1.00  0.00     0.012 A 
HETATM   29  C   UNL     1      28.954  44.933  55.095  1.00  0.00     0.037 A 
HETATM   30  C   UNL     1      30.082  44.231  55.515  1.00  0.00     0.068 A 
HETATM   31  C   UNL     1      30.583  43.204  54.712  1.00  0.00     0.037 A 
HETATM   32  C   UNL     1      29.953  42.858  53.512  1.00  0.00     0.012 A 
BRANCH  30  33
HETATM   33  O   UNL     1      30.784  44.458  56.666  1.00  0.00    -0.356 OA
HETATM   34  C   UNL     1      31.619  43.400  57.123  1.00  0.00     0.210 C 
ENDBRANCH  30  33
ENDBRANCH   1  27
TORSDOF 6
ENDMDL
MODEL 3
REMARK VINA RESULT:      -9.2      1.568      1.962
REMARK  6 active torsions:
REMARK  status: ('A' for Active; 'I' for Inactive)
REMARK    1  A    between atoms: O_2  and  C_3 
REMARK    2  A    between atoms: C_6  and  C_7 
REMARK    3  A    between atoms: C_12  and  C_13 
REMARK       I    between atoms: C_13  and  N_14 
REMARK    4  A    between atoms: N_14  and  C_15 
REMARK    5  A    between atoms: C_17  and  O_18 
REMARK    6  A    between atoms: C_24  and  C_25 
ROOT
HETATM    1  C   UNL     1      26.616  44.433  51.790  1.00  0.00     0.118 C 
HETATM    2  N   UNL     1      26.447  45.603  50.930  1.00  0.00    -0.366 N 
HETATM    3  C   UNL     1      25.303  45.854  50.262  1.00  0.00     0.123 A 
HETATM    4  N   UNL     1      24.315  44.916  50.175  1.00  0.00    -0.240 N 
HETATM    5  N   UNL     1      23.180  45.364  49.606  1.00  0.00    -0.165 NA
HETATM    6  C   UNL     1      23.503  46.625  49.227  1.00  0.00     0.148 A 
HETATM    7  C   UNL     1      24.838  46.953  49.594  1.00  0.00     0.089 A 
HETATM    8  C   UNL     1      24.415  43.605  50.784  1.00  0.00     0.221 C 
HETATM    9  C   UNL     1      25.276  43.711  52.052  1.00  0.00     0.066 C 
HETATM   10  H   UNL     1      27.189  46.300  50.989  1.00  0.00     0.161 HD
ENDROOT
BRANCH   6  11
HETATM   11  C   UNL     1      22.533  47.520  48.569  1.00  0.00     0.276 C 
HETATM   12  N   UNL     1      21.878  48.326  49.479  1.00  0.00    -0.322 N 
HETATM   13  H   UNL     1      22.146  48.144  50.443  1.00  0.00     0.169 HD
HETATM   14  O   UNL     1      22.386  47.518  47.351  1.00  0.00    -0.266 OA
BRANCH  12  15
HETATM   15  C   UNL     1      20.949  49.351  49.229  1.00  0.00     0.037 A 
HETATM   16  C   UNL     1      19.568  49.199  49.374  1.00  0.00     0.066 A 
HETATM   17  C   UNL     1      18.720  50.267  49.084  1.00  0.00     0.067 A 
HETATM   18  C   UNL     1      19.224  51.487  48.655  1.00  0.00     0.036 A 
HETATM   19  C   UNL     1      20.600  51.647  48.509  1.00  0.00     0.005 A 
HETATM   20  C   UNL     1      21.459  50.582  48.795  1.00  0.00     0.029 A 
BRANCH  17  21
HETATM   21  O   UNL     1      17.366  50.149  49.212  1.00  0.00    -0.361 OA
HETATM   22  H   UNL     1      17.147  49.205  49.284  1.00  0.00     0.217 HD
ENDBRANCH  17  21
ENDBRANCH  12  15
ENDBRANCH   6  11
BRANCH   8  23
HETATM   23  C   UNL     1      24.959  42.607  49.788  1.00  0.00     0.409 C 
HETATM   24  F   UNL     1      25.696  43.197  48.821  1.00  0.00    -0.169 F 
HETATM   25  F   UNL     1      25.711  41.638  50.349  1.00  0.00    -0.169 F 
HETATM   26  F   UNL     1      23.928  41.983  49.159  1.00  0.00    -0.169 F 
ENDBRANCH   8  23
BRANCH   1  27
HETATM   27  C   UNL     1      27.252  44.879  53.097  1.00  0.00    -0.035 A 
HETATM   28  C   UNL     1      26.803  46.035  53.761  1.00  0.00     0.012 A 
HETATM   29  C   UNL     1      27.374  46.441  54.971  1.00  0.00     0.037 A 
HETATM   30  C   UNL     1      28.409  45.699  55.538  1.00  0.00     0.068 A 
HETATM   31  C   UNL     1      28.877  44.564  54.873  1.00  0.00     0.037 A 
HETATM   32  C   UNL     1      28.304  44.152  53.665  1.00  0.00     0.012 A 
BRANCH  30  33
HETATM   33  O   UNL     1      29.046  45.984  56.714  1.00  0.00    -0.356 OA
HETATM   34  C   UNL     1      30.403  45.569  56.820  1.00  0.00     0.210 C 
ENDBRANCH  30  33
ENDBRANCH   1  27
TORSDOF 6
ENDMDL
MODEL 4
REMARK VINA RESULT:      -9.1      3.089      3.916
REMARK  6 active torsions:
REMARK  status: ('A' for Active; 'I' for Inactive)
REMARK    1  A    between atoms: O_2  and  C_3 
REMARK    2  A    between atoms: C_6  and  C_7 
REMARK    3  A    between atoms: C_12  and  C_13 
REMARK       I    between atoms: C_13  and  N_14 
REMARK    4  A    between atoms: N_14  and  C_15 
REMARK    5  A    between atoms: C_17  and  O_18 
REMARK    6  A    between atoms: C_24  and  C_25 
ROOT
HETATM    1  C   UNL     1      26.501  43.370  52.506  1.00  0.00     0.118 C 
HETATM    2  N   UNL     1      25.373  43.800  51.681  1.00  0.00    -0.366 N 
HETATM    3  C   UNL     1      25.137  45.095  51.392  1.00  0.00     0.123 A 
HETATM    4  N   UNL     1      25.807  46.098  52.033  1.00  0.00    -0.240 N 
HETATM    5  N   UNL     1      25.571  47.324  51.533  1.00  0.00    -0.165 NA
HETATM    6  C   UNL     1      24.627  47.096  50.588  1.00  0.00     0.148 A 
HETATM    7  C   UNL     1      24.308  45.712  50.496  1.00  0.00     0.089 A 
HETATM    8  C   UNL     1      26.808  45.851  53.052  1.00  0.00     0.221 C 
HETATM    9  C   UNL     1      27.507  44.518  52.748  1.00  0.00     0.066 C 
HETATM   10  H   UNL     1      24.867  43.051  51.208  1.00  0.00     0.161 HD
ENDROOT
BRANCH   6  11
HETATM   11  C   UNL     1      24.075  48.178  49.751  1.00  0.00     0.276 C 
HETATM   12  N   UNL     1      22.700  48.096  49.649  1.00  0.00    -0.322 N 
HETATM   13  H   UNL     1      22.308  47.292  50.133  1.00  0.00     0.169 HD
HETATM   14  O   UNL     1      24.798  49.032  49.251  1.00  0.00    -0.266 OA
BRANCH  12  15
HETATM   15  C   UNL     1      21.818  48.982  49.008  1.00  0.00     0.037 A 
HETATM   16  C   UNL     1      20.946  48.605  47.984  1.00  0.00     0.066 A 
HETATM   17  C   UNL     1      20.118  49.559  47.393  1.00  0.00     0.067 A 
HETATM   18  C   UNL     1      20.141  50.884  47.807  1.00  0.00     0.036 A 
HETATM   19  C   UNL     1      21.006  51.267  48.829  1.00  0.00     0.005 A 
HETATM   20  C   UNL     1      21.841  50.320  49.427  1.00  0.00     0.029 A 
BRANCH  17  21
HETATM   21  O   UNL     1      19.258  49.223  46.387  1.00  0.00    -0.361 OA
HETATM   22  H   UNL     1      18.690  48.498  46.700  1.00  0.00     0.217 HD
ENDBRANCH  17  21
ENDBRANCH  12  15
ENDBRANCH   6  11
BRANCH   8  23
HETATM   23  C   UNL     1      26.174  45.881  54.423  1.00  0.00     0.409 C 
HETATM   24  F   UNL     1      26.030  47.139  54.895  1.00  0.00    -0.169 F 
HETATM   25  F   UNL     1      24.968  45.278  54.476  1.00  0.00    -0.169 F 
HETATM   26  F   UNL     1      26.972  45.228  55.309  1.00  0.00    -0.169 F 
ENDBRANCH   8  23
BRANCH   1  27
HETATM   27  C   UNL     1      27.180  42.194  51.824  1.00  0.00    -0.035 A 
HETATM   28  C   UNL     1      28.163  41.441  52.492  1.00  0.00     0.012 A 
HETATM   29  C   UNL     1      28.780  40.348  51.876  1.00  0.00     0.037 A 
HETATM   30  C   UNL     1      28.427  39.990  50.576  1.00  0.00     0.068 A 
HETATM   31  C   UNL     1      27.470  40.746  49.897  1.00  0.00     0.037 A 
HETATM   32  C   UNL     1      26.847  41.837  50.512  1.00  0.00     0.012 A 
BRANCH  30  33
HETATM   33  O   UNL     1      28.948  38.944  49.866  1.00  0.00    -0.356 OA
HETATM   34  C   UNL     1      29.831  38.075  50.567  1.00  0.00     0.210 C 
ENDBRANCH  30  33
ENDBRANCH   1  27
TORSDOF 6
ENDMDL
MODEL 5
REMARK VINA RESULT:      -9.0      5.026      7.363
REMARK  6 active torsions:
REMARK  status: ('A' for Active; 'I' for Inactive)
REMARK    1  A    between atoms: O_2  and  C_3 
REMARK    2  A    between atoms: C_6  and  C_7 
REMARK    3  A    between atoms: C_12  and  C_13 
REMARK       I    between atoms: C_13  and  N_14 
REMARK    4  A    between atoms: N_14  and  C_15 
REMARK    5  A    between atoms: C_17  and  O_18 
REMARK    6  A    between atoms: C_24  and  C_25 
ROOT
HETATM    1  C   UNL     1      27.162  43.512  52.982  1.00  0.00     0.118 C 
HETATM    2  N   UNL     1      27.363  42.168  52.443  1.00  0.00    -0.366 N 
HETATM    3  C   UNL     1      27.278  41.894  51.126  1.00  0.00     0.123 A 
HETATM    4  N   UNL     1      26.782  42.810  50.243  1.00  0.00    -0.240 N 
HETATM    5  N   UNL     1      26.899  42.448  48.952  1.00  0.00    -0.165 NA
HETATM    6  C   UNL     1      27.409  41.195  49.028  1.00  0.00     0.148 A 
HETATM    7  C   UNL     1      27.628  40.804  50.378  1.00  0.00     0.089 A 
HETATM    8  C   UNL     1      26.320  44.124  50.645  1.00  0.00     0.221 C 
HETATM    9  C   UNL     1      27.129  44.581  51.868  1.00  0.00     0.066 C 
HETATM   10  H   UNL     1      27.727  41.482  53.104  1.00  0.00     0.161 HD
ENDROOT
BRANCH   6  11
HETATM   11  C   UNL     1      27.727  40.403  47.825  1.00  0.00     0.276 C 
HETATM   12  N   UNL     1      27.352  41.055  46.667  1.00  0.00    -0.322 N 
HETATM   13  H   UNL     1      26.892  41.945  46.838  1.00  0.00     0.169 HD
HETATM   14  O   UNL     1      28.280  39.311  47.907  1.00  0.00    -0.266 OA
BRANCH  12  15
HETATM   15  C   UNL     1      27.559  40.657  45.335  1.00  0.00     0.037 A 
HETATM   16  C   UNL     1      28.654  41.058  44.567  1.00  0.00     0.066 A 
HETATM   17  C   UNL     1      28.768  40.627  43.245  1.00  0.00     0.067 A 
HETATM   18  C   UNL     1      27.809  39.801  42.675  1.00  0.00     0.036 A 
HETATM   19  C   UNL     1      26.715  39.396  43.435  1.00  0.00     0.005 A 
HETATM   20  C   UNL     1      26.590  39.823  44.760  1.00  0.00     0.029 A 
BRANCH  17  21
HETATM   21  O   UNL     1      29.824  41.005  42.467  1.00  0.00    -0.361 OA
HETATM   22  H   UNL     1      30.464  41.477  43.028  1.00  0.00     0.217 HD
ENDBRANCH  17  21
ENDBRANCH  12  15
ENDBRANCH   6  11
BRANCH   8  23
HETATM   23  C   UNL     1      24.832  44.096  50.905  1.00  0.00     0.409 C 
HETATM   24  F   UNL     1      24.391  42.863  51.238  1.00  0.00    -0.169 F 
HETATM   25  F   UNL     1      24.434  44.952  51.868  1.00  0.00    -0.169 F 
HETATM   26  F   UNL     1      24.166  44.450  49.774  1.00  0.00    -0.169 F 
ENDBRANCH   8  23
BRANCH   1  27
HETATM   27  C   UNL     1      28.271  43.807  53.979  1.00  0.00    -0.035 A 
HETATM   28  C   UNL     1      28.251  44.978  54.758  1.00  0.00     0.012 A 
HETATM   29  C   UNL     1      29.260  45.246  55.687  1.00  0.00     0.037 A 
HETATM   30  C   UNL     1      30.313  44.348  55.852  1.00  0.00     0.068 A 
HETATM   31  C   UNL     1      30.354  43.195  55.066  1.00  0.00     0.037 A 
HETATM   32  C   UNL     1      29.343  42.920  54.139  1.00  0.00     0.012 A 
BRANCH  30  33
HETATM   33  O   UNL     1      31.355  44.489  56.727  1.00  0.00    -0.356 OA
HETATM   34  C   UNL     1      31.938  43.289  57.220  1.00  0.00     0.210 C 
ENDBRANCH  30  33
ENDBRANCH   1  27
TORSDOF 6
ENDMDL
MODEL 6
REMARK VINA RESULT:      -8.9      2.594      3.381
REMARK  6 active torsions:
REMARK  status: ('A' for Active; 'I' for Inactive)
REMARK    1  A    between atoms: O_2  and  C_3 
REMARK    2  A    between atoms: C_6  and  C_7 
REMARK    3  A    between atoms: C_12  and  C_13 
REMARK       I    between atoms: C_13  and  N_14 
REMARK    4  A    between atoms: N_14  and  C_15 
REMARK    5  A    between atoms: C_17  and  O_18 
REMARK    6  A    between atoms: C_24  and  C_25 
ROOT
HETATM    1  C   UNL     1      28.863  42.822  52.651  1.00  0.00     0.118 C 
HETATM    2  N   UNL     1      28.171  43.850  51.876  1.00  0.00    -0.366 N 
HETATM    3  C   UNL     1      26.956  43.652  51.328  1.00  0.00     0.123 A 
HETATM    4  N   UNL     1      26.396  42.407  51.277  1.00  0.00    -0.240 N 
HETATM    5  N   UNL     1      25.125  42.393  50.839  1.00  0.00    -0.165 NA
HETATM    6  C   UNL     1      24.900  43.687  50.503  1.00  0.00     0.148 A 
HETATM    7  C   UNL     1      26.039  44.498  50.767  1.00  0.00     0.089 A 
HETATM    8  C   UNL     1      27.053  41.226  51.802  1.00  0.00     0.221 C 
HETATM    9  C   UNL     1      27.935  41.634  52.991  1.00  0.00     0.066 C 
HETATM   10  H   UNL     1      28.593  44.779  51.908  1.00  0.00     0.161 HD
ENDROOT
BRANCH   6  11
HETATM   11  C   UNL     1      23.599  44.150  49.985  1.00  0.00     0.276 C 
HETATM   12  N   UNL     1      23.747  45.169  49.065  1.00  0.00    -0.322 N 
HETATM   13  H   UNL     1      24.714  45.451  48.929  1.00  0.00     0.169 HD
HETATM   14  O   UNL     1      22.546  43.636  50.348  1.00  0.00    -0.266 OA
BRANCH  12  15
HETATM   15  C   UNL     1      22.754  45.809  48.304  1.00  0.00     0.037 A 
HETATM   16  C   UNL     1      22.091  45.208  47.231  1.00  0.00     0.066 A 
HETATM   17  C   UNL     1      21.131  45.927  46.520  1.00  0.00     0.067 A 
HETATM   18  C   UNL     1      20.817  47.235  46.860  1.00  0.00     0.036 A 
HETATM   19  C   UNL     1      21.472  47.841  47.929  1.00  0.00     0.005 A 
HETATM   20  C   UNL     1      22.437  47.130  48.648  1.00  0.00     0.029 A 
BRANCH  17  21
HETATM   21  O   UNL     1      20.468  45.369  45.465  1.00  0.00    -0.361 OA
HETATM   22  H   UNL     1      20.584  44.404  45.506  1.00  0.00     0.217 HD
ENDBRANCH  17  21
ENDBRANCH  12  15
ENDBRANCH   6  11
BRANCH   8  23
HETATM   23  C   UNL     1      27.830  40.532  50.707  1.00  0.00     0.409 C 
HETATM   24  F   UNL     1      27.121  39.542  50.121  1.00  0.00    -0.169 F 
HETATM   25  F   UNL     1      28.258  41.365  49.736  1.00  0.00    -0.169 F 
HETATM   26  F   UNL     1      28.940  39.950  51.235  1.00  0.00    -0.169 F 
ENDBRANCH   8  23
BRANCH   1  27
HETATM   27  C   UNL     1      29.412  43.456  53.918  1.00  0.00    -0.035 A 
HETATM   28  C   UNL     1      30.526  42.905  54.578  1.00  0.00     0.012 A 
HETATM   29  C   UNL     1      31.044  43.493  55.735  1.00  0.00     0.037 A 
HETATM   30  C   UNL     1      30.456  44.643  56.258  1.00  0.00     0.068 A 
HETATM   31  C   UNL     1      29.335  45.183  55.623  1.00  0.00     0.037 A 
HETATM   32  C   UNL     1      28.817  44.600  54.462  1.00  0.00     0.012 A 
BRANCH  30  33
HETATM   33  O   UNL     1      30.868  45.316  57.375  1.00  0.00    -0.356 OA
HETATM   34  C   UNL     1      29.873  46.051  58.078  1.00  0.00     0.210 C 
ENDBRANCH  30  33
ENDBRANCH   1  27
TORSDOF 6
ENDMDL
MODEL 7
REMARK VINA RESULT:      -8.8      4.963      8.074
REMARK  6 active torsions:
REMARK  status: ('A' for Active; 'I' for Inactive)
REMARK    1  A    between atoms: O_2  and  C_3 
REMARK    2  A    between atoms: C_6  and  C_7 
REMARK    3  A    between atoms: C_12  and  C_13 
REMARK       I    between atoms: C_13  and  N_14 
REMARK    4  A    between atoms: N_14  and  C_15 
REMARK    5  A    between atoms: C_17  and  O_18 
REMARK    6  A    between atoms: C_24  and  C_25 
ROOT
HETATM    1  C   UNL     1      27.123  43.621  53.106  1.00  0.00     0.118 C 
HETATM    2  N   UNL     1      27.342  42.295  52.533  1.00  0.00    -0.366 N 
HETATM    3  C   UNL     1      27.265  42.054  51.208  1.00  0.00     0.123 A 
HETATM    4  N   UNL     1      26.761  42.987  50.348  1.00  0.00    -0.240 N 
HETATM    5  N   UNL     1      26.886  42.661  49.049  1.00  0.00    -0.165 NA
HETATM    6  C   UNL     1      27.411  41.412  49.093  1.00  0.00     0.148 A 
HETATM    7  C   UNL     1      27.630  40.988  50.433  1.00  0.00     0.089 A 
HETATM    8  C   UNL     1      26.282  44.284  50.783  1.00  0.00     0.221 C 
HETATM    9  C   UNL     1      27.081  44.719  52.020  1.00  0.00     0.066 C 
HETATM   10  H   UNL     1      27.712  41.595  53.177  1.00  0.00     0.161 HD
ENDROOT
BRANCH   6  11
HETATM   11  C   UNL     1      27.743  40.655  47.872  1.00  0.00     0.276 C 
HETATM   12  N   UNL     1      27.220  39.377  47.902  1.00  0.00    -0.322 N 
HETATM   13  H   UNL     1      26.730  39.163  48.768  1.00  0.00     0.169 HD
HETATM   14  O   UNL     1      28.391  41.162  46.962  1.00  0.00    -0.266 OA
BRANCH  12  15
HETATM   15  C   UNL     1      27.258  38.394  46.899  1.00  0.00     0.037 A 
HETATM   16  C   UNL     1      28.155  37.323  46.894  1.00  0.00     0.066 A 
HETATM   17  C   UNL     1      28.132  36.405  45.845  1.00  0.00     0.067 A 
HETATM   18  C   UNL     1      27.227  36.532  44.800  1.00  0.00     0.036 A 
HETATM   19  C   UNL     1      26.328  37.596  44.798  1.00  0.00     0.005 A 
HETATM   20  C   UNL     1      26.344  38.523  45.844  1.00  0.00     0.029 A 
BRANCH  17  21
HETATM   21  O   UNL     1      28.998  35.350  45.810  1.00  0.00    -0.361 OA
HETATM   22  H   UNL     1      29.280  35.155  46.720  1.00  0.00     0.217 HD
ENDBRANCH  17  21
ENDBRANCH  12  15
ENDBRANCH   6  11
BRANCH   8  23
HETATM   23  C   UNL     1      24.793  44.232  51.036  1.00  0.00     0.409 C 
HETATM   24  F   UNL     1      24.364  42.983  51.320  1.00  0.00    -0.169 F 
HETATM   25  F   UNL     1      24.384  45.046  52.030  1.00  0.00    -0.169 F 
HETATM   26  F   UNL     1      24.127  44.622  49.917  1.00  0.00    -0.169 F 
ENDBRANCH   8  23
BRANCH   1  27
HETATM   27  C   UNL     1      28.225  43.903  54.114  1.00  0.00    -0.035 A 
HETATM   28  C   UNL     1      28.215  45.078  54.887  1.00  0.00     0.012 A 
HETATM   29  C   UNL     1      29.217  45.335  55.827  1.00  0.00     0.037 A 
HETATM   30  C   UNL     1      30.253  44.420  56.009  1.00  0.00     0.068 A 
HETATM   31  C   UNL     1      30.285  43.262  55.229  1.00  0.00     0.037 A 
HETATM   32  C   UNL     1      29.280  42.999  54.292  1.00  0.00     0.012 A 
BRANCH  30  33
HETATM   33  O   UNL     1      31.287  44.549  56.895  1.00  0.00    -0.356 OA
HETATM   34  C   UNL     1      31.944  43.348  57.284  1.00  0.00     0.210 C 
ENDBRANCH  30  33
ENDBRANCH   1  27
TORSDOF 6
ENDMDL
MODEL 8
REMARK VINA RESULT:      -8.7      3.046     10.151
REMARK  6 active torsions:
REMARK  status: ('A' for Active; 'I' for Inactive)
REMARK    1  A    between atoms: O_2  and  C_3 
REMARK    2  A    between atoms: C_6  and  C_7 
REMARK    3  A    between atoms: C_12  and  C_13 
REMARK       I    between atoms: C_13  and  N_14 
REMARK    4  A    between atoms: N_14  and  C_15 
REMARK    5  A    between atoms: C_17  and  O_18 
REMARK    6  A    between atoms: C_24  and  C_25 
ROOT
HETATM    1  C   UNL     1      22.754  49.652  47.951  1.00  0.00     0.118 C 
HETATM    2  N   UNL     1      22.754  48.203  48.142  1.00  0.00    -0.366 N 
HETATM    3  C   UNL     1      23.564  47.587  49.027  1.00  0.00     0.123 A 
HETATM    4  N   UNL     1      24.585  48.257  49.638  1.00  0.00    -0.240 N 
HETATM    5  N   UNL     1      25.207  47.553  50.600  1.00  0.00    -0.165 NA
HETATM    6  C   UNL     1      24.609  46.339  50.529  1.00  0.00     0.148 A 
HETATM    7  C   UNL     1      23.596  46.316  49.530  1.00  0.00     0.089 A 
HETATM    8  C   UNL     1      24.871  49.657  49.388  1.00  0.00     0.221 C 
HETATM    9  C   UNL     1      23.558  50.379  49.052  1.00  0.00     0.066 C 
HETATM   10  H   UNL     1      21.996  47.701  47.680  1.00  0.00     0.161 HD
ENDROOT
BRANCH   6  11
HETATM   11  C   UNL     1      24.968  45.232  51.436  1.00  0.00     0.276 C 
HETATM   12  N   UNL     1      26.336  45.101  51.569  1.00  0.00    -0.322 N 
HETATM   13  H   UNL     1      26.861  45.759  50.998  1.00  0.00     0.169 HD
HETATM   14  O   UNL     1      24.108  44.558  51.993  1.00  0.00    -0.266 OA
BRANCH  12  15
HETATM   15  C   UNL     1      27.052  44.221  52.398  1.00  0.00     0.037 A 
HETATM   16  C   UNL     1      27.160  42.848  52.162  1.00  0.00     0.066 A 
HETATM   17  C   UNL     1      27.878  42.047  53.051  1.00  0.00     0.067 A 
HETATM   18  C   UNL     1      28.493  42.591  54.170  1.00  0.00     0.036 A 
HETATM   19  C   UNL     1      28.391  43.959  54.410  1.00  0.00     0.005 A 
HETATM   20  C   UNL     1      27.673  44.770  53.528  1.00  0.00     0.029 A 
BRANCH  17  21
HETATM   21  O   UNL     1      27.999  40.702  52.851  1.00  0.00    -0.361 OA
HETATM   22  H   UNL     1      27.149  40.283  53.070  1.00  0.00     0.217 HD
ENDBRANCH  17  21
ENDBRANCH  12  15
ENDBRANCH   6  11
BRANCH   8  23
HETATM   23  C   UNL     1      25.908  49.790  48.298  1.00  0.00     0.409 C 
HETATM   24  F   UNL     1      26.617  48.654  48.121  1.00  0.00    -0.169 F 
HETATM   25  F   UNL     1      25.395  50.148  47.103  1.00  0.00    -0.169 F 
HETATM   26  F   UNL     1      26.805  50.754  48.638  1.00  0.00    -0.169 F 
ENDBRANCH   8  23
BRANCH   1  27
HETATM   27  C   UNL     1      21.315  50.139  47.925  1.00  0.00    -0.035 A 
HETATM   28  C   UNL     1      20.297  49.355  47.351  1.00  0.00     0.012 A 
HETATM   29  C   UNL     1      18.969  49.790  47.337  1.00  0.00     0.037 A 
HETATM   30  C   UNL     1      18.633  51.022  47.896  1.00  0.00     0.068 A 
HETATM   31  C   UNL     1      19.640  51.818  48.446  1.00  0.00     0.037 A 
HETATM   32  C   UNL     1      20.970  51.383  48.466  1.00  0.00     0.012 A 
BRANCH  30  33
HETATM   33  O   UNL     1      17.377  51.559  47.952  1.00  0.00    -0.356 OA
HETATM   34  C   UNL     1      16.295  50.638  48.031  1.00  0.00     0.210 C 
ENDBRANCH  30  33
ENDBRANCH   1  27
TORSDOF 6
ENDMDL
MODEL 9
REMARK VINA RESULT:      -8.6      1.836      2.393
REMARK  6 active torsions:
REMARK  status: ('A' for Active; 'I' for Inactive)
REMARK    1  A    between atoms: O_2  and  C_3 
REMARK    2  A    between atoms: C_6  and  C_7 
REMARK    3  A    between atoms: C_12  and  C_13 
REMARK       I    between atoms: C_13  and  N_14 
REMARK    4  A    between atoms: N_14  and  C_15 
REMARK    5  A    between atoms: C_17  and  O_18 
REMARK    6  A    between atoms: C_24  and  C_25 
ROOT
HETATM    1  C   UNL     1      26.027  43.463  50.611  1.00  0.00     0.118 C 
HETATM    2  N   UNL     1      25.819  44.705  49.870  1.00  0.00    -0.366 N 
HETATM    3  C   UNL     1      24.601  45.109  49.455  1.00  0.00     0.123 A 
HETATM    4  N   UNL     1      23.522  44.274  49.510  1.00  0.00    -0.240 N 
HETATM    5  N   UNL     1      22.353  44.864  49.202  1.00  0.00    -0.165 NA
HETATM    6  C   UNL     1      22.726  46.116  48.841  1.00  0.00     0.148 A 
HETATM    7  C   UNL     1      24.133  46.293  48.957  1.00  0.00     0.089 A 
HETATM    8  C   UNL     1      23.601  42.916  50.011  1.00  0.00     0.221 C 
HETATM    9  C   UNL     1      24.693  42.846  51.088  1.00  0.00     0.066 C 
HETATM   10  H   UNL     1      26.627  45.327  49.823  1.00  0.00     0.161 HD
ENDROOT
BRANCH   6  11
HETATM   11  C   UNL     1      21.746  47.143  48.439  1.00  0.00     0.276 C 
HETATM   12  N   UNL     1      21.633  48.142  49.386  1.00  0.00    -0.322 N 
HETATM   13  H   UNL     1      22.211  47.985  50.208  1.00  0.00     0.169 HD
HETATM   14  O   UNL     1      21.151  47.074  47.369  1.00  0.00    -0.266 OA
BRANCH  12  15
HETATM   15  C   UNL     1      20.867  49.319  49.325  1.00  0.00     0.037 A 
HETATM   16  C   UNL     1      19.601  49.451  49.900  1.00  0.00     0.066 A 
HETATM   17  C   UNL     1      18.905  50.654  49.773  1.00  0.00     0.067 A 
HETATM   18  C   UNL     1      19.451  51.729  49.085  1.00  0.00     0.036 A 
HETATM   19  C   UNL     1      20.713  51.605  48.510  1.00  0.00     0.005 A 
HETATM   20  C   UNL     1      21.418  50.404  48.630  1.00  0.00     0.029 A 
BRANCH  17  21
HETATM   21  O   UNL     1      17.665  50.813  50.320  1.00  0.00    -0.361 OA
HETATM   22  H   UNL     1      17.771  51.021  51.264  1.00  0.00     0.217 HD
ENDBRANCH  17  21
ENDBRANCH  12  15
ENDBRANCH   6  11
BRANCH   8  23
HETATM   23  C   UNL     1      23.841  41.952  48.871  1.00  0.00     0.409 C 
HETATM   24  F   UNL     1      24.724  40.983  49.195  1.00  0.00    -0.169 F 
HETATM   25  F   UNL     1      22.718  41.356  48.421  1.00  0.00    -0.169 F 
HETATM   26  F   UNL     1      24.374  42.621  47.814  1.00  0.00    -0.169 F 
ENDBRANCH   8  23
BRANCH   1  27
HETATM   27  C   UNL     1      26.942  43.748  51.791  1.00  0.00    -0.035 A 
HETATM   28  C   UNL     1      28.167  43.071  51.936  1.00  0.00     0.012 A 
HETATM   29  C   UNL     1      29.019  43.341  53.010  1.00  0.00     0.037 A 
HETATM   30  C   UNL     1      28.659  44.291  53.964  1.00  0.00     0.068 A 
HETATM   31  C   UNL     1      27.434  44.950  53.842  1.00  0.00     0.037 A 
HETATM   32  C   UNL     1      26.581  44.687  52.764  1.00  0.00     0.012 A 
BRANCH  30  33
HETATM   33  O   UNL     1      29.402  44.650  55.055  1.00  0.00    -0.356 OA
HETATM   34  C   UNL     1      30.476  43.784  55.406  1.00  0.00     0.210 C 
ENDBRANCH  30  33
ENDBRANCH   1  27
TORSDOF 6
ENDMDL
MODEL 10
REMARK VINA RESULT:      -8.3     12.762     15.526
REMARK  6 active torsions:
REMARK  status: ('A' for Active; 'I' for Inactive)
REMARK    1  A    between atoms: O_2  and  C_3 
REMARK    2  A    between atoms: C_6  and  C_7 
REMARK    3  A    between atoms: C_12  and  C_13 
REMARK       I    between atoms: C_13  and  N_14 
REMARK    4  A    between atoms: N_14  and  C_15 
REMARK    5  A    between atoms: C_17  and  O_18 
REMARK    6  A    between atoms: C_24  and  C_25 
ROOT
HETATM    1  C   UNL     1      30.644  49.980  40.095  1.00  0.00     0.118 C 
HETATM    2  N   UNL     1      32.092  49.803  39.990  1.00  0.00    -0.366 N 
HETATM    3  C   UNL     1      32.964  50.484  40.761  1.00  0.00     0.123 A 
HETATM    4  N   UNL     1      32.558  51.538  41.527  1.00  0.00    -0.240 N 
HETATM    5  N   UNL     1      33.508  52.019  42.349  1.00  0.00    -0.165 NA
HETATM    6  C   UNL     1      34.602  51.292  42.015  1.00  0.00     0.148 A 
HETATM    7  C   UNL     1      34.303  50.342  40.998  1.00  0.00     0.089 A 
HETATM    8  C   UNL     1      31.183  51.996  41.574  1.00  0.00     0.221 C 
HETATM    9  C   UNL     1      30.252  50.796  41.346  1.00  0.00     0.066 C 
HETATM   10  H   UNL     1      32.396  49.020  39.412  1.00  0.00     0.161 HD
ENDROOT
BRANCH   6  11
HETATM   11  C   UNL     1      35.900  51.468  42.692  1.00  0.00     0.276 C 
HETATM   12  N   UNL     1      35.971  52.676  43.358  1.00  0.00    -0.322 N 
HETATM   13  H   UNL     1      35.139  53.250  43.241  1.00  0.00     0.169 HD
HETATM   14  O   UNL     1      36.766  50.600  42.651  1.00  0.00    -0.266 OA
BRANCH  12  15
HETATM   15  C   UNL     1      37.007  53.164  44.173  1.00  0.00     0.037 A 
HETATM   16  C   UNL     1      37.372  52.587  45.391  1.00  0.00     0.066 A 
HETATM   17  C   UNL     1      38.402  53.151  46.144  1.00  0.00     0.067 A 
HETATM   18  C   UNL     1      39.077  54.281  45.702  1.00  0.00     0.036 A 
HETATM   19  C   UNL     1      38.719  54.862  44.488  1.00  0.00     0.005 A 
HETATM   20  C   UNL     1      37.688  54.305  43.727  1.00  0.00     0.029 A 
BRANCH  17  21
HETATM   21  O   UNL     1      38.781  52.613  47.340  1.00  0.00    -0.361 OA
HETATM   22  H   UNL     1      39.717  52.830  47.490  1.00  0.00     0.217 HD
ENDBRANCH  17  21
ENDBRANCH  12  15
ENDBRANCH   6  11
BRANCH   8  23
HETATM   23  C   UNL     1      30.968  53.104  40.568  1.00  0.00     0.409 C 
HETATM   24  F   UNL     1      29.778  53.001  39.938  1.00  0.00    -0.169 F 
HETATM   25  F   UNL     1      31.050  54.341  41.099  1.00  0.00    -0.169 F 
HETATM   26  F   UNL     1      31.922  53.033  39.602  1.00  0.00    -0.169 F 
ENDBRANCH   8  23
BRANCH   1  27
HETATM   27  C   UNL     1      29.988  48.609  40.118  1.00  0.00    -0.035 A 
HETATM   28  C   UNL     1      28.805  48.387  40.845  1.00  0.00     0.012 A 
HETATM   29  C   UNL     1      28.188  47.133  40.857  1.00  0.00     0.037 A 
HETATM   30  C   UNL     1      28.748  46.073  40.145  1.00  0.00     0.068 A 
HETATM   31  C   UNL     1      29.936  46.278  39.440  1.00  0.00     0.037 A 
HETATM   32  C   UNL     1      30.552  47.534  39.421  1.00  0.00     0.012 A 
BRANCH  30  33
HETATM   33  O   UNL     1      28.244  44.804  40.070  1.00  0.00    -0.356 OA
HETATM   34  C   UNL     1      26.896  44.629  40.493  1.00  0.00     0.210 C 
ENDBRANCH  30  33
ENDBRANCH   1  27
TORSDOF 6
ENDMDL
