MODEL 1
REMARK VINA RESULT:      -9.6      0.000      0.000
REMARK  5 active torsions:
REMARK  status: ('A' for Active; 'I' for Inactive)
REMARK    1  A    between atoms: C_5  and  C_6 
REMARK    2  A    between atoms: C_10  and  C_11 
REMARK       I    between atoms: C_11  and  N_12 
REMARK    3  A    between atoms: N_12  and  C_13 
REMARK    4  A    between atoms: C_14  and  C_15 
REMARK       I    between atoms: C_15  and  N_16 
REMARK    5  A    between atoms: N_16  and  C_17 
ROOT
HETATM    1  C   UNL     1      22.367  48.605  48.720  1.00  0.00     0.274 C 
HETATM    2  N   UNL     1      21.707  49.420  49.614  1.00  0.00    -0.321 N 
HETATM    3  O   UNL     1      22.241  48.636  47.505  1.00  0.00    -0.266 OA
HETATM    4  H   UNL     1      22.175  49.565  50.496  1.00  0.00     0.169 HD
ENDROOT
BRANCH   1   5
HETATM    5  C   UNL     1      23.262  47.672  49.361  1.00  0.00     0.120 A 
HETATM    6  N   UNL     1      23.141  46.318  49.206  1.00  0.00    -0.272 N 
HETATM    7  N   UNL     1      23.962  45.602  49.994  1.00  0.00    -0.174 NA
HETATM    8  H   UNL     1      22.476  45.830  48.613  1.00  0.00     0.189 HD
HETATM    9  C   UNL     1      24.676  46.521  50.660  1.00  0.00     0.089 A 
HETATM   10  C   UNL     1      24.289  47.831  50.269  1.00  0.00     0.071 A 
BRANCH   9  11
HETATM   11  C   UNL     1      25.648  46.176  51.694  1.00  0.00    -0.006 A 
HETATM   12  C   UNL     1      25.854  47.026  52.790  1.00  0.00     0.014 A 
HETATM   13  C   UNL     1      26.707  46.647  53.831  1.00  0.00     0.007 A 
HETATM   14  C   UNL     1      27.374  45.418  53.789  1.00  0.00    -0.062 A 
HETATM   15  C   UNL     1      28.231  44.983  54.940  1.00  0.00     0.048 C 
HETATM   16  C   UNL     1      27.176  44.573  52.691  1.00  0.00     0.007 A 
HETATM   17  C   UNL     1      26.328  44.953  51.647  1.00  0.00     0.014 A 
ENDBRANCH   9  11
ENDBRANCH   1   5
BRANCH   2  18
HETATM   18  C   UNL     1      20.538  50.184  49.405  1.00  0.00     0.050 A 
HETATM   19  C   UNL     1      19.229  49.865  49.803  1.00  0.00     0.058 A 
HETATM   20  C   UNL     1      18.170  50.741  49.484  1.00  0.00     0.019 A 
HETATM   21  C   UNL     1      18.406  51.945  48.823  1.00  0.00     0.001 A 
HETATM   22  C   UNL     1      19.703  52.291  48.475  1.00  0.00     0.002 A 
HETATM   23  C   UNL     1      20.757  51.421  48.766  1.00  0.00     0.030 A 
BRANCH  19  24
HETATM   24  C   UNL     1      18.812  48.711  50.632  1.00  0.00     0.254 C 
HETATM   25  N   UNL     1      18.797  47.440  50.100  1.00  0.00    -0.352 N 
HETATM   26  H   UNL     1      18.508  46.744  50.779  1.00  0.00     0.163 HD
HETATM   27  O   UNL     1      18.604  48.877  51.833  1.00  0.00    -0.268 OA
BRANCH  25  28
HETATM   28  C   UNL     1      19.122  47.003  48.785  1.00  0.00     0.084 A 
HETATM   29  C   UNL     1      19.692  45.648  48.480  1.00  0.00     0.027 A 
HETATM   30  C   UNL     1      18.267  45.951  48.128  1.00  0.00     0.027 A 
ENDBRANCH  25  28
ENDBRANCH  19  24
ENDBRANCH   2  18
TORSDOF 5
ENDMDL
MODEL 2
REMARK VINA RESULT:      -9.2      2.154      8.694
REMARK  5 active torsions:
REMARK  status: ('A' for Active; 'I' for Inactive)
REMARK    1  A    between atoms: C_5  and  C_6 
REMARK    2  A    between atoms: C_10  and  C_11 
REMARK       I    between atoms: C_11  and  N_12 
REMARK    3  A    between atoms: N_12  and  C_13 
REMARK    4  A    between atoms: C_14  and  C_15 
REMARK       I    between atoms: C_15  and  N_16 
REMARK    5  A    between atoms: N_16  and  C_17 
ROOT
HETATM    1  C   UNL     1      22.152  48.465  48.687  1.00  0.00     0.274 C 
HETATM    2  N   UNL     1      23.147  48.671  49.618  1.00  0.00    -0.321 N 
HETATM    3  O   UNL     1      22.295  47.909  47.608  1.00  0.00    -0.266 OA
HETATM    4  H   UNL     1      22.835  48.763  50.574  1.00  0.00     0.169 HD
ENDROOT
BRANCH   1   5
HETATM    5  C   UNL     1      20.871  48.977  49.107  1.00  0.00     0.120 A 
HETATM    6  N   UNL     1      19.985  48.227  49.831  1.00  0.00    -0.272 N 
HETATM    7  N   UNL     1      18.785  48.811  50.002  1.00  0.00    -0.174 NA
HETATM    8  H   UNL     1      20.132  47.288  50.188  1.00  0.00     0.189 HD
HETATM    9  C   UNL     1      18.904  50.004  49.402  1.00  0.00     0.089 A 
HETATM   10  C   UNL     1      20.206  50.160  48.855  1.00  0.00     0.071 A 
BRANCH   9  11
HETATM   11  C   UNL     1      17.794  50.946  49.281  1.00  0.00    -0.006 A 
HETATM   12  C   UNL     1      16.614  50.575  48.620  1.00  0.00     0.014 A 
HETATM   13  C   UNL     1      15.515  51.438  48.593  1.00  0.00     0.007 A 
HETATM   14  C   UNL     1      15.580  52.688  49.218  1.00  0.00    -0.062 A 
HETATM   15  C   UNL     1      14.375  53.582  49.251  1.00  0.00     0.048 C 
HETATM   16  C   UNL     1      16.760  53.063  49.871  1.00  0.00     0.007 A 
HETATM   17  C   UNL     1      17.862  52.203  49.893  1.00  0.00     0.014 A 
ENDBRANCH   9  11
ENDBRANCH   1   5
BRANCH   2  18
HETATM   18  C   UNL     1      24.546  48.630  49.430  1.00  0.00     0.050 A 
HETATM   19  C   UNL     1      25.445  47.669  49.922  1.00  0.00     0.058 A 
HETATM   20  C   UNL     1      26.823  47.801  49.654  1.00  0.00     0.019 A 
HETATM   21  C   UNL     1      27.308  48.844  48.866  1.00  0.00     0.001 A 
HETATM   22  C   UNL     1      26.419  49.766  48.333  1.00  0.00     0.002 A 
HETATM   23  C   UNL     1      25.054  49.657  48.609  1.00  0.00     0.030 A 
BRANCH  19  24
HETATM   24  C   UNL     1      25.100  46.425  50.648  1.00  0.00     0.254 C 
HETATM   25  N   UNL     1      25.509  46.243  51.951  1.00  0.00    -0.352 N 
HETATM   26  H   UNL     1      25.192  45.357  52.332  1.00  0.00     0.163 HD
HETATM   27  O   UNL     1      24.338  45.614  50.124  1.00  0.00    -0.268 OA
BRANCH  25  28
HETATM   28  C   UNL     1      26.279  47.099  52.788  1.00  0.00     0.084 A 
HETATM   29  C   UNL     1      25.845  47.524  54.161  1.00  0.00     0.027 A 
HETATM   30  C   UNL     1      26.950  46.523  54.009  1.00  0.00     0.027 A 
ENDBRANCH  25  28
ENDBRANCH  19  24
ENDBRANCH   2  18
TORSDOF 5
ENDMDL
MODEL 3
REMARK VINA RESULT:      -8.9      2.954      8.169
REMARK  5 active torsions:
REMARK  status: ('A' for Active; 'I' for Inactive)
REMARK    1  A    between atoms: C_5  and  C_6 
REMARK    2  A    between atoms: C_10  and  C_11 
REMARK       I    between atoms: C_11  and  N_12 
REMARK    3  A    between atoms: N_12  and  C_13 
REMARK    4  A    between atoms: C_14  and  C_15 
REMARK       I    between atoms: C_15  and  N_16 
REMARK    5  A    between atoms: N_16  and  C_17 
ROOT
HETATM    1  C   UNL     1      25.378  48.112  49.567  1.00  0.00     0.274 C 
HETATM    2  N   UNL     1      24.843  47.173  50.423  1.00  0.00    -0.321 N 
HETATM    3  O   UNL     1      26.571  48.321  49.400  1.00  0.00    -0.266 OA
HETATM    4  H   UNL     1      23.923  46.837  50.179  1.00  0.00     0.169 HD
ENDROOT
BRANCH   1   5
HETATM    5  C   UNL     1      24.374  48.859  48.850  1.00  0.00     0.120 A 
HETATM    6  N   UNL     1      24.695  49.780  47.890  1.00  0.00    -0.272 N 
HETATM    7  N   UNL     1      23.644  50.487  47.438  1.00  0.00    -0.174 NA
HETATM    8  H   UNL     1      25.624  50.002  47.546  1.00  0.00     0.189 HD
HETATM    9  C   UNL     1      22.590  49.982  48.096  1.00  0.00     0.089 A 
HETATM   10  C   UNL     1      23.001  48.939  48.969  1.00  0.00     0.071 A 
BRANCH   9  11
HETATM   11  C   UNL     1      21.239  50.519  47.963  1.00  0.00    -0.006 A 
HETATM   12  C   UNL     1      20.298  49.885  47.140  1.00  0.00     0.014 A 
HETATM   13  C   UNL     1      18.977  50.339  47.091  1.00  0.00     0.007 A 
HETATM   14  C   UNL     1      18.577  51.439  47.858  1.00  0.00    -0.062 A 
HETATM   15  C   UNL     1      17.143  51.879  47.861  1.00  0.00     0.048 C 
HETATM   16  C   UNL     1      19.518  52.078  48.674  1.00  0.00     0.007 A 
HETATM   17  C   UNL     1      20.841  51.629  48.717  1.00  0.00     0.014 A 
ENDBRANCH   9  11
ENDBRANCH   1   5
BRANCH   2  18
HETATM   18  C   UNL     1      25.467  46.521  51.509  1.00  0.00     0.050 A 
HETATM   19  C   UNL     1      26.106  45.269  51.499  1.00  0.00     0.058 A 
HETATM   20  C   UNL     1      26.656  44.758  52.693  1.00  0.00     0.019 A 
HETATM   21  C   UNL     1      26.622  45.494  53.875  1.00  0.00     0.001 A 
HETATM   22  C   UNL     1      26.040  46.753  53.879  1.00  0.00     0.002 A 
HETATM   23  C   UNL     1      25.472  47.261  52.708  1.00  0.00     0.030 A 
BRANCH  19  24
HETATM   24  C   UNL     1      26.364  44.417  50.316  1.00  0.00     0.254 C 
HETATM   25  N   UNL     1      25.415  43.515  49.886  1.00  0.00    -0.352 N 
HETATM   26  H   UNL     1      25.713  43.010  49.058  1.00  0.00     0.163 HD
HETATM   27  O   UNL     1      27.377  44.610  49.645  1.00  0.00    -0.268 OA
BRANCH  25  28
HETATM   28  C   UNL     1      24.132  43.222  50.428  1.00  0.00     0.084 A 
HETATM   29  C   UNL     1      22.877  43.939  50.020  1.00  0.00     0.027 A 
HETATM   30  C   UNL     1      23.109  42.531  49.563  1.00  0.00     0.027 A 
ENDBRANCH  25  28
ENDBRANCH  19  24
ENDBRANCH   2  18
TORSDOF 5
ENDMDL
MODEL 4
REMARK VINA RESULT:      -8.9      2.419      5.009
REMARK  5 active torsions:
REMARK  status: ('A' for Active; 'I' for Inactive)
REMARK    1  A    between atoms: C_5  and  C_6 
REMARK    2  A    between atoms: C_10  and  C_11 
REMARK       I    between atoms: C_11  and  N_12 
REMARK    3  A    between atoms: N_12  and  C_13 
REMARK    4  A    between atoms: C_14  and  C_15 
REMARK       I    between atoms: C_15  and  N_16 
REMARK    5  A    between atoms: N_16  and  C_17 
ROOT
HETATM    1  C   UNL     1      24.418  44.952  51.222  1.00  0.00     0.274 C 
HETATM    2  N   UNL     1      24.543  45.799  50.143  1.00  0.00    -0.321 N 
HETATM    3  O   UNL     1      23.567  44.083  51.348  1.00  0.00    -0.266 OA
HETATM    4  H   UNL     1      25.469  46.166  49.983  1.00  0.00     0.169 HD
ENDROOT
BRANCH   1   5
HETATM    5  C   UNL     1      25.418  45.179  52.237  1.00  0.00     0.120 A 
HETATM    6  N   UNL     1      25.669  46.422  52.751  1.00  0.00    -0.272 N 
HETATM    7  N   UNL     1      26.734  46.469  53.572  1.00  0.00    -0.174 NA
HETATM    8  H   UNL     1      25.176  47.282  52.533  1.00  0.00     0.189 HD
HETATM    9  C   UNL     1      27.171  45.203  53.630  1.00  0.00     0.089 A 
HETATM   10  C   UNL     1      26.354  44.357  52.831  1.00  0.00     0.071 A 
BRANCH   9  11
HETATM   11  C   UNL     1      28.373  44.810  54.360  1.00  0.00    -0.006 A 
HETATM   12  C   UNL     1      28.895  45.633  55.368  1.00  0.00     0.014 A 
HETATM   13  C   UNL     1      29.985  45.211  56.135  1.00  0.00     0.007 A 
HETATM   14  C   UNL     1      30.575  43.964  55.902  1.00  0.00    -0.062 A 
HETATM   15  C   UNL     1      31.696  43.482  56.774  1.00  0.00     0.048 C 
HETATM   16  C   UNL     1      30.060  43.145  54.890  1.00  0.00     0.007 A 
HETATM   17  C   UNL     1      28.975  43.569  54.117  1.00  0.00     0.014 A 
ENDBRANCH   9  11
ENDBRANCH   1   5
BRANCH   2  18
HETATM   18  C   UNL     1      23.581  46.108  49.156  1.00  0.00     0.050 A 
HETATM   19  C   UNL     1      23.060  47.374  48.840  1.00  0.00     0.058 A 
HETATM   20  C   UNL     1      22.080  47.494  47.833  1.00  0.00     0.019 A 
HETATM   21  C   UNL     1      21.651  46.383  47.109  1.00  0.00     0.001 A 
HETATM   22  C   UNL     1      22.201  45.138  47.380  1.00  0.00     0.002 A 
HETATM   23  C   UNL     1      23.157  45.004  48.390  1.00  0.00     0.030 A 
BRANCH  19  24
HETATM   24  C   UNL     1      23.496  48.675  49.398  1.00  0.00     0.254 C 
HETATM   25  N   UNL     1      22.574  49.662  49.667  1.00  0.00    -0.352 N 
HETATM   26  H   UNL     1      23.005  50.493  50.060  1.00  0.00     0.163 HD
HETATM   27  O   UNL     1      24.669  48.820  49.739  1.00  0.00    -0.268 OA
BRANCH  25  28
HETATM   28  C   UNL     1      21.163  49.662  49.475  1.00  0.00     0.084 A 
HETATM   29  C   UNL     1      20.233  50.612  50.174  1.00  0.00     0.027 A 
HETATM   30  C   UNL     1      20.525  50.797  48.715  1.00  0.00     0.027 A 
ENDBRANCH  25  28
ENDBRANCH  19  24
ENDBRANCH   2  18
TORSDOF 5
ENDMDL
MODEL 5
REMARK VINA RESULT:      -8.8      2.063      2.320
REMARK  5 active torsions:
REMARK  status: ('A' for Active; 'I' for Inactive)
REMARK    1  A    between atoms: C_5  and  C_6 
REMARK    2  A    between atoms: C_10  and  C_11 
REMARK       I    between atoms: C_11  and  N_12 
REMARK    3  A    between atoms: N_12  and  C_13 
REMARK    4  A    between atoms: C_14  and  C_15 
REMARK       I    between atoms: C_15  and  N_16 
REMARK    5  A    between atoms: N_16  and  C_17 
ROOT
HETATM    1  C   UNL     1      22.329  48.975  48.609  1.00  0.00     0.274 C 
HETATM    2  N   UNL     1      21.597  49.629  49.575  1.00  0.00    -0.321 N 
HETATM    3  O   UNL     1      22.212  49.133  47.402  1.00  0.00    -0.266 OA
HETATM    4  H   UNL     1      22.043  49.712  50.477  1.00  0.00     0.169 HD
ENDROOT
BRANCH   1   5
HETATM    5  C   UNL     1      23.290  48.050  49.158  1.00  0.00     0.120 A 
HETATM    6  N   UNL     1      24.581  48.413  49.429  1.00  0.00    -0.272 N 
HETATM    7  N   UNL     1      25.373  47.387  49.791  1.00  0.00    -0.174 NA
HETATM    8  H   UNL     1      24.987  49.339  49.332  1.00  0.00     0.189 HD
HETATM    9  C   UNL     1      24.560  46.321  49.797  1.00  0.00     0.089 A 
HETATM   10  C   UNL     1      23.239  46.699  49.435  1.00  0.00     0.071 A 
BRANCH   9  11
HETATM   11  C   UNL     1      25.032  44.964  50.063  1.00  0.00    -0.006 A 
HETATM   12  C   UNL     1      24.171  44.008  50.621  1.00  0.00     0.014 A 
HETATM   13  C   UNL     1      24.591  42.684  50.781  1.00  0.00     0.007 A 
HETATM   14  C   UNL     1      25.878  42.297  50.394  1.00  0.00    -0.062 A 
HETATM   15  C   UNL     1      26.301  40.862  50.499  1.00  0.00     0.048 C 
HETATM   16  C   UNL     1      26.741  43.253  49.845  1.00  0.00     0.007 A 
HETATM   17  C   UNL     1      26.325  44.579  49.691  1.00  0.00     0.014 A 
ENDBRANCH   9  11
ENDBRANCH   1   5
BRANCH   2  18
HETATM   18  C   UNL     1      20.372  50.318  49.431  1.00  0.00     0.050 A 
HETATM   19  C   UNL     1      19.106  49.908  49.883  1.00  0.00     0.058 A 
HETATM   20  C   UNL     1      17.979  50.717  49.626  1.00  0.00     0.019 A 
HETATM   21  C   UNL     1      18.104  51.942  48.973  1.00  0.00     0.001 A 
HETATM   22  C   UNL     1      19.359  52.376  48.571  1.00  0.00     0.002 A 
HETATM   23  C   UNL     1      20.480  51.574  48.801  1.00  0.00     0.030 A 
BRANCH  19  24
HETATM   24  C   UNL     1      18.804  48.720  50.713  1.00  0.00     0.254 C 
HETATM   25  N   UNL     1      18.877  47.455  50.171  1.00  0.00    -0.352 N 
HETATM   26  H   UNL     1      18.662  46.733  50.851  1.00  0.00     0.163 HD
HETATM   27  O   UNL     1      18.615  48.861  51.920  1.00  0.00    -0.268 OA
BRANCH  25  28
HETATM   28  C   UNL     1      19.202  47.054  48.845  1.00  0.00     0.084 A 
HETATM   29  C   UNL     1      19.815  45.725  48.508  1.00  0.00     0.027 A 
HETATM   30  C   UNL     1      18.377  45.984  48.178  1.00  0.00     0.027 A 
ENDBRANCH  25  28
ENDBRANCH  19  24
ENDBRANCH   2  18
TORSDOF 5
ENDMDL
MODEL 6
REMARK VINA RESULT:      -8.8      3.133      8.710
REMARK  5 active torsions:
REMARK  status: ('A' for Active; 'I' for Inactive)
REMARK    1  A    between atoms: C_5  and  C_6 
REMARK    2  A    between atoms: C_10  and  C_11 
REMARK       I    between atoms: C_11  and  N_12 
REMARK    3  A    between atoms: N_12  and  C_13 
REMARK    4  A    between atoms: C_14  and  C_15 
REMARK       I    between atoms: C_15  and  N_16 
REMARK    5  A    between atoms: N_16  and  C_17 
ROOT
HETATM    1  C   UNL     1      25.790  46.922  50.543  1.00  0.00     0.274 C 
HETATM    2  N   UNL     1      25.431  46.780  51.866  1.00  0.00    -0.321 N 
HETATM    3  O   UNL     1      26.701  46.325  49.987  1.00  0.00    -0.266 OA
HETATM    4  H   UNL     1      24.471  47.002  52.081  1.00  0.00     0.169 HD
ENDROOT
BRANCH   1   5
HETATM    5  C   UNL     1      24.968  47.870  49.833  1.00  0.00     0.120 A 
HETATM    6  N   UNL     1      25.500  48.896  49.100  1.00  0.00    -0.272 N 
HETATM    7  N   UNL     1      24.587  49.767  48.635  1.00  0.00    -0.174 NA
HETATM    8  H   UNL     1      26.485  49.077  48.932  1.00  0.00     0.189 HD
HETATM    9  C   UNL     1      23.410  49.271  49.043  1.00  0.00     0.089 A 
HETATM   10  C   UNL     1      23.603  48.066  49.772  1.00  0.00     0.071 A 
BRANCH   9  11
HETATM   11  C   UNL     1      22.139  49.955  48.817  1.00  0.00    -0.006 A 
HETATM   12  C   UNL     1      21.531  50.685  49.848  1.00  0.00     0.014 A 
HETATM   13  C   UNL     1      20.369  51.423  49.604  1.00  0.00     0.007 A 
HETATM   14  C   UNL     1      19.792  51.436  48.329  1.00  0.00    -0.062 A 
HETATM   15  C   UNL     1      18.588  52.286  48.052  1.00  0.00     0.048 C 
HETATM   16  C   UNL     1      20.394  50.700  47.302  1.00  0.00     0.007 A 
HETATM   17  C   UNL     1      21.552  49.956  47.547  1.00  0.00     0.014 A 
ENDBRANCH   9  11
ENDBRANCH   1   5
BRANCH   2  18
HETATM   18  C   UNL     1      26.189  46.235  52.926  1.00  0.00     0.050 A 
HETATM   19  C   UNL     1      26.298  44.882  53.288  1.00  0.00     0.058 A 
HETATM   20  C   UNL     1      27.086  44.519  54.400  1.00  0.00     0.019 A 
HETATM   21  C   UNL     1      27.800  45.475  55.120  1.00  0.00     0.001 A 
HETATM   22  C   UNL     1      27.739  46.806  54.735  1.00  0.00     0.002 A 
HETATM   23  C   UNL     1      26.945  47.180  53.648  1.00  0.00     0.030 A 
BRANCH  19  24
HETATM   24  C   UNL     1      25.733  43.723  52.560  1.00  0.00     0.254 C 
HETATM   25  N   UNL     1      26.513  42.619  52.295  1.00  0.00    -0.352 N 
HETATM   26  H   UNL     1      25.998  41.894  51.806  1.00  0.00     0.163 HD
HETATM   27  O   UNL     1      24.529  43.700  52.307  1.00  0.00    -0.268 OA
BRANCH  25  28
HETATM   28  C   UNL     1      27.881  42.378  52.609  1.00  0.00     0.084 A 
HETATM   29  C   UNL     1      28.346  41.230  53.457  1.00  0.00     0.027 A 
HETATM   30  C   UNL     1      28.583  41.204  51.978  1.00  0.00     0.027 A 
ENDBRANCH  25  28
ENDBRANCH  19  24
ENDBRANCH   2  18
TORSDOF 5
ENDMDL
MODEL 7
REMARK VINA RESULT:      -8.7      2.848      8.942
REMARK  5 active torsions:
REMARK  status: ('A' for Active; 'I' for Inactive)
REMARK    1  A    between atoms: C_5  and  C_6 
REMARK    2  A    between atoms: C_10  and  C_11 
REMARK       I    between atoms: C_11  and  N_12 
REMARK    3  A    between atoms: N_12  and  C_13 
REMARK    4  A    between atoms: C_14  and  C_15 
REMARK       I    between atoms: C_15  and  N_16 
REMARK    5  A    between atoms: N_16  and  C_17 
ROOT
HETATM    1  C   UNL     1      25.998  44.985  50.176  1.00  0.00     0.274 C 
HETATM    2  N   UNL     1      25.716  44.033  51.131  1.00  0.00    -0.321 N 
HETATM    3  O   UNL     1      27.111  45.247  49.742  1.00  0.00    -0.266 OA
HETATM    4  H   UNL     1      24.781  43.654  51.103  1.00  0.00     0.169 HD
ENDROOT
BRANCH   1   5
HETATM    5  C   UNL     1      24.824  45.680  49.706  1.00  0.00     0.120 A 
HETATM    6  N   UNL     1      23.961  45.126  48.800  1.00  0.00    -0.272 N 
HETATM    7  N   UNL     1      23.011  45.971  48.363  1.00  0.00    -0.174 NA
HETATM    8  H   UNL     1      24.008  44.190  48.407  1.00  0.00     0.189 HD
HETATM    9  C   UNL     1      23.235  47.108  49.038  1.00  0.00     0.089 A 
HETATM   10  C   UNL     1      24.345  46.957  49.913  1.00  0.00     0.071 A 
BRANCH   9  11
HETATM   11  C   UNL     1      22.470  48.331  48.810  1.00  0.00    -0.006 A 
HETATM   12  C   UNL     1      21.142  48.268  48.365  1.00  0.00     0.014 A 
HETATM   13  C   UNL     1      20.379  49.433  48.245  1.00  0.00     0.007 A 
HETATM   14  C   UNL     1      20.932  50.679  48.560  1.00  0.00    -0.062 A 
HETATM   15  C   UNL     1      20.089  51.918  48.500  1.00  0.00     0.048 C 
HETATM   16  C   UNL     1      22.260  50.743  48.997  1.00  0.00     0.007 A 
HETATM   17  C   UNL     1      23.027  49.580  49.111  1.00  0.00     0.014 A 
ENDBRANCH   9  11
ENDBRANCH   1   5
BRANCH   2  18
HETATM   18  C   UNL     1      26.600  43.421  52.047  1.00  0.00     0.050 A 
HETATM   19  C   UNL     1      26.692  43.656  53.429  1.00  0.00     0.058 A 
HETATM   20  C   UNL     1      27.659  42.966  54.190  1.00  0.00     0.019 A 
HETATM   21  C   UNL     1      28.495  42.017  53.604  1.00  0.00     0.001 A 
HETATM   22  C   UNL     1      28.372  41.742  52.250  1.00  0.00     0.002 A 
HETATM   23  C   UNL     1      27.433  42.434  51.482  1.00  0.00     0.030 A 
BRANCH  19  24
HETATM   24  C   UNL     1      25.801  44.513  54.242  1.00  0.00     0.254 C 
HETATM   25  N   UNL     1      26.167  45.805  54.551  1.00  0.00    -0.352 N 
HETATM   26  H   UNL     1      25.459  46.284  55.098  1.00  0.00     0.163 HD
HETATM   27  O   UNL     1      24.675  44.107  54.531  1.00  0.00    -0.268 OA
BRANCH  25  28
HETATM   28  C   UNL     1      27.352  46.517  54.213  1.00  0.00     0.084 A 
HETATM   29  C   UNL     1      27.753  47.811  54.860  1.00  0.00     0.027 A 
HETATM   30  C   UNL     1      28.493  46.552  55.197  1.00  0.00     0.027 A 
ENDBRANCH  25  28
ENDBRANCH  19  24
ENDBRANCH   2  18
TORSDOF 5
ENDMDL
MODEL 8
REMARK VINA RESULT:      -8.6      8.338     10.652
REMARK  5 active torsions:
REMARK  status: ('A' for Active; 'I' for Inactive)
REMARK    1  A    between atoms: C_5  and  C_6 
REMARK    2  A    between atoms: C_10  and  C_11 
REMARK       I    between atoms: C_11  and  N_12 
REMARK    3  A    between atoms: N_12  and  C_13 
REMARK    4  A    between atoms: C_14  and  C_15 
REMARK       I    between atoms: C_15  and  N_16 
REMARK    5  A    between atoms: N_16  and  C_17 
ROOT
HETATM    1  C   UNL     1      26.517  40.930  50.332  1.00  0.00     0.274 C 
HETATM    2  N   UNL     1      27.649  40.400  49.752  1.00  0.00    -0.321 N 
HETATM    3  O   UNL     1      25.368  40.710  49.975  1.00  0.00    -0.266 OA
HETATM    4  H   UNL     1      28.455  40.335  50.356  1.00  0.00     0.169 HD
ENDROOT
BRANCH   1   5
HETATM    5  C   UNL     1      26.806  41.801  51.445  1.00  0.00     0.120 A 
HETATM    6  N   UNL     1      26.010  42.866  51.766  1.00  0.00    -0.272 N 
HETATM    7  N   UNL     1      26.514  43.653  52.733  1.00  0.00    -0.174 NA
HETATM    8  H   UNL     1      25.138  43.132  51.319  1.00  0.00     0.189 HD
HETATM    9  C   UNL     1      27.662  43.058  53.087  1.00  0.00     0.089 A 
HETATM   10  C   UNL     1      27.867  41.877  52.324  1.00  0.00     0.071 A 
BRANCH   9  11
HETATM   11  C   UNL     1      28.583  43.628  54.068  1.00  0.00    -0.006 A 
HETATM   12  C   UNL     1      28.281  44.838  54.709  1.00  0.00     0.014 A 
HETATM   13  C   UNL     1      29.111  45.330  55.720  1.00  0.00     0.007 A 
HETATM   14  C   UNL     1      30.259  44.627  56.101  1.00  0.00    -0.062 A 
HETATM   15  C   UNL     1      31.107  45.120  57.236  1.00  0.00     0.048 C 
HETATM   16  C   UNL     1      30.565  43.423  55.456  1.00  0.00     0.007 A 
HETATM   17  C   UNL     1      29.740  42.933  54.440  1.00  0.00     0.014 A 
ENDBRANCH   9  11
ENDBRANCH   1   5
BRANCH   2  18
HETATM   18  C   UNL     1      27.787  39.812  48.476  1.00  0.00     0.050 A 
HETATM   19  C   UNL     1      27.653  38.453  48.145  1.00  0.00     0.058 A 
HETATM   20  C   UNL     1      27.852  38.038  46.811  1.00  0.00     0.019 A 
HETATM   21  C   UNL     1      28.131  38.959  45.803  1.00  0.00     0.001 A 
HETATM   22  C   UNL     1      28.212  40.308  46.115  1.00  0.00     0.002 A 
HETATM   23  C   UNL     1      28.038  40.729  47.436  1.00  0.00     0.030 A 
BRANCH  19  24
HETATM   24  C   UNL     1      27.221  37.361  49.046  1.00  0.00     0.254 C 
HETATM   25  N   UNL     1      28.079  36.870  50.006  1.00  0.00    -0.352 N 
HETATM   26  H   UNL     1      27.652  36.138  50.564  1.00  0.00     0.163 HD
HETATM   27  O   UNL     1      26.051  36.984  49.018  1.00  0.00    -0.268 OA
BRANCH  25  28
HETATM   28  C   UNL     1      29.420  37.245  50.301  1.00  0.00     0.084 A 
HETATM   29  C   UNL     1      29.784  38.280  51.327  1.00  0.00     0.027 A 
HETATM   30  C   UNL     1      30.027  36.829  51.617  1.00  0.00     0.027 A 
ENDBRANCH  25  28
ENDBRANCH  19  24
ENDBRANCH   2  18
TORSDOF 5
ENDMDL
MODEL 9
REMARK VINA RESULT:      -8.4      1.503      3.013
REMARK  5 active torsions:
REMARK  status: ('A' for Active; 'I' for Inactive)
REMARK    1  A    between atoms: C_5  and  C_6 
REMARK    2  A    between atoms: C_10  and  C_11 
REMARK       I    between atoms: C_11  and  N_12 
REMARK    3  A    between atoms: N_12  and  C_13 
REMARK    4  A    between atoms: C_14  and  C_15 
REMARK       I    between atoms: C_15  and  N_16 
REMARK    5  A    between atoms: N_16  and  C_17 
ROOT
HETATM    1  C   UNL     1      22.742  48.101  48.748  1.00  0.00     0.274 C 
HETATM    2  N   UNL     1      21.569  47.905  49.444  1.00  0.00    -0.321 N 
HETATM    3  O   UNL     1      22.825  48.510  47.599  1.00  0.00    -0.266 OA
HETATM    4  H   UNL     1      21.646  47.957  50.449  1.00  0.00     0.169 HD
ENDROOT
BRANCH   1   5
HETATM    5  C   UNL     1      23.917  47.773  49.518  1.00  0.00     0.120 A 
HETATM    6  N   UNL     1      25.062  48.519  49.457  1.00  0.00    -0.272 N 
HETATM    7  N   UNL     1      26.101  47.981  50.122  1.00  0.00    -0.174 NA
HETATM    8  H   UNL     1      25.203  49.377  48.932  1.00  0.00     0.189 HD
HETATM    9  C   UNL     1      25.606  46.863  50.672  1.00  0.00     0.089 A 
HETATM   10  C   UNL     1      24.232  46.712  50.342  1.00  0.00     0.071 A 
BRANCH   9  11
HETATM   11  C   UNL     1      26.426  45.920  51.427  1.00  0.00    -0.006 A 
HETATM   12  C   UNL     1      26.514  46.011  52.823  1.00  0.00     0.014 A 
HETATM   13  C   UNL     1      27.215  45.048  53.554  1.00  0.00     0.007 A 
HETATM   14  C   UNL     1      27.845  43.983  52.902  1.00  0.00    -0.062 A 
HETATM   15  C   UNL     1      28.535  42.912  53.694  1.00  0.00     0.048 C 
HETATM   16  C   UNL     1      27.765  43.895  51.507  1.00  0.00     0.007 A 
HETATM   17  C   UNL     1      27.070  44.862  50.775  1.00  0.00     0.014 A 
ENDBRANCH   9  11
ENDBRANCH   1   5
BRANCH   2  18
HETATM   18  C   UNL     1      20.257  47.782  48.934  1.00  0.00     0.050 A 
HETATM   19  C   UNL     1      19.098  48.422  49.401  1.00  0.00     0.058 A 
HETATM   20  C   UNL     1      17.858  48.159  48.782  1.00  0.00     0.019 A 
HETATM   21  C   UNL     1      17.769  47.311  47.679  1.00  0.00     0.001 A 
HETATM   22  C   UNL     1      18.919  46.717  47.180  1.00  0.00     0.002 A 
HETATM   23  C   UNL     1      20.149  46.953  47.799  1.00  0.00     0.030 A 
BRANCH  19  24
HETATM   24  C   UNL     1      19.023  49.457  50.457  1.00  0.00     0.254 C 
HETATM   25  N   UNL     1      19.334  50.769  50.172  1.00  0.00    -0.352 N 
HETATM   26  H   UNL     1      19.225  51.373  50.980  1.00  0.00     0.163 HD
HETATM   27  O   UNL     1      18.558  49.161  51.558  1.00  0.00    -0.268 OA
BRANCH  25  28
HETATM   28  C   UNL     1      19.763  51.353  48.947  1.00  0.00     0.084 A 
HETATM   29  C   UNL     1      18.961  51.298  47.678  1.00  0.00     0.027 A 
HETATM   30  C   UNL     1      19.064  52.587  48.437  1.00  0.00     0.027 A 
ENDBRANCH  25  28
ENDBRANCH  19  24
ENDBRANCH   2  18
TORSDOF 5
ENDMDL
MODEL 10
REMARK VINA RESULT:      -8.3      5.940      9.924
REMARK  5 active torsions:
REMARK  status: ('A' for Active; 'I' for Inactive)
REMARK    1  A    between atoms: C_5  and  C_6 
REMARK    2  A    between atoms: C_10  and  C_11 
REMARK       I    between atoms: C_11  and  N_12 
REMARK    3  A    between atoms: N_12  and  C_13 
REMARK    4  A    between atoms: C_14  and  C_15 
REMARK       I    between atoms: C_15  and  N_16 
REMARK    5  A    between atoms: N_16  and  C_17 
ROOT
HETATM    1  C   UNL     1      28.225  41.181  52.635  1.00  0.00     0.274 C 
HETATM    2  N   UNL     1      27.930  42.521  52.508  1.00  0.00    -0.321 N 
HETATM    3  O   UNL     1      28.403  40.591  53.691  1.00  0.00    -0.266 OA
HETATM    4  H   UNL     1      27.432  42.778  51.668  1.00  0.00     0.169 HD
ENDROOT
BRANCH   1   5
HETATM    5  C   UNL     1      28.307  40.498  51.368  1.00  0.00     0.120 A 
HETATM    6  N   UNL     1      29.080  39.383  51.187  1.00  0.00    -0.272 N 
HETATM    7  N   UNL     1      29.155  38.971  49.909  1.00  0.00    -0.174 NA
HETATM    8  H   UNL     1      29.620  38.895  51.895  1.00  0.00     0.189 HD
HETATM    9  C   UNL     1      28.370  39.823  49.234  1.00  0.00     0.089 A 
HETATM   10  C   UNL     1      27.795  40.777  50.117  1.00  0.00     0.071 A 
BRANCH   9  11
HETATM   11  C   UNL     1      28.222  39.787  47.781  1.00  0.00    -0.006 A 
HETATM   12  C   UNL     1      28.190  40.976  47.039  1.00  0.00     0.014 A 
HETATM   13  C   UNL     1      28.152  40.939  45.642  1.00  0.00     0.007 A 
HETATM   14  C   UNL     1      28.138  39.715  44.966  1.00  0.00    -0.062 A 
HETATM   15  C   UNL     1      28.172  39.678  43.466  1.00  0.00     0.048 C 
HETATM   16  C   UNL     1      28.162  38.527  45.706  1.00  0.00     0.007 A 
HETATM   17  C   UNL     1      28.193  38.563  47.103  1.00  0.00     0.014 A 
ENDBRANCH   9  11
ENDBRANCH   1   5
BRANCH   2  18
HETATM   18  C   UNL     1      28.107  43.552  53.457  1.00  0.00     0.050 A 
HETATM   19  C   UNL     1      27.179  44.541  53.824  1.00  0.00     0.058 A 
HETATM   20  C   UNL     1      27.540  45.515  54.779  1.00  0.00     0.019 A 
HETATM   21  C   UNL     1      28.785  45.485  55.405  1.00  0.00     0.001 A 
HETATM   22  C   UNL     1      29.685  44.479  55.085  1.00  0.00     0.002 A 
HETATM   23  C   UNL     1      29.348  43.522  54.124  1.00  0.00     0.030 A 
BRANCH  19  24
HETATM   24  C   UNL     1      25.772  44.643  53.378  1.00  0.00     0.254 C 
HETATM   25  N   UNL     1      25.472  45.122  52.121  1.00  0.00    -0.352 N 
HETATM   26  H   UNL     1      24.473  45.123  51.939  1.00  0.00     0.163 HD
HETATM   27  O   UNL     1      24.880  44.178  54.087  1.00  0.00    -0.268 OA
BRANCH  25  28
HETATM   28  C   UNL     1      26.343  45.587  51.096  1.00  0.00     0.084 A 
HETATM   29  C   UNL     1      26.779  44.743  49.933  1.00  0.00     0.027 A 
HETATM   30  C   UNL     1      25.786  45.846  49.720  1.00  0.00     0.027 A 
ENDBRANCH  25  28
ENDBRANCH  19  24
ENDBRANCH   2  18
TORSDOF 5
ENDMDL
