MODEL 1
REMARK VINA RESULT:      -9.1      0.000      0.000
REMARK  9 active torsions:
REMARK  status: ('A' for Active; 'I' for Inactive)
REMARK    1  A    between atoms: C_2  and  N_3 
REMARK    2  A    between atoms: N_3  and  C_5 
REMARK    3  A    between atoms: N_3  and  C_33 
REMARK    4  A    between atoms: C_5  and  C_6 
REMARK    5  A    between atoms: C_6  and  N_7 
REMARK       I    between atoms: N_7  and  C_8 
REMARK    6  A    between atoms: C_8  and  C_9 
REMARK    7  A    between atoms: N_15  and  C_16 
REMARK    8  A    between atoms: C_16  and  C_17 
REMARK       I    between atoms: C_17  and  N_18 
REMARK    9  A    between atoms: N_18  and  C_19 
ROOT
HETATM    1  C   UNL     1      24.039  47.422  49.219  1.00  0.00     0.081 A 
HETATM    2  S   UNL     1      22.974  46.076  49.202  1.00  0.00    -0.063 SA
HETATM    3  C   UNL     1      24.175  45.021  49.769  1.00  0.00     0.116 A 
HETATM    4  C   UNL     1      25.376  45.663  49.966  1.00  0.00     0.075 A 
HETATM    5  C   UNL     1      26.467  44.876  50.530  1.00  0.00     0.262 A 
HETATM    6  O   UNL     1      27.570  45.352  50.785  1.00  0.00    -0.267 OA
HETATM    7  N   UNL     1      26.139  43.544  50.776  1.00  0.00    -0.299 N 
HETATM    8  C   UNL     1      24.875  43.048  50.521  1.00  0.00     0.214 A 
HETATM    9  N   UNL     1      23.893  43.717  50.009  1.00  0.00    -0.235 NA
HETATM   10  C   UNL     1      25.330  47.058  49.590  1.00  0.00    -0.021 A 
HETATM   11  C   UNL     1      26.492  48.001  49.672  1.00  0.00     0.051 C 
ENDROOT
BRANCH   7  12
HETATM   12  C   UNL     1      27.106  42.724  51.490  1.00  0.00     0.236 C 
BRANCH  12  13
HETATM   13  C   UNL     1      27.315  43.304  52.896  1.00  0.00     0.240 C 
HETATM   14  N   UNL     1      28.643  43.599  53.165  1.00  0.00    -0.326 N 
HETATM   15  H   UNL     1      29.320  43.412  52.435  1.00  0.00     0.169 HD
HETATM   16  O   UNL     1      26.378  43.413  53.682  1.00  0.00    -0.271 OA
BRANCH  14  17
HETATM   17  C   UNL     1      29.169  44.147  54.356  1.00  0.00     0.036 A 
HETATM   18  C   UNL     1      30.210  43.576  55.090  1.00  0.00     0.053 A 
HETATM   19  C   UNL     1      30.666  44.180  56.269  1.00  0.00     0.042 A 
HETATM   20 CL   UNL     1      31.949  43.401  57.129  1.00  0.00    -0.084 Cl
HETATM   21  C   UNL     1      30.095  45.372  56.734  1.00  0.00    -0.040 A 
HETATM   22  C   UNL     1      30.561  46.039  57.998  1.00  0.00     0.050 C 
HETATM   23  C   UNL     1      29.049  45.941  55.996  1.00  0.00     0.011 A 
HETATM   24  C   UNL     1      28.591  45.334  54.822  1.00  0.00     0.030 A 
ENDBRANCH  14  17
ENDBRANCH  12  13
ENDBRANCH   7  12
BRANCH   1  25
HETATM   25  C   UNL     1      23.530  48.733  48.850  1.00  0.00     0.259 C 
HETATM   26  N   UNL     1      22.611  49.286  49.731  1.00  0.00    -0.355 N 
HETATM   27  H   UNL     1      22.555  48.807  50.626  1.00  0.00     0.162 HD
HETATM   28  O   UNL     1      23.849  49.350  47.837  1.00  0.00    -0.267 OA
BRANCH  26  29
HETATM   29  C   UNL     1      22.307  50.711  49.716  1.00  0.00     0.150 C 
BRANCH  29  30
HETATM   30  C   UNL     1      20.916  51.088  50.262  1.00  0.00     0.254 C 
BRANCH  30  31
HETATM   31  N   UNL     1      19.810  50.281  49.588  1.00  0.00    -0.070 N 
HETATM   32  H   UNL     1      20.298  49.433  49.264  1.00  0.00     0.279 HD
BRANCH  31  33
HETATM   33  C   UNL     1      19.265  50.951  48.344  1.00  0.00     0.230 C 
HETATM   34  C   UNL     1      18.925  52.406  48.614  1.00  0.00     0.034 C 
ENDBRANCH  31  33
BRANCH  31  35
HETATM   35  C   UNL     1      18.723  49.779  50.512  1.00  0.00     0.230 C 
HETATM   36  C   UNL     1      18.534  48.276  50.429  1.00  0.00     0.034 C 
ENDBRANCH  31  35
ENDBRANCH  30  31
ENDBRANCH  29  30
ENDBRANCH  26  29
ENDBRANCH   1  25
TORSDOF 9
ENDMDL
MODEL 2
REMARK VINA RESULT:      -9.0      1.605      2.282
REMARK  9 active torsions:
REMARK  status: ('A' for Active; 'I' for Inactive)
REMARK    1  A    between atoms: C_2  and  N_3 
REMARK    2  A    between atoms: N_3  and  C_5 
REMARK    3  A    between atoms: N_3  and  C_33 
REMARK    4  A    between atoms: C_5  and  C_6 
REMARK    5  A    between atoms: C_6  and  N_7 
REMARK       I    between atoms: N_7  and  C_8 
REMARK    6  A    between atoms: C_8  and  C_9 
REMARK    7  A    between atoms: N_15  and  C_16 
REMARK    8  A    between atoms: C_16  and  C_17 
REMARK       I    between atoms: C_17  and  N_18 
REMARK    9  A    between atoms: N_18  and  C_19 
ROOT
HETATM    1  C   UNL     1      22.885  46.433  48.772  1.00  0.00     0.081 A 
HETATM    2  S   UNL     1      23.903  47.570  49.557  1.00  0.00    -0.063 SA
HETATM    3  C   UNL     1      24.761  46.355  50.372  1.00  0.00     0.116 A 
HETATM    4  C   UNL     1      24.288  45.098  50.071  1.00  0.00     0.075 A 
HETATM    5  C   UNL     1      24.999  43.964  50.651  1.00  0.00     0.262 A 
HETATM    6  O   UNL     1      24.692  42.797  50.420  1.00  0.00    -0.267 OA
HETATM    7  N   UNL     1      26.071  44.320  51.467  1.00  0.00    -0.299 N 
HETATM    8  C   UNL     1      26.421  45.641  51.670  1.00  0.00     0.214 A 
HETATM    9  N   UNL     1      25.802  46.668  51.182  1.00  0.00    -0.235 NA
HETATM   10  C   UNL     1      23.149  45.130  49.182  1.00  0.00    -0.021 A 
HETATM   11  C   UNL     1      22.410  43.917  48.700  1.00  0.00     0.051 C 
ENDROOT
BRANCH   7  12
HETATM   12  C   UNL     1      26.940  43.260  51.954  1.00  0.00     0.236 C 
BRANCH  12  13
HETATM   13  C   UNL     1      27.304  43.543  53.418  1.00  0.00     0.240 C 
HETATM   14  N   UNL     1      28.593  44.031  53.568  1.00  0.00    -0.326 N 
HETATM   15  H   UNL     1      29.148  44.152  52.728  1.00  0.00     0.169 HD
HETATM   16  O   UNL     1      26.520  43.283  54.327  1.00  0.00    -0.271 OA
BRANCH  14  17
HETATM   17  C   UNL     1      29.231  44.396  54.775  1.00  0.00     0.036 A 
HETATM   18  C   UNL     1      30.285  43.685  55.351  1.00  0.00     0.053 A 
HETATM   19  C   UNL     1      30.855  44.109  56.559  1.00  0.00     0.042 A 
HETATM   20 CL   UNL     1      32.146  43.164  57.216  1.00  0.00    -0.084 Cl
HETATM   21  C   UNL     1      30.387  45.258  57.211  1.00  0.00    -0.040 A 
HETATM   22  C   UNL     1      30.977  45.733  58.509  1.00  0.00     0.050 C 
HETATM   23  C   UNL     1      29.328  45.967  56.630  1.00  0.00     0.011 A 
HETATM   24  C   UNL     1      28.756  45.539  55.427  1.00  0.00     0.030 A 
ENDBRANCH  14  17
ENDBRANCH  12  13
ENDBRANCH   7  12
BRANCH   1  25
HETATM   25  C   UNL     1      21.891  46.909  47.824  1.00  0.00     0.259 C 
HETATM   26  N   UNL     1      20.738  47.440  48.384  1.00  0.00    -0.355 N 
HETATM   27  H   UNL     1      20.808  47.622  49.382  1.00  0.00     0.162 HD
HETATM   28  O   UNL     1      22.006  46.859  46.602  1.00  0.00    -0.267 OA
BRANCH  26  29
HETATM   29  C   UNL     1      19.840  48.289  47.612  1.00  0.00     0.150 C 
BRANCH  29  30
HETATM   30  C   UNL     1      20.136  49.799  47.695  1.00  0.00     0.254 C 
BRANCH  30  31
HETATM   31  N   UNL     1      19.625  50.401  49.001  1.00  0.00    -0.070 N 
HETATM   32  H   UNL     1      19.245  51.315  48.710  1.00  0.00     0.279 HD
BRANCH  31  33
HETATM   33  C   UNL     1      20.734  50.705  49.986  1.00  0.00     0.230 C 
HETATM   34  C   UNL     1      22.058  50.907  49.269  1.00  0.00     0.034 C 
ENDBRANCH  31  33
BRANCH  31  35
HETATM   35  C   UNL     1      18.458  49.676  49.633  1.00  0.00     0.230 C 
HETATM   36  C   UNL     1      18.764  49.191  51.039  1.00  0.00     0.034 C 
ENDBRANCH  31  35
ENDBRANCH  30  31
ENDBRANCH  29  30
ENDBRANCH  26  29
ENDBRANCH   1  25
TORSDOF 9
ENDMDL
MODEL 3
REMARK VINA RESULT:      -8.7      1.900      2.851
REMARK  9 active torsions:
REMARK  status: ('A' for Active; 'I' for Inactive)
REMARK    1  A    between atoms: C_2  and  N_3 
REMARK    2  A    between atoms: N_3  and  C_5 
REMARK    3  A    between atoms: N_3  and  C_33 
REMARK    4  A    between atoms: C_5  and  C_6 
REMARK    5  A    between atoms: C_6  and  N_7 
REMARK       I    between atoms: N_7  and  C_8 
REMARK    6  A    between atoms: C_8  and  C_9 
REMARK    7  A    between atoms: N_15  and  C_16 
REMARK    8  A    between atoms: C_16  and  C_17 
REMARK       I    between atoms: C_17  and  N_18 
REMARK    9  A    between atoms: N_18  and  C_19 
ROOT
HETATM    1  C   UNL     1      22.596  46.543  48.487  1.00  0.00     0.081 A 
HETATM    2  S   UNL     1      23.638  47.712  49.188  1.00  0.00    -0.063 SA
HETATM    3  C   UNL     1      24.552  46.530  49.990  1.00  0.00     0.116 A 
HETATM    4  C   UNL     1      24.079  45.260  49.748  1.00  0.00     0.075 A 
HETATM    5  C   UNL     1      24.833  44.149  50.320  1.00  0.00     0.262 A 
HETATM    6  O   UNL     1      24.529  42.973  50.137  1.00  0.00    -0.267 OA
HETATM    7  N   UNL     1      25.940  44.539  51.070  1.00  0.00    -0.299 N 
HETATM    8  C   UNL     1      26.285  45.869  51.220  1.00  0.00     0.214 A 
HETATM    9  N   UNL     1      25.629  46.875  50.736  1.00  0.00    -0.235 NA
HETATM   10  C   UNL     1      22.896  45.254  48.918  1.00  0.00    -0.021 A 
HETATM   11  C   UNL     1      22.149  44.021  48.507  1.00  0.00     0.051 C 
ENDROOT
BRANCH   7  12
HETATM   12  C   UNL     1      26.847  43.502  51.540  1.00  0.00     0.236 C 
BRANCH  12  13
HETATM   13  C   UNL     1      27.202  43.775  53.008  1.00  0.00     0.240 C 
HETATM   14  N   UNL     1      28.569  43.855  53.225  1.00  0.00    -0.326 N 
HETATM   15  H   UNL     1      29.178  43.735  52.424  1.00  0.00     0.169 HD
HETATM   16  O   UNL     1      26.329  43.839  53.869  1.00  0.00    -0.271 OA
BRANCH  14  17
HETATM   17  C   UNL     1      29.223  44.101  54.453  1.00  0.00     0.036 A 
HETATM   18  C   UNL     1      28.820  45.064  55.379  1.00  0.00     0.053 A 
HETATM   19  C   UNL     1      29.533  45.252  56.570  1.00  0.00     0.042 A 
HETATM   20 CL   UNL     1      28.977  46.477  57.657  1.00  0.00    -0.084 Cl
HETATM   21  C   UNL     1      30.662  44.474  56.863  1.00  0.00    -0.040 A 
HETATM   22  C   UNL     1      31.448  44.658  58.130  1.00  0.00     0.050 C 
HETATM   23  C   UNL     1      31.065  43.511  55.930  1.00  0.00     0.011 A 
HETATM   24  C   UNL     1      30.355  43.328  54.739  1.00  0.00     0.030 A 
ENDBRANCH  14  17
ENDBRANCH  12  13
ENDBRANCH   7  12
BRANCH   1  25
HETATM   25  C   UNL     1      21.548  46.982  47.579  1.00  0.00     0.259 C 
HETATM   26  N   UNL     1      20.382  47.426  48.184  1.00  0.00    -0.355 N 
HETATM   27  H   UNL     1      20.468  47.585  49.185  1.00  0.00     0.162 HD
HETATM   28  O   UNL     1      21.632  46.972  46.354  1.00  0.00    -0.267 OA
BRANCH  26  29
HETATM   29  C   UNL     1      19.412  48.239  47.461  1.00  0.00     0.150 C 
BRANCH  29  30
HETATM   30  C   UNL     1      18.785  49.387  48.275  1.00  0.00     0.254 C 
BRANCH  30  31
HETATM   31  N   UNL     1      19.752  49.925  49.325  1.00  0.00    -0.070 N 
HETATM   32  H   UNL     1      20.498  49.214  49.348  1.00  0.00     0.279 HD
BRANCH  31  33
HETATM   33  C   UNL     1      19.158  49.952  50.717  1.00  0.00     0.230 C 
HETATM   34  C   UNL     1      18.595  48.593  51.096  1.00  0.00     0.034 C 
ENDBRANCH  31  33
BRANCH  31  35
HETATM   35  C   UNL     1      20.452  51.215  48.957  1.00  0.00     0.230 C 
HETATM   36  C   UNL     1      21.899  50.999  48.554  1.00  0.00     0.034 C 
ENDBRANCH  31  35
ENDBRANCH  30  31
ENDBRANCH  29  30
ENDBRANCH  26  29
ENDBRANCH   1  25
TORSDOF 9
ENDMDL
MODEL 4
REMARK VINA RESULT:      -8.7      1.047      1.376
REMARK  9 active torsions:
REMARK  status: ('A' for Active; 'I' for Inactive)
REMARK    1  A    between atoms: C_2  and  N_3 
REMARK    2  A    between atoms: N_3  and  C_5 
REMARK    3  A    between atoms: N_3  and  C_33 
REMARK    4  A    between atoms: C_5  and  C_6 
REMARK    5  A    between atoms: C_6  and  N_7 
REMARK       I    between atoms: N_7  and  C_8 
REMARK    6  A    between atoms: C_8  and  C_9 
REMARK    7  A    between atoms: N_15  and  C_16 
REMARK    8  A    between atoms: C_16  and  C_17 
REMARK       I    between atoms: C_17  and  N_18 
REMARK    9  A    between atoms: N_18  and  C_19 
ROOT
HETATM    1  C   UNL     1      24.034  47.743  49.080  1.00  0.00     0.081 A 
HETATM    2  S   UNL     1      22.953  46.418  48.942  1.00  0.00    -0.063 SA
HETATM    3  C   UNL     1      24.174  45.288  49.276  1.00  0.00     0.116 A 
HETATM    4  C   UNL     1      25.394  45.892  49.483  1.00  0.00     0.075 A 
HETATM    5  C   UNL     1      26.508  45.029  49.858  1.00  0.00     0.262 A 
HETATM    6  O   UNL     1      27.631  45.460  50.106  1.00  0.00    -0.267 OA
HETATM    7  N   UNL     1      26.180  43.677  49.935  1.00  0.00    -0.299 N 
HETATM    8  C   UNL     1      24.896  43.226  49.695  1.00  0.00     0.214 A 
HETATM    9  N   UNL     1      23.892  43.965  49.347  1.00  0.00    -0.235 NA
HETATM   10  C   UNL     1      25.342  47.326  49.311  1.00  0.00    -0.021 A 
HETATM   11  C   UNL     1      26.519  48.244  49.450  1.00  0.00     0.051 C 
ENDROOT
BRANCH   7  12
HETATM   12  C   UNL     1      27.180  42.761  50.462  1.00  0.00     0.236 C 
BRANCH  12  13
HETATM   13  C   UNL     1      27.388  43.050  51.955  1.00  0.00     0.240 C 
HETATM   14  N   UNL     1      28.701  43.369  52.264  1.00  0.00    -0.326 N 
HETATM   15  H   UNL     1      29.370  43.384  51.503  1.00  0.00     0.169 HD
HETATM   16  O   UNL     1      26.466  42.931  52.758  1.00  0.00    -0.271 OA
BRANCH  14  17
HETATM   17  C   UNL     1      29.223  43.693  53.537  1.00  0.00     0.036 A 
HETATM   18  C   UNL     1      28.714  44.699  54.360  1.00  0.00     0.053 A 
HETATM   19  C   UNL     1      29.299  44.964  55.606  1.00  0.00     0.042 A 
HETATM   20 CL   UNL     1      28.620  46.237  56.560  1.00  0.00    -0.084 Cl
HETATM   21  C   UNL     1      30.400  44.224  56.056  1.00  0.00    -0.040 A 
HETATM   22  C   UNL     1      31.050  44.491  57.385  1.00  0.00     0.050 C 
HETATM   23  C   UNL     1      30.909  43.217  55.226  1.00  0.00     0.011 A 
HETATM   24  C   UNL     1      30.327  42.957  53.980  1.00  0.00     0.030 A 
ENDBRANCH  14  17
ENDBRANCH  12  13
ENDBRANCH   7  12
BRANCH   1  25
HETATM   25  C   UNL     1      23.519  49.095  48.934  1.00  0.00     0.259 C 
HETATM   26  N   UNL     1      22.497  49.442  49.805  1.00  0.00    -0.355 N 
HETATM   27  H   UNL     1      22.367  48.789  50.573  1.00  0.00     0.162 HD
HETATM   28  O   UNL     1      23.918  49.912  48.107  1.00  0.00    -0.267 OA
BRANCH  26  29
HETATM   29  C   UNL     1      22.146  50.836  50.048  1.00  0.00     0.150 C 
BRANCH  29  30
HETATM   30  C   UNL     1      20.667  51.085  50.402  1.00  0.00     0.254 C 
BRANCH  30  31
HETATM   31  N   UNL     1      19.731  50.282  49.503  1.00  0.00    -0.070 N 
HETATM   32  H   UNL     1      20.321  49.498  49.184  1.00  0.00     0.279 HD
BRANCH  31  33
HETATM   33  C   UNL     1      19.324  51.033  48.253  1.00  0.00     0.230 C 
HETATM   34  C   UNL     1      18.606  52.324  48.604  1.00  0.00     0.034 C 
ENDBRANCH  31  33
BRANCH  31  35
HETATM   35  C   UNL     1      18.562  49.630  50.207  1.00  0.00     0.230 C 
HETATM   36  C   UNL     1      18.433  48.153  49.881  1.00  0.00     0.034 C 
ENDBRANCH  31  35
ENDBRANCH  30  31
ENDBRANCH  29  30
ENDBRANCH  26  29
ENDBRANCH   1  25
TORSDOF 9
ENDMDL
MODEL 5
REMARK VINA RESULT:      -8.6      2.473      3.968
REMARK  9 active torsions:
REMARK  status: ('A' for Active; 'I' for Inactive)
REMARK    1  A    between atoms: C_2  and  N_3 
REMARK    2  A    between atoms: N_3  and  C_5 
REMARK    3  A    between atoms: N_3  and  C_33 
REMARK    4  A    between atoms: C_5  and  C_6 
REMARK    5  A    between atoms: C_6  and  N_7 
REMARK       I    between atoms: N_7  and  C_8 
REMARK    6  A    between atoms: C_8  and  C_9 
REMARK    7  A    between atoms: N_15  and  C_16 
REMARK    8  A    between atoms: C_16  and  C_17 
REMARK       I    between atoms: C_17  and  N_18 
REMARK    9  A    between atoms: N_18  and  C_19 
ROOT
HETATM    1  C   UNL     1      21.356  49.376  48.836  1.00  0.00     0.081 A 
HETATM    2  S   UNL     1      22.846  50.041  49.368  1.00  0.00    -0.063 SA
HETATM    3  C   UNL     1      23.585  48.516  49.451  1.00  0.00     0.116 A 
HETATM    4  C   UNL     1      22.724  47.505  49.092  1.00  0.00     0.075 A 
HETATM    5  C   UNL     1      23.268  46.152  49.047  1.00  0.00     0.262 A 
HETATM    6  O   UNL     1      22.604  45.178  48.703  1.00  0.00    -0.267 OA
HETATM    7  N   UNL     1      24.612  46.067  49.404  1.00  0.00    -0.299 N 
HETATM    8  C   UNL     1      25.346  47.188  49.743  1.00  0.00     0.214 A 
HETATM    9  N   UNL     1      24.888  48.397  49.805  1.00  0.00    -0.235 NA
HETATM   10  C   UNL     1      21.395  47.986  48.788  1.00  0.00    -0.021 A 
HETATM   11  C   UNL     1      20.243  47.113  48.390  1.00  0.00     0.051 C 
ENDROOT
BRANCH   7  12
HETATM   12  C   UNL     1      25.286  44.790  49.230  1.00  0.00     0.236 C 
BRANCH  12  13
HETATM   13  C   UNL     1      26.579  44.788  50.056  1.00  0.00     0.240 C 
HETATM   14  N   UNL     1      26.409  44.244  51.321  1.00  0.00    -0.326 N 
HETATM   15  H   UNL     1      25.484  43.911  51.566  1.00  0.00     0.169 HD
HETATM   16  O   UNL     1      27.612  45.288  49.619  1.00  0.00    -0.271 OA
BRANCH  14  17
HETATM   17  C   UNL     1      27.395  44.089  52.321  1.00  0.00     0.036 A 
HETATM   18  C   UNL     1      27.461  44.857  53.485  1.00  0.00     0.053 A 
HETATM   19  C   UNL     1      28.480  44.645  54.422  1.00  0.00     0.042 A 
HETATM   20 CL   UNL     1      28.500  45.649  55.831  1.00  0.00    -0.084 Cl
HETATM   21  C   UNL     1      29.451  43.655  54.218  1.00  0.00    -0.040 A 
HETATM   22  C   UNL     1      30.559  43.411  55.205  1.00  0.00     0.050 C 
HETATM   23  C   UNL     1      29.384  42.889  53.048  1.00  0.00     0.011 A 
HETATM   24  C   UNL     1      28.368  43.105  52.110  1.00  0.00     0.030 A 
ENDBRANCH  14  17
ENDBRANCH  12  13
ENDBRANCH   7  12
BRANCH   1  25
HETATM   25  C   UNL     1      20.253  50.270  48.522  1.00  0.00     0.259 C 
HETATM   26  N   UNL     1      19.529  50.730  49.612  1.00  0.00    -0.355 N 
HETATM   27  H   UNL     1      19.974  50.554  50.510  1.00  0.00     0.162 HD
HETATM   28  O   UNL     1      19.934  50.620  47.389  1.00  0.00    -0.267 OA
BRANCH  26  29
HETATM   29  C   UNL     1      18.666  51.900  49.513  1.00  0.00     0.150 C 
BRANCH  29  30
HETATM   30  C   UNL     1      17.161  51.619  49.686  1.00  0.00     0.254 C 
BRANCH  30  31
HETATM   31  N   UNL     1      16.357  52.102  48.482  1.00  0.00    -0.070 N 
HETATM   32  H   UNL     1      17.051  52.623  47.925  1.00  0.00     0.279 HD
BRANCH  31  33
HETATM   33  C   UNL     1      15.283  53.103  48.852  1.00  0.00     0.230 C 
HETATM   34  C   UNL     1      14.697  52.793  50.218  1.00  0.00     0.034 C 
ENDBRANCH  31  33
BRANCH  31  35
HETATM   35  C   UNL     1      15.854  51.012  47.562  1.00  0.00     0.230 C 
HETATM   36  C   UNL     1      16.061  49.622  48.136  1.00  0.00     0.034 C 
ENDBRANCH  31  35
ENDBRANCH  30  31
ENDBRANCH  29  30
ENDBRANCH  26  29
ENDBRANCH   1  25
TORSDOF 9
ENDMDL
MODEL 6
REMARK VINA RESULT:      -8.5      3.568     10.534
REMARK  9 active torsions:
REMARK  status: ('A' for Active; 'I' for Inactive)
REMARK    1  A    between atoms: C_2  and  N_3 
REMARK    2  A    between atoms: N_3  and  C_5 
REMARK    3  A    between atoms: N_3  and  C_33 
REMARK    4  A    between atoms: C_5  and  C_6 
REMARK    5  A    between atoms: C_6  and  N_7 
REMARK       I    between atoms: N_7  and  C_8 
REMARK    6  A    between atoms: C_8  and  C_9 
REMARK    7  A    between atoms: N_15  and  C_16 
REMARK    8  A    between atoms: C_16  and  C_17 
REMARK       I    between atoms: C_17  and  N_18 
REMARK    9  A    between atoms: N_18  and  C_19 
ROOT
HETATM    1  C   UNL     1      25.925  44.192  52.647  1.00  0.00     0.081 A 
HETATM    2  S   UNL     1      24.781  43.421  51.626  1.00  0.00    -0.063 SA
HETATM    3  C   UNL     1      24.459  44.853  50.776  1.00  0.00     0.116 A 
HETATM    4  C   UNL     1      25.195  45.914  51.253  1.00  0.00     0.075 A 
HETATM    5  C   UNL     1      25.065  47.185  50.549  1.00  0.00     0.262 A 
HETATM    6  O   UNL     1      25.702  48.187  50.860  1.00  0.00    -0.267 OA
HETATM    7  N   UNL     1      24.174  47.153  49.478  1.00  0.00    -0.299 N 
HETATM    8  C   UNL     1      23.506  45.997  49.123  1.00  0.00     0.214 A 
HETATM    9  N   UNL     1      23.591  44.860  49.736  1.00  0.00    -0.235 NA
HETATM   10  C   UNL     1      26.014  45.557  52.390  1.00  0.00    -0.021 A 
HETATM   11  C   UNL     1      26.902  46.509  53.132  1.00  0.00     0.051 C 
ENDROOT
BRANCH   7  12
HETATM   12  C   UNL     1      24.102  48.322  48.615  1.00  0.00     0.236 C 
BRANCH  12  13
HETATM   13  C   UNL     1      22.629  48.650  48.336  1.00  0.00     0.240 C 
HETATM   14  N   UNL     1      22.017  49.318  49.386  1.00  0.00    -0.326 N 
HETATM   15  H   UNL     1      22.581  49.520  50.203  1.00  0.00     0.169 HD
HETATM   16  O   UNL     1      22.082  48.277  47.301  1.00  0.00    -0.271 OA
BRANCH  14  17
HETATM   17  C   UNL     1      20.679  49.766  49.446  1.00  0.00     0.036 A 
HETATM   18  C   UNL     1      19.568  48.952  49.221  1.00  0.00     0.053 A 
HETATM   19  C   UNL     1      18.272  49.480  49.289  1.00  0.00     0.042 A 
HETATM   20 CL   UNL     1      16.948  48.410  48.982  1.00  0.00    -0.084 Cl
HETATM   21  C   UNL     1      18.060  50.833  49.590  1.00  0.00    -0.040 A 
HETATM   22  C   UNL     1      16.682  51.427  49.664  1.00  0.00     0.050 C 
HETATM   23  C   UNL     1      19.178  51.647  49.812  1.00  0.00     0.011 A 
HETATM   24  C   UNL     1      20.472  51.119  49.739  1.00  0.00     0.030 A 
ENDBRANCH  14  17
ENDBRANCH  12  13
ENDBRANCH   7  12
BRANCH   1  25
HETATM   25  C   UNL     1      26.638  43.401  53.636  1.00  0.00     0.259 C 
HETATM   26  N   UNL     1      27.802  42.793  53.189  1.00  0.00    -0.355 N 
HETATM   27  H   UNL     1      28.128  43.134  52.288  1.00  0.00     0.162 HD
HETATM   28  O   UNL     1      26.276  43.240  54.799  1.00  0.00    -0.267 OA
BRANCH  26  29
HETATM   29  C   UNL     1      28.810  42.302  54.120  1.00  0.00     0.150 C 
BRANCH  29  30
HETATM   30  C   UNL     1      30.059  43.194  54.261  1.00  0.00     0.254 C 
BRANCH  30  31
HETATM   31  N   UNL     1      30.065  43.946  55.589  1.00  0.00    -0.070 N 
HETATM   32  H   UNL     1      29.584  43.299  56.232  1.00  0.00     0.279 HD
BRANCH  31  33
HETATM   33  C   UNL     1      29.227  45.206  55.559  1.00  0.00     0.230 C 
HETATM   34  C   UNL     1      29.320  45.953  56.878  1.00  0.00     0.034 C 
ENDBRANCH  31  33
BRANCH  31  35
HETATM   35  C   UNL     1      31.432  44.162  56.201  1.00  0.00     0.230 C 
HETATM   36  C   UNL     1      31.785  43.102  57.229  1.00  0.00     0.034 C 
ENDBRANCH  31  35
ENDBRANCH  30  31
ENDBRANCH  29  30
ENDBRANCH  26  29
ENDBRANCH   1  25
TORSDOF 9
ENDMDL
MODEL 7
REMARK VINA RESULT:      -8.5      1.975      2.911
REMARK  9 active torsions:
REMARK  status: ('A' for Active; 'I' for Inactive)
REMARK    1  A    between atoms: C_2  and  N_3 
REMARK    2  A    between atoms: N_3  and  C_5 
REMARK    3  A    between atoms: N_3  and  C_33 
REMARK    4  A    between atoms: C_5  and  C_6 
REMARK    5  A    between atoms: C_6  and  N_7 
REMARK       I    between atoms: N_7  and  C_8 
REMARK    6  A    between atoms: C_8  and  C_9 
REMARK    7  A    between atoms: N_15  and  C_16 
REMARK    8  A    between atoms: C_16  and  C_17 
REMARK       I    between atoms: C_17  and  N_18 
REMARK    9  A    between atoms: N_18  and  C_19 
ROOT
HETATM    1  C   UNL     1      23.110  44.768  49.098  1.00  0.00     0.081 A 
HETATM    2  S   UNL     1      24.166  46.037  49.563  1.00  0.00    -0.063 SA
HETATM    3  C   UNL     1      25.295  44.958  50.226  1.00  0.00     0.116 A 
HETATM    4  C   UNL     1      24.887  43.649  50.112  1.00  0.00     0.075 A 
HETATM    5  C   UNL     1      25.813  42.621  50.573  1.00  0.00     0.262 A 
HETATM    6  O   UNL     1      25.572  41.419  50.485  1.00  0.00    -0.267 OA
HETATM    7  N   UNL     1      27.002  43.120  51.100  1.00  0.00    -0.299 N 
HETATM    8  C   UNL     1      27.264  44.476  51.144  1.00  0.00     0.214 A 
HETATM    9  N   UNL     1      26.457  45.412  50.755  1.00  0.00    -0.235 NA
HETATM   10  C   UNL     1      23.579  43.524  49.508  1.00  0.00    -0.021 A 
HETATM   11  C   UNL     1      22.868  42.225  49.277  1.00  0.00     0.051 C 
ENDROOT
BRANCH   7  12
HETATM   12  C   UNL     1      28.054  42.172  51.432  1.00  0.00     0.236 C 
BRANCH  12  13
HETATM   13  C   UNL     1      28.440  42.347  52.907  1.00  0.00     0.240 C 
HETATM   14  N   UNL     1      29.006  43.585  53.172  1.00  0.00    -0.326 N 
HETATM   15  H   UNL     1      29.103  44.230  52.396  1.00  0.00     0.169 HD
HETATM   16  O   UNL     1      28.301  41.430  53.712  1.00  0.00    -0.271 OA
BRANCH  14  17
HETATM   17  C   UNL     1      29.462  44.064  54.420  1.00  0.00     0.036 A 
HETATM   18  C   UNL     1      30.495  43.480  55.156  1.00  0.00     0.053 A 
HETATM   19  C   UNL     1      30.878  44.012  56.394  1.00  0.00     0.042 A 
HETATM   20 CL   UNL     1      32.156  43.221  57.250  1.00  0.00    -0.084 Cl
HETATM   21  C   UNL     1      30.241  45.145  56.919  1.00  0.00    -0.040 A 
HETATM   22  C   UNL     1      30.629  45.733  58.246  1.00  0.00     0.050 C 
HETATM   23  C   UNL     1      29.203  45.726  56.179  1.00  0.00     0.011 A 
HETATM   24  C   UNL     1      28.818  45.190  54.946  1.00  0.00     0.030 A 
ENDBRANCH  14  17
ENDBRANCH  12  13
ENDBRANCH   7  12
BRANCH   1  25
HETATM   25  C   UNL     1      21.887  45.091  48.380  1.00  0.00     0.259 C 
HETATM   26  N   UNL     1      20.891  45.689  49.136  1.00  0.00    -0.355 N 
HETATM   27  H   UNL     1      21.201  46.016  50.048  1.00  0.00     0.162 HD
HETATM   28  O   UNL     1      21.693  44.864  47.188  1.00  0.00    -0.267 OA
BRANCH  26  29
HETATM   29  C   UNL     1      19.789  46.409  48.510  1.00  0.00     0.150 C 
BRANCH  29  30
HETATM   30  C   UNL     1      20.040  47.911  48.273  1.00  0.00     0.254 C 
BRANCH  30  31
HETATM   31  N   UNL     1      20.495  48.613  49.549  1.00  0.00    -0.070 N 
HETATM   32  H   UNL     1      20.803  47.835  50.152  1.00  0.00     0.279 HD
BRANCH  31  33
HETATM   33  C   UNL     1      19.361  49.290  50.288  1.00  0.00     0.230 C 
HETATM   34  C   UNL     1      18.154  49.471  49.384  1.00  0.00     0.034 C 
ENDBRANCH  31  33
BRANCH  31  35
HETATM   35  C   UNL     1      21.713  49.498  49.400  1.00  0.00     0.230 C 
HETATM   36  C   UNL     1      21.379  50.854  48.804  1.00  0.00     0.034 C 
ENDBRANCH  31  35
ENDBRANCH  30  31
ENDBRANCH  29  30
ENDBRANCH  26  29
ENDBRANCH   1  25
TORSDOF 9
ENDMDL
MODEL 8
REMARK VINA RESULT:      -8.4      1.992      2.833
REMARK  9 active torsions:
REMARK  status: ('A' for Active; 'I' for Inactive)
REMARK    1  A    between atoms: C_2  and  N_3 
REMARK    2  A    between atoms: N_3  and  C_5 
REMARK    3  A    between atoms: N_3  and  C_33 
REMARK    4  A    between atoms: C_5  and  C_6 
REMARK    5  A    between atoms: C_6  and  N_7 
REMARK       I    between atoms: N_7  and  C_8 
REMARK    6  A    between atoms: C_8  and  C_9 
REMARK    7  A    between atoms: N_15  and  C_16 
REMARK    8  A    between atoms: C_16  and  C_17 
REMARK       I    between atoms: C_17  and  N_18 
REMARK    9  A    between atoms: N_18  and  C_19 
ROOT
HETATM    1  C   UNL     1      23.800  43.767  48.841  1.00  0.00     0.081 A 
HETATM    2  S   UNL     1      23.508  42.079  48.743  1.00  0.00    -0.063 SA
HETATM    3  C   UNL     1      25.037  41.699  49.371  1.00  0.00     0.116 A 
HETATM    4  C   UNL     1      25.775  42.827  49.650  1.00  0.00     0.075 A 
HETATM    5  C   UNL     1      27.080  42.631  50.272  1.00  0.00     0.262 A 
HETATM    6  O   UNL     1      27.808  43.564  50.601  1.00  0.00    -0.267 OA
HETATM    7  N   UNL     1      27.415  41.296  50.483  1.00  0.00    -0.299 N 
HETATM    8  C   UNL     1      26.555  40.268  50.144  1.00  0.00     0.214 A 
HETATM    9  N   UNL     1      25.399  40.410  49.579  1.00  0.00    -0.235 NA
HETATM   10  C   UNL     1      25.088  44.046  49.287  1.00  0.00    -0.021 A 
HETATM   11  C   UNL     1      25.654  45.424  49.452  1.00  0.00     0.051 C 
ENDROOT
BRANCH   7  12
HETATM   12  C   UNL     1      28.619  41.006  51.246  1.00  0.00     0.236 C 
BRANCH  12  13
HETATM   13  C   UNL     1      28.504  41.657  52.631  1.00  0.00     0.240 C 
HETATM   14  N   UNL     1      29.472  42.624  52.855  1.00  0.00    -0.326 N 
HETATM   15  H   UNL     1      30.135  42.802  52.109  1.00  0.00     0.169 HD
HETATM   16  O   UNL     1      27.663  41.276  53.442  1.00  0.00    -0.271 OA
BRANCH  14  17
HETATM   17  C   UNL     1      29.639  43.410  54.016  1.00  0.00     0.036 A 
HETATM   18  C   UNL     1      30.621  43.185  54.982  1.00  0.00     0.053 A 
HETATM   19  C   UNL     1      30.711  44.007  56.113  1.00  0.00     0.042 A 
HETATM   20 CL   UNL     1      31.945  43.651  57.272  1.00  0.00    -0.084 Cl
HETATM   21  C   UNL     1      29.824  45.077  56.298  1.00  0.00    -0.040 A 
HETATM   22  C   UNL     1      29.895  45.971  57.504  1.00  0.00     0.050 C 
HETATM   23  C   UNL     1      28.839  45.298  55.327  1.00  0.00     0.011 A 
HETATM   24  C   UNL     1      28.747  44.473  54.201  1.00  0.00     0.030 A 
ENDBRANCH  14  17
ENDBRANCH  12  13
ENDBRANCH   7  12
BRANCH   1  25
HETATM   25  C   UNL     1      22.746  44.692  48.456  1.00  0.00     0.259 C 
HETATM   26  N   UNL     1      22.679  45.862  49.198  1.00  0.00    -0.355 N 
HETATM   27  H   UNL     1      23.493  46.029  49.784  1.00  0.00     0.162 HD
HETATM   28  O   UNL     1      21.938  44.498  47.552  1.00  0.00    -0.267 OA
BRANCH  26  29
HETATM   29  C   UNL     1      21.958  47.031  48.710  1.00  0.00     0.150 C 
BRANCH  29  30
HETATM   30  C   UNL     1      22.505  48.386  49.198  1.00  0.00     0.254 C 
BRANCH  30  31
HETATM   31  N   UNL     1      21.384  49.307  49.672  1.00  0.00    -0.070 N 
HETATM   32  H   UNL     1      21.382  49.173  50.694  1.00  0.00     0.279 HD
BRANCH  31  33
HETATM   33  C   UNL     1      20.017  48.871  49.191  1.00  0.00     0.230 C 
HETATM   34  C   UNL     1      19.059  48.697  50.357  1.00  0.00     0.034 C 
ENDBRANCH  31  33
BRANCH  31  35
HETATM   35  C   UNL     1      21.636  50.785  49.472  1.00  0.00     0.230 C 
HETATM   36  C   UNL     1      20.634  51.425  48.528  1.00  0.00     0.034 C 
ENDBRANCH  31  35
ENDBRANCH  30  31
ENDBRANCH  29  30
ENDBRANCH  26  29
ENDBRANCH   1  25
TORSDOF 9
ENDMDL
MODEL 9
REMARK VINA RESULT:      -8.4      4.069     10.937
REMARK  9 active torsions:
REMARK  status: ('A' for Active; 'I' for Inactive)
REMARK    1  A    between atoms: C_2  and  N_3 
REMARK    2  A    between atoms: N_3  and  C_5 
REMARK    3  A    between atoms: N_3  and  C_33 
REMARK    4  A    between atoms: C_5  and  C_6 
REMARK    5  A    between atoms: C_6  and  N_7 
REMARK       I    between atoms: N_7  and  C_8 
REMARK    6  A    between atoms: C_8  and  C_9 
REMARK    7  A    between atoms: N_15  and  C_16 
REMARK    8  A    between atoms: C_16  and  C_17 
REMARK       I    between atoms: C_17  and  N_18 
REMARK    9  A    between atoms: N_18  and  C_19 
ROOT
HETATM    1  C   UNL     1      25.441  45.350  52.252  1.00  0.00     0.081 A 
HETATM    2  S   UNL     1      25.736  47.031  52.077  1.00  0.00    -0.063 SA
HETATM    3  C   UNL     1      24.761  47.136  50.693  1.00  0.00     0.116 A 
HETATM    4  C   UNL     1      24.217  45.919  50.350  1.00  0.00     0.075 A 
HETATM    5  C   UNL     1      23.293  45.898  49.222  1.00  0.00     0.262 A 
HETATM    6  O   UNL     1      22.718  44.878  48.851  1.00  0.00    -0.267 OA
HETATM    7  N   UNL     1      23.102  47.139  48.619  1.00  0.00    -0.299 N 
HETATM    8  C   UNL     1      23.728  48.278  49.088  1.00  0.00     0.214 A 
HETATM    9  N   UNL     1      24.562  48.326  50.076  1.00  0.00    -0.235 NA
HETATM   10  C   UNL     1      24.655  44.849  51.218  1.00  0.00    -0.021 A 
HETATM   11  C   UNL     1      24.247  43.414  51.074  1.00  0.00     0.051 C 
ENDROOT
BRANCH   7  12
HETATM   12  C   UNL     1      22.074  47.250  47.595  1.00  0.00     0.236 C 
BRANCH  12  13
HETATM   13  C   UNL     1      20.799  47.827  48.224  1.00  0.00     0.240 C 
HETATM   14  N   UNL     1      20.673  49.194  48.029  1.00  0.00    -0.326 N 
HETATM   15  H   UNL     1      21.405  49.661  47.507  1.00  0.00     0.169 HD
HETATM   16  O   UNL     1      20.038  47.118  48.878  1.00  0.00    -0.271 OA
BRANCH  14  17
HETATM   17  C   UNL     1      19.619  50.024  48.471  1.00  0.00     0.036 A 
HETATM   18  C   UNL     1      18.274  49.817  48.161  1.00  0.00     0.053 A 
HETATM   19  C   UNL     1      17.290  50.697  48.632  1.00  0.00     0.042 A 
HETATM   20 CL   UNL     1      15.648  50.380  48.190  1.00  0.00    -0.084 Cl
HETATM   21  C   UNL     1      17.631  51.798  49.429  1.00  0.00    -0.040 A 
HETATM   22  C   UNL     1      16.597  52.761  49.943  1.00  0.00     0.050 C 
HETATM   23  C   UNL     1      18.982  52.004  49.735  1.00  0.00     0.011 A 
HETATM   24  C   UNL     1      19.964  51.128  49.260  1.00  0.00     0.030 A 
ENDBRANCH  14  17
ENDBRANCH  12  13
ENDBRANCH   7  12
BRANCH   1  25
HETATM   25  C   UNL     1      26.017  44.643  53.385  1.00  0.00     0.259 C 
HETATM   26  N   UNL     1      27.329  44.976  53.690  1.00  0.00    -0.355 N 
HETATM   27  H   UNL     1      27.665  45.813  53.222  1.00  0.00     0.162 HD
HETATM   28  O   UNL     1      25.433  43.794  54.054  1.00  0.00    -0.267 OA
BRANCH  26  29
HETATM   29  C   UNL     1      27.911  44.660  54.989  1.00  0.00     0.150 C 
BRANCH  29  30
HETATM   30  C   UNL     1      29.290  45.291  55.258  1.00  0.00     0.254 C 
BRANCH  30  31
HETATM   31  N   UNL     1      30.383  44.232  55.361  1.00  0.00    -0.070 N 
HETATM   32  H   UNL     1      31.114  44.581  54.723  1.00  0.00     0.279 HD
BRANCH  31  33
HETATM   33  C   UNL     1      29.957  42.887  54.812  1.00  0.00     0.230 C 
HETATM   34  C   UNL     1      30.267  42.782  53.329  1.00  0.00     0.034 C 
ENDBRANCH  31  33
BRANCH  31  35
HETATM   35  C   UNL     1      31.058  44.130  56.711  1.00  0.00     0.230 C 
HETATM   36  C   UNL     1      30.607  45.215  57.672  1.00  0.00     0.034 C 
ENDBRANCH  31  35
ENDBRANCH  30  31
ENDBRANCH  29  30
ENDBRANCH  26  29
ENDBRANCH   1  25
TORSDOF 9
ENDMDL
MODEL 10
REMARK VINA RESULT:      -8.1      2.087      3.101
REMARK  9 active torsions:
REMARK  status: ('A' for Active; 'I' for Inactive)
REMARK    1  A    between atoms: C_2  and  N_3 
REMARK    2  A    between atoms: N_3  and  C_5 
REMARK    3  A    between atoms: N_3  and  C_33 
REMARK    4  A    between atoms: C_5  and  C_6 
REMARK    5  A    between atoms: C_6  and  N_7 
REMARK       I    between atoms: N_7  and  C_8 
REMARK    6  A    between atoms: C_8  and  C_9 
REMARK    7  A    between atoms: N_15  and  C_16 
REMARK    8  A    between atoms: C_16  and  C_17 
REMARK       I    between atoms: C_17  and  N_18 
REMARK    9  A    between atoms: N_18  and  C_19 
ROOT
HETATM    1  C   UNL     1      22.842  48.782  48.449  1.00  0.00     0.081 A 
HETATM    2  S   UNL     1      24.351  49.453  48.915  1.00  0.00    -0.063 SA
HETATM    3  C   UNL     1      24.864  48.002  49.627  1.00  0.00     0.116 A 
HETATM    4  C   UNL     1      23.911  47.014  49.529  1.00  0.00     0.075 A 
HETATM    5  C   UNL     1      24.268  45.693  50.035  1.00  0.00     0.262 A 
HETATM    6  O   UNL     1      23.513  44.726  49.965  1.00  0.00    -0.267 OA
HETATM    7  N   UNL     1      25.548  45.619  50.580  1.00  0.00    -0.299 N 
HETATM    8  C   UNL     1      26.392  46.713  50.603  1.00  0.00     0.214 A 
HETATM    9  N   UNL     1      26.098  47.899  50.176  1.00  0.00    -0.235 NA
HETATM   10  C   UNL     1      22.695  47.472  48.896  1.00  0.00    -0.021 A 
HETATM   11  C   UNL     1      21.478  46.626  48.674  1.00  0.00     0.051 C 
ENDROOT
BRANCH   7  12
HETATM   12  C   UNL     1      26.055  44.309  50.958  1.00  0.00     0.236 C 
BRANCH  12  13
HETATM   13  C   UNL     1      26.641  44.387  52.374  1.00  0.00     0.240 C 
HETATM   14  N   UNL     1      27.989  44.062  52.418  1.00  0.00    -0.326 N 
HETATM   15  H   UNL     1      28.439  43.817  51.543  1.00  0.00     0.169 HD
HETATM   16  O   UNL     1      25.931  44.650  53.341  1.00  0.00    -0.271 OA
BRANCH  14  17
HETATM   17  C   UNL     1      28.824  44.043  53.557  1.00  0.00     0.036 A 
HETATM   18  C   UNL     1      28.733  44.951  54.612  1.00  0.00     0.053 A 
HETATM   19  C   UNL     1      29.610  44.869  55.702  1.00  0.00     0.042 A 
HETATM   20 CL   UNL     1      29.443  46.042  56.962  1.00  0.00    -0.084 Cl
HETATM   21  C   UNL     1      30.592  43.871  55.761  1.00  0.00    -0.040 A 
HETATM   22  C   UNL     1      31.549  43.762  56.915  1.00  0.00     0.050 C 
HETATM   23  C   UNL     1      30.682  42.962  54.699  1.00  0.00     0.011 A 
HETATM   24  C   UNL     1      29.809  43.049  53.609  1.00  0.00     0.030 A 
ENDBRANCH  14  17
ENDBRANCH  12  13
ENDBRANCH   7  12
BRANCH   1  25
HETATM   25  C   UNL     1      21.906  49.600  47.694  1.00  0.00     0.259 C 
HETATM   26  N   UNL     1      20.766  48.945  47.250  1.00  0.00    -0.355 N 
HETATM   27  H   UNL     1      20.620  48.033  47.673  1.00  0.00     0.162 HD
HETATM   28  O   UNL     1      22.066  50.788  47.430  1.00  0.00    -0.267 OA
BRANCH  26  29
HETATM   29  C   UNL     1      19.581  49.683  46.829  1.00  0.00     0.150 C 
BRANCH  29  30
HETATM   30  C   UNL     1      18.409  49.661  47.829  1.00  0.00     0.254 C 
BRANCH  30  31
HETATM   31  N   UNL     1      18.255  48.292  48.486  1.00  0.00    -0.070 N 
HETATM   32  H   UNL     1      19.124  47.803  48.223  1.00  0.00     0.279 HD
BRANCH  31  33
HETATM   33  C   UNL     1      17.123  47.477  47.897  1.00  0.00     0.230 C 
HETATM   34  C   UNL     1      17.286  46.003  48.224  1.00  0.00     0.034 C 
ENDBRANCH  31  33
BRANCH  31  35
HETATM   35  C   UNL     1      18.252  48.299  49.998  1.00  0.00     0.230 C 
HETATM   36  C   UNL     1      18.892  49.547  50.578  1.00  0.00     0.034 C 
ENDBRANCH  31  35
ENDBRANCH  30  31
ENDBRANCH  29  30
ENDBRANCH  26  29
ENDBRANCH   1  25
TORSDOF 9
ENDMDL
