MODEL 1
REMARK VINA RESULT:      -8.2      0.000      0.000
REMARK  6 active torsions:
REMARK  status: ('A' for Active; 'I' for Inactive)
REMARK    1  A    between atoms: C_4  and  C_5 
REMARK       I    between atoms: C_5  and  N_6 
REMARK    2  A    between atoms: N_6  and  C_7 
REMARK    3  A    between atoms: C_15  and  C_16 
REMARK       I    between atoms: C_16  and  N_17 
REMARK    4  A    between atoms: N_17  and  C_18 
REMARK    5  A    between atoms: C_18  and  C_19 
REMARK    6  A    between atoms: C_19  and  N_20 
ROOT
HETATM    1  C   UNL     1      28.324  45.160  54.318  1.00  0.00     0.093 A 
HETATM    2  S   UNL     1      28.489  46.213  55.639  1.00  0.00    -0.075 SA
HETATM    3  C   UNL     1      29.710  45.273  56.330  1.00  0.00    -0.008 A 
HETATM    4  C   UNL     1      30.045  44.174  55.559  1.00  0.00    -0.026 A 
HETATM    5  C   UNL     1      31.088  43.205  56.054  1.00  0.00     0.041 C 
HETATM    6  C   UNL     1      31.343  43.332  57.563  1.00  0.00     0.005 C 
HETATM    7  C   UNL     1      31.528  44.797  57.973  1.00  0.00     0.005 C 
HETATM    8  C   UNL     1      30.268  45.619  57.678  1.00  0.00     0.047 C 
HETATM    9  C   UNL     1      29.267  44.132  54.326  1.00  0.00     0.073 A 
ENDROOT
BRANCH   1  10
HETATM   10  N   UNL     1      27.279  45.330  53.413  1.00  0.00    -0.316 N 
HETATM   11  C   UNL     1      26.112  44.583  53.361  1.00  0.00     0.256 C 
HETATM   12  O   UNL     1      25.683  43.866  54.259  1.00  0.00    -0.267 OA
HETATM   13  H   UNL     1      27.447  46.039  52.712  1.00  0.00     0.169 HD
BRANCH  11  14
HETATM   14  C   UNL     1      25.299  44.687  52.104  1.00  0.00     0.032 A 
HETATM   15  C   UNL     1      24.619  43.611  51.518  1.00  0.00     0.017 A 
HETATM   16  C   UNL     1      23.855  43.806  50.361  1.00  0.00     0.001 A 
HETATM   17  C   UNL     1      23.767  45.071  49.781  1.00  0.00     0.000 A 
HETATM   18  C   UNL     1      24.445  46.145  50.349  1.00  0.00     0.001 A 
HETATM   19  C   UNL     1      25.208  45.953  51.502  1.00  0.00     0.017 A 
ENDBRANCH  11  14
ENDBRANCH   1  10
BRANCH   9  20
HETATM   20  C   UNL     1      29.353  43.185  53.208  1.00  0.00     0.255 C 
HETATM   21  N   UNL     1      28.926  41.894  53.438  1.00  0.00    -0.355 N 
HETATM   22  H   UNL     1      28.540  41.698  54.352  1.00  0.00     0.162 HD
HETATM   23  O   UNL     1      29.897  43.456  52.135  1.00  0.00    -0.268 OA
BRANCH  21  24
HETATM   24  C   UNL     1      28.595  40.942  52.382  1.00  0.00     0.150 C 
BRANCH  24  25
HETATM   25  C   UNL     1      27.400  41.280  51.471  1.00  0.00     0.249 C 
BRANCH  25  26
HETATM   26  N   UNL     1      26.377  40.207  51.503  1.00  0.00    -0.078 N 
HETATM   27  H   UNL     1      26.880  39.306  51.588  1.00  0.00     0.274 HD
HETATM   28  H   UNL     1      25.740  40.279  52.305  1.00  0.00     0.274 HD
HETATM   29  H   UNL     1      25.827  40.162  50.638  1.00  0.00     0.274 HD
ENDBRANCH  25  26
ENDBRANCH  24  25
ENDBRANCH  21  24
ENDBRANCH   9  20
TORSDOF 6
ENDMDL
MODEL 2
REMARK VINA RESULT:      -7.9      2.064      3.888
REMARK  6 active torsions:
REMARK  status: ('A' for Active; 'I' for Inactive)
REMARK    1  A    between atoms: C_4  and  C_5 
REMARK       I    between atoms: C_5  and  N_6 
REMARK    2  A    between atoms: N_6  and  C_7 
REMARK    3  A    between atoms: C_15  and  C_16 
REMARK       I    between atoms: C_16  and  N_17 
REMARK    4  A    between atoms: N_17  and  C_18 
REMARK    5  A    between atoms: C_18  and  C_19 
REMARK    6  A    between atoms: C_19  and  N_20 
ROOT
HETATM    1  C   UNL     1      27.517  43.030  53.291  1.00  0.00     0.093 A 
HETATM    2  S   UNL     1      28.854  42.122  53.807  1.00  0.00    -0.075 SA
HETATM    3  C   UNL     1      29.412  43.371  54.798  1.00  0.00    -0.008 A 
HETATM    4  C   UNL     1      28.580  44.477  54.791  1.00  0.00    -0.026 A 
HETATM    5  C   UNL     1      28.957  45.699  55.589  1.00  0.00     0.041 C 
HETATM    6  C   UNL     1      30.444  45.719  55.973  1.00  0.00     0.005 C 
HETATM    7  C   UNL     1      30.887  44.369  56.548  1.00  0.00     0.005 C 
HETATM    8  C   UNL     1      30.722  43.246  55.518  1.00  0.00     0.047 C 
HETATM    9  C   UNL     1      27.414  44.259  53.943  1.00  0.00     0.073 A 
ENDROOT
BRANCH   1  10
HETATM   10  N   UNL     1      26.705  42.559  52.263  1.00  0.00    -0.316 N 
HETATM   11  C   UNL     1      26.576  43.119  51.001  1.00  0.00     0.256 C 
HETATM   12  O   UNL     1      27.353  43.921  50.493  1.00  0.00    -0.267 OA
HETATM   13  H   UNL     1      26.134  41.764  52.514  1.00  0.00     0.169 HD
BRANCH  11  14
HETATM   14  C   UNL     1      25.396  42.679  50.184  1.00  0.00     0.032 A 
HETATM   15  C   UNL     1      25.484  41.830  49.072  1.00  0.00     0.017 A 
HETATM   16  C   UNL     1      24.325  41.444  48.387  1.00  0.00     0.001 A 
HETATM   17  C   UNL     1      23.076  41.902  48.804  1.00  0.00     0.000 A 
HETATM   18  C   UNL     1      22.978  42.752  49.901  1.00  0.00     0.001 A 
HETATM   19  C   UNL     1      24.131  43.139  50.585  1.00  0.00     0.017 A 
ENDBRANCH  11  14
ENDBRANCH   1  10
BRANCH   9  20
HETATM   20  C   UNL     1      26.262  45.137  53.710  1.00  0.00     0.255 C 
HETATM   21  N   UNL     1      26.408  46.137  52.771  1.00  0.00    -0.355 N 
HETATM   22  H   UNL     1      27.287  46.169  52.273  1.00  0.00     0.162 HD
HETATM   23  O   UNL     1      25.236  45.101  54.395  1.00  0.00    -0.268 OA
BRANCH  21  24
HETATM   24  C   UNL     1      25.292  46.847  52.153  1.00  0.00     0.150 C 
BRANCH  24  25
HETATM   25  C   UNL     1      25.133  46.726  50.626  1.00  0.00     0.249 C 
BRANCH  25  26
HETATM   26  N   UNL     1      26.451  46.700  49.947  1.00  0.00    -0.078 N 
HETATM   27  H   UNL     1      26.868  47.642  50.050  1.00  0.00     0.274 HD
HETATM   28  H   UNL     1      27.106  46.028  50.363  1.00  0.00     0.274 HD
HETATM   29  H   UNL     1      26.372  46.515  48.941  1.00  0.00     0.274 HD
ENDBRANCH  25  26
ENDBRANCH  24  25
ENDBRANCH  21  24
ENDBRANCH   9  20
TORSDOF 6
ENDMDL
MODEL 3
REMARK VINA RESULT:      -7.8      2.966      7.580
REMARK  6 active torsions:
REMARK  status: ('A' for Active; 'I' for Inactive)
REMARK    1  A    between atoms: C_4  and  C_5 
REMARK       I    between atoms: C_5  and  N_6 
REMARK    2  A    between atoms: N_6  and  C_7 
REMARK    3  A    between atoms: C_15  and  C_16 
REMARK       I    between atoms: C_16  and  N_17 
REMARK    4  A    between atoms: N_17  and  C_18 
REMARK    5  A    between atoms: C_18  and  C_19 
REMARK    6  A    between atoms: C_19  and  N_20 
ROOT
HETATM    1  C   UNL     1      27.497  43.134  51.153  1.00  0.00     0.093 A 
HETATM    2  S   UNL     1      27.440  41.533  50.594  1.00  0.00    -0.075 SA
HETATM    3  C   UNL     1      26.110  41.849  49.602  1.00  0.00    -0.008 A 
HETATM    4  C   UNL     1      25.712  43.174  49.641  1.00  0.00    -0.026 A 
HETATM    5  C   UNL     1      24.509  43.616  48.847  1.00  0.00     0.041 C 
HETATM    6  C   UNL     1      23.615  42.441  48.426  1.00  0.00     0.005 C 
HETATM    7  C   UNL     1      24.444  41.299  47.826  1.00  0.00     0.005 C 
HETATM    8  C   UNL     1      25.439  40.740  48.848  1.00  0.00     0.047 C 
HETATM    9  C   UNL     1      26.573  43.962  50.516  1.00  0.00     0.073 A 
ENDROOT
BRANCH   1  10
HETATM   10  N   UNL     1      28.351  43.482  52.197  1.00  0.00    -0.316 N 
HETATM   11  C   UNL     1      28.159  43.195  53.540  1.00  0.00     0.256 C 
HETATM   12  O   UNL     1      27.383  42.356  53.987  1.00  0.00    -0.267 OA
HETATM   13  H   UNL     1      29.146  44.039  51.916  1.00  0.00     0.169 HD
BRANCH  11  14
HETATM   14  C   UNL     1      28.996  43.963  54.521  1.00  0.00     0.032 A 
HETATM   15  C   UNL     1      28.665  45.236  55.007  1.00  0.00     0.017 A 
HETATM   16  C   UNL     1      29.488  45.866  55.947  1.00  0.00     0.001 A 
HETATM   17  C   UNL     1      30.644  45.236  56.406  1.00  0.00     0.000 A 
HETATM   18  C   UNL     1      30.986  43.977  55.925  1.00  0.00     0.001 A 
HETATM   19  C   UNL     1      30.168  43.346  54.986  1.00  0.00     0.017 A 
ENDBRANCH  11  14
ENDBRANCH   1  10
BRANCH   9  20
HETATM   20  C   UNL     1      26.546  45.404  50.787  1.00  0.00     0.255 C 
HETATM   21  N   UNL     1      26.810  46.252  49.732  1.00  0.00    -0.355 N 
HETATM   22  H   UNL     1      26.961  45.822  48.829  1.00  0.00     0.162 HD
HETATM   23  O   UNL     1      26.426  45.875  51.921  1.00  0.00    -0.268 OA
BRANCH  21  24
HETATM   24  C   UNL     1      26.471  47.672  49.719  1.00  0.00     0.150 C 
BRANCH  24  25
HETATM   25  C   UNL     1      27.473  48.635  49.058  1.00  0.00     0.249 C 
BRANCH  25  26
HETATM   26  N   UNL     1      26.783  49.616  48.186  1.00  0.00    -0.078 N 
HETATM   27  H   UNL     1      26.865  49.273  47.212  1.00  0.00     0.274 HD
HETATM   28  H   UNL     1      25.782  49.709  48.395  1.00  0.00     0.274 HD
HETATM   29  H   UNL     1      27.221  50.545  48.214  1.00  0.00     0.274 HD
ENDBRANCH  25  26
ENDBRANCH  24  25
ENDBRANCH  21  24
ENDBRANCH   9  20
TORSDOF 6
ENDMDL
MODEL 4
REMARK VINA RESULT:      -7.8      1.995      7.040
REMARK  6 active torsions:
REMARK  status: ('A' for Active; 'I' for Inactive)
REMARK    1  A    between atoms: C_4  and  C_5 
REMARK       I    between atoms: C_5  and  N_6 
REMARK    2  A    between atoms: N_6  and  C_7 
REMARK    3  A    between atoms: C_15  and  C_16 
REMARK       I    between atoms: C_16  and  N_17 
REMARK    4  A    between atoms: N_17  and  C_18 
REMARK    5  A    between atoms: C_18  and  C_19 
REMARK    6  A    between atoms: C_19  and  N_20 
ROOT
HETATM    1  C   UNL     1      25.826  45.484  51.378  1.00  0.00     0.093 A 
HETATM    2  S   UNL     1      25.646  47.171  51.323  1.00  0.00    -0.075 SA
HETATM    3  C   UNL     1      24.392  47.073  50.196  1.00  0.00    -0.008 A 
HETATM    4  C   UNL     1      24.057  45.769  49.873  1.00  0.00    -0.026 A 
HETATM    5  C   UNL     1      22.986  45.505  48.846  1.00  0.00     0.041 C 
HETATM    6  C   UNL     1      22.695  46.731  47.968  1.00  0.00     0.005 C 
HETATM    7  C   UNL     1      22.525  47.995  48.818  1.00  0.00     0.005 C 
HETATM    8  C   UNL     1      23.805  48.317  49.597  1.00  0.00     0.047 C 
HETATM    9  C   UNL     1      24.866  44.813  50.621  1.00  0.00     0.073 A 
ENDROOT
BRANCH   1  10
HETATM   10  N   UNL     1      26.895  44.917  52.066  1.00  0.00    -0.316 N 
HETATM   11  C   UNL     1      26.867  44.429  53.364  1.00  0.00     0.256 C 
HETATM   12  O   UNL     1      25.855  44.152  54.000  1.00  0.00    -0.267 OA
HETATM   13  H   UNL     1      27.769  44.926  51.558  1.00  0.00     0.169 HD
BRANCH  11  14
HETATM   14  C   UNL     1      28.193  44.201  54.029  1.00  0.00     0.032 A 
HETATM   15  C   UNL     1      28.691  44.989  55.076  1.00  0.00     0.017 A 
HETATM   16  C   UNL     1      29.926  44.683  55.662  1.00  0.00     0.001 A 
HETATM   17  C   UNL     1      30.670  43.596  55.207  1.00  0.00     0.000 A 
HETATM   18  C   UNL     1      30.189  42.813  54.162  1.00  0.00     0.001 A 
HETATM   19  C   UNL     1      28.960  43.115  53.576  1.00  0.00     0.017 A 
ENDBRANCH  11  14
ENDBRANCH   1  10
BRANCH   9  20
HETATM   20  C   UNL     1      24.792  43.347  50.633  1.00  0.00     0.255 C 
HETATM   21  N   UNL     1      25.474  42.672  49.643  1.00  0.00    -0.355 N 
HETATM   22  H   UNL     1      26.018  43.232  49.000  1.00  0.00     0.162 HD
HETATM   23  O   UNL     1      24.058  42.715  51.396  1.00  0.00    -0.268 OA
BRANCH  21  24
HETATM   24  C   UNL     1      25.816  41.254  49.708  1.00  0.00     0.150 C 
BRANCH  24  25
HETATM   25  C   UNL     1      27.040  40.857  50.552  1.00  0.00     0.249 C 
BRANCH  25  26
HETATM   26  N   UNL     1      26.685  40.724  51.986  1.00  0.00    -0.078 N 
HETATM   27  H   UNL     1      26.714  39.715  52.218  1.00  0.00     0.274 HD
HETATM   28  H   UNL     1      27.344  41.202  52.612  1.00  0.00     0.274 HD
HETATM   29  H   UNL     1      25.733  41.051  52.188  1.00  0.00     0.274 HD
ENDBRANCH  25  26
ENDBRANCH  24  25
ENDBRANCH  21  24
ENDBRANCH   9  20
TORSDOF 6
ENDMDL
MODEL 5
REMARK VINA RESULT:      -7.6      3.063      7.241
REMARK  6 active torsions:
REMARK  status: ('A' for Active; 'I' for Inactive)
REMARK    1  A    between atoms: C_4  and  C_5 
REMARK       I    between atoms: C_5  and  N_6 
REMARK    2  A    between atoms: N_6  and  C_7 
REMARK    3  A    between atoms: C_15  and  C_16 
REMARK       I    between atoms: C_16  and  N_17 
REMARK    4  A    between atoms: N_17  and  C_18 
REMARK    5  A    between atoms: C_18  and  C_19 
REMARK    6  A    between atoms: C_19  and  N_20 
ROOT
HETATM    1  C   UNL     1      26.148  41.964  51.237  1.00  0.00     0.093 A 
HETATM    2  S   UNL     1      24.600  42.572  50.897  1.00  0.00    -0.075 SA
HETATM    3  C   UNL     1      24.530  41.770  49.413  1.00  0.00    -0.008 A 
HETATM    4  C   UNL     1      25.651  40.996  49.166  1.00  0.00    -0.026 A 
HETATM    5  C   UNL     1      25.769  40.248  47.862  1.00  0.00     0.041 C 
HETATM    6  C   UNL     1      24.814  40.785  46.785  1.00  0.00     0.005 C 
HETATM    7  C   UNL     1      23.397  40.966  47.339  1.00  0.00     0.005 C 
HETATM    8  C   UNL     1      23.374  41.986  48.483  1.00  0.00     0.047 C 
HETATM    9  C   UNL     1      26.594  41.056  50.277  1.00  0.00     0.073 A 
ENDROOT
BRANCH   1  10
HETATM   10  N   UNL     1      26.859  42.436  52.337  1.00  0.00    -0.316 N 
HETATM   11  C   UNL     1      27.528  43.648  52.420  1.00  0.00     0.256 C 
HETATM   12  O   UNL     1      27.361  44.607  51.673  1.00  0.00    -0.267 OA
HETATM   13  H   UNL     1      26.916  41.784  53.107  1.00  0.00     0.169 HD
BRANCH  11  14
HETATM   14  C   UNL     1      28.519  43.798  53.536  1.00  0.00     0.032 A 
HETATM   15  C   UNL     1      29.607  42.938  53.742  1.00  0.00     0.017 A 
HETATM   16  C   UNL     1      30.502  43.173  54.792  1.00  0.00     0.001 A 
HETATM   17  C   UNL     1      30.319  44.261  55.643  1.00  0.00     0.000 A 
HETATM   18  C   UNL     1      29.238  45.116  55.454  1.00  0.00     0.001 A 
HETATM   19  C   UNL     1      28.343  44.884  54.409  1.00  0.00     0.017 A 
ENDBRANCH  11  14
ENDBRANCH   1  10
BRANCH   9  20
HETATM   20  C   UNL     1      27.863  40.341  50.453  1.00  0.00     0.255 C 
HETATM   21  N   UNL     1      27.889  39.005  50.114  1.00  0.00    -0.355 N 
HETATM   22  H   UNL     1      27.040  38.617  49.723  1.00  0.00     0.162 HD
HETATM   23  O   UNL     1      28.849  40.842  51.000  1.00  0.00    -0.268 OA
BRANCH  21  24
HETATM   24  C   UNL     1      29.113  38.246  49.873  1.00  0.00     0.150 C 
BRANCH  24  25
HETATM   25  C   UNL     1      29.753  37.530  51.077  1.00  0.00     0.249 C 
BRANCH  25  26
HETATM   26  N   UNL     1      29.206  36.161  51.242  1.00  0.00    -0.078 N 
HETATM   27  H   UNL     1      28.788  35.886  50.336  1.00  0.00     0.274 HD
HETATM   28  H   UNL     1      29.924  35.465  51.473  1.00  0.00     0.274 HD
HETATM   29  H   UNL     1      28.457  36.118  51.943  1.00  0.00     0.274 HD
ENDBRANCH  25  26
ENDBRANCH  24  25
ENDBRANCH  21  24
ENDBRANCH   9  20
TORSDOF 6
ENDMDL
MODEL 6
REMARK VINA RESULT:      -7.6      2.560      5.070
REMARK  6 active torsions:
REMARK  status: ('A' for Active; 'I' for Inactive)
REMARK    1  A    between atoms: C_4  and  C_5 
REMARK       I    between atoms: C_5  and  N_6 
REMARK    2  A    between atoms: N_6  and  C_7 
REMARK    3  A    between atoms: C_15  and  C_16 
REMARK       I    between atoms: C_16  and  N_17 
REMARK    4  A    between atoms: N_17  and  C_18 
REMARK    5  A    between atoms: C_18  and  C_19 
REMARK    6  A    between atoms: C_19  and  N_20 
ROOT
HETATM    1  C   UNL     1      28.784  42.866  52.741  1.00  0.00     0.093 A 
HETATM    2  S   UNL     1      29.822  42.829  54.083  1.00  0.00    -0.075 SA
HETATM    3  C   UNL     1      29.186  44.263  54.708  1.00  0.00    -0.008 A 
HETATM    4  C   UNL     1      28.153  44.774  53.940  1.00  0.00    -0.026 A 
HETATM    5  C   UNL     1      27.504  46.076  54.334  1.00  0.00     0.041 C 
HETATM    6  C   UNL     1      28.364  46.894  55.308  1.00  0.00     0.005 C 
HETATM    7  C   UNL     1      28.888  46.022  56.454  1.00  0.00     0.005 C 
HETATM    8  C   UNL     1      29.784  44.895  55.929  1.00  0.00     0.047 C 
HETATM    9  C   UNL     1      27.864  43.913  52.798  1.00  0.00     0.073 A 
ENDROOT
BRANCH   1  10
HETATM   10  N   UNL     1      28.955  41.959  51.698  1.00  0.00    -0.316 N 
HETATM   11  C   UNL     1      28.085  40.936  51.355  1.00  0.00     0.256 C 
HETATM   12  O   UNL     1      26.914  40.846  51.709  1.00  0.00    -0.267 OA
HETATM   13  H   UNL     1      29.830  42.054  51.203  1.00  0.00     0.169 HD
BRANCH  11  14
HETATM   14  C   UNL     1      28.623  39.866  50.451  1.00  0.00     0.032 A 
HETATM   15  C   UNL     1      29.439  38.811  50.883  1.00  0.00     0.017 A 
HETATM   16  C   UNL     1      29.870  37.836  49.975  1.00  0.00     0.001 A 
HETATM   17  C   UNL     1      29.494  37.908  48.634  1.00  0.00     0.000 A 
HETATM   18  C   UNL     1      28.692  38.955  48.193  1.00  0.00     0.001 A 
HETATM   19  C   UNL     1      28.262  39.929  49.095  1.00  0.00     0.017 A 
ENDBRANCH  11  14
ENDBRANCH   1  10
BRANCH   9  20
HETATM   20  C   UNL     1      26.814  44.046  51.782  1.00  0.00     0.255 C 
HETATM   21  N   UNL     1      25.559  43.575  52.104  1.00  0.00    -0.355 N 
HETATM   22  H   UNL     1      25.435  43.209  53.040  1.00  0.00     0.162 HD
HETATM   23  O   UNL     1      27.034  44.435  50.632  1.00  0.00    -0.268 OA
BRANCH  21  24
HETATM   24  C   UNL     1      24.339  43.946  51.392  1.00  0.00     0.150 C 
BRANCH  24  25
HETATM   25  C   UNL     1      23.773  42.934  50.379  1.00  0.00     0.249 C 
BRANCH  25  26
HETATM   26  N   UNL     1      24.856  42.140  49.749  1.00  0.00    -0.078 N 
HETATM   27  H   UNL     1      25.334  41.618  50.504  1.00  0.00     0.274 HD
HETATM   28  H   UNL     1      24.510  41.451  49.072  1.00  0.00     0.274 HD
HETATM   29  H   UNL     1      25.565  42.730  49.297  1.00  0.00     0.274 HD
ENDBRANCH  25  26
ENDBRANCH  24  25
ENDBRANCH  21  24
ENDBRANCH   9  20
TORSDOF 6
ENDMDL
MODEL 7
REMARK VINA RESULT:      -7.6      6.992     10.850
REMARK  6 active torsions:
REMARK  status: ('A' for Active; 'I' for Inactive)
REMARK    1  A    between atoms: C_4  and  C_5 
REMARK       I    between atoms: C_5  and  N_6 
REMARK    2  A    between atoms: N_6  and  C_7 
REMARK    3  A    between atoms: C_15  and  C_16 
REMARK       I    between atoms: C_16  and  N_17 
REMARK    4  A    between atoms: N_17  and  C_18 
REMARK    5  A    between atoms: C_18  and  C_19 
REMARK    6  A    between atoms: C_19  and  N_20 
ROOT
HETATM    1  C   UNL     1      21.338  49.614  49.220  1.00  0.00     0.093 A 
HETATM    2  S   UNL     1      20.441  50.965  49.718  1.00  0.00    -0.075 SA
HETATM    3  C   UNL     1      19.030  50.389  48.990  1.00  0.00    -0.008 A 
HETATM    4  C   UNL     1      19.198  49.149  48.397  1.00  0.00    -0.026 A 
HETATM    5  C   UNL     1      18.046  48.511  47.663  1.00  0.00     0.041 C 
HETATM    6  C   UNL     1      16.946  49.519  47.299  1.00  0.00     0.005 C 
HETATM    7  C   UNL     1      16.582  50.401  48.499  1.00  0.00     0.005 C 
HETATM    8  C   UNL     1      17.786  51.226  48.967  1.00  0.00     0.047 C 
HETATM    9  C   UNL     1      20.556  48.650  48.583  1.00  0.00     0.073 A 
ENDROOT
BRANCH   1  10
HETATM   10  N   UNL     1      22.719  49.586  49.397  1.00  0.00    -0.316 N 
HETATM   11  C   UNL     1      23.674  49.776  48.409  1.00  0.00     0.256 C 
HETATM   12  O   UNL     1      23.471  50.280  47.309  1.00  0.00    -0.267 OA
HETATM   13  H   UNL     1      23.014  49.351  50.334  1.00  0.00     0.169 HD
BRANCH  11  14
HETATM   14  C   UNL     1      25.075  49.350  48.733  1.00  0.00     0.032 A 
HETATM   15  C   UNL     1      26.221  50.058  48.345  1.00  0.00     0.017 A 
HETATM   16  C   UNL     1      27.491  49.604  48.721  1.00  0.00     0.001 A 
HETATM   17  C   UNL     1      27.627  48.443  49.481  1.00  0.00     0.000 A 
HETATM   18  C   UNL     1      26.497  47.728  49.864  1.00  0.00     0.001 A 
HETATM   19  C   UNL     1      25.230  48.177  49.491  1.00  0.00     0.017 A 
ENDBRANCH  11  14
ENDBRANCH   1  10
BRANCH   9  20
HETATM   20  C   UNL     1      21.132  47.363  48.179  1.00  0.00     0.255 C 
HETATM   21  N   UNL     1      20.895  46.278  48.996  1.00  0.00    -0.355 N 
HETATM   22  H   UNL     1      20.299  46.434  49.799  1.00  0.00     0.162 HD
HETATM   23  O   UNL     1      21.910  47.242  47.228  1.00  0.00    -0.268 OA
BRANCH  21  24
HETATM   24  C   UNL     1      21.063  44.889  48.579  1.00  0.00     0.150 C 
BRANCH  24  25
HETATM   25  C   UNL     1      22.361  44.175  48.996  1.00  0.00     0.249 C 
BRANCH  25  26
HETATM   26  N   UNL     1      23.065  44.919  50.069  1.00  0.00    -0.078 N 
HETATM   27  H   UNL     1      22.341  45.374  50.653  1.00  0.00     0.274 HD
HETATM   28  H   UNL     1      23.619  44.313  50.684  1.00  0.00     0.274 HD
HETATM   29  H   UNL     1      23.666  45.666  49.701  1.00  0.00     0.274 HD
ENDBRANCH  25  26
ENDBRANCH  24  25
ENDBRANCH  21  24
ENDBRANCH   9  20
TORSDOF 6
ENDMDL
MODEL 8
REMARK VINA RESULT:      -7.5      3.345      4.779
REMARK  6 active torsions:
REMARK  status: ('A' for Active; 'I' for Inactive)
REMARK    1  A    between atoms: C_4  and  C_5 
REMARK       I    between atoms: C_5  and  N_6 
REMARK    2  A    between atoms: N_6  and  C_7 
REMARK    3  A    between atoms: C_15  and  C_16 
REMARK       I    between atoms: C_16  and  N_17 
REMARK    4  A    between atoms: N_17  and  C_18 
REMARK    5  A    between atoms: C_18  and  C_19 
REMARK    6  A    between atoms: C_19  and  N_20 
ROOT
HETATM    1  C   UNL     1      25.755  46.438  51.601  1.00  0.00     0.093 A 
HETATM    2  S   UNL     1      26.123  47.175  53.085  1.00  0.00    -0.075 SA
HETATM    3  C   UNL     1      26.991  45.829  53.621  1.00  0.00    -0.008 A 
HETATM    4  C   UNL     1      27.055  44.818  52.678  1.00  0.00    -0.026 A 
HETATM    5  C   UNL     1      27.755  43.526  53.014  1.00  0.00     0.041 C 
HETATM    6  C   UNL     1      27.942  43.332  54.526  1.00  0.00     0.005 C 
HETATM    7  C   UNL     1      28.500  44.598  55.184  1.00  0.00     0.005 C 
HETATM    8  C   UNL     1      27.539  45.780  55.017  1.00  0.00     0.047 C 
HETATM    9  C   UNL     1      26.373  45.198  51.445  1.00  0.00     0.073 A 
ENDROOT
BRANCH   1  10
HETATM   10  N   UNL     1      24.857  47.041  50.724  1.00  0.00    -0.316 N 
HETATM   11  C   UNL     1      25.176  47.933  49.712  1.00  0.00     0.256 C 
HETATM   12  O   UNL     1      26.295  48.105  49.240  1.00  0.00    -0.267 OA
HETATM   13  H   UNL     1      23.887  46.825  50.908  1.00  0.00     0.169 HD
BRANCH  11  14
HETATM   14  C   UNL     1      24.045  48.731  49.133  1.00  0.00     0.032 A 
HETATM   15  C   UNL     1      22.701  48.337  49.181  1.00  0.00     0.017 A 
HETATM   16  C   UNL     1      21.705  49.161  48.644  1.00  0.00     0.001 A 
HETATM   17  C   UNL     1      22.042  50.379  48.055  1.00  0.00     0.000 A 
HETATM   18  C   UNL     1      23.374  50.777  47.994  1.00  0.00     0.001 A 
HETATM   19  C   UNL     1      24.369  49.957  48.528  1.00  0.00     0.017 A 
ENDBRANCH  11  14
ENDBRANCH   1  10
BRANCH   9  20
HETATM   20  C   UNL     1      26.262  44.458  50.183  1.00  0.00     0.255 C 
HETATM   21  N   UNL     1      25.184  43.611  50.039  1.00  0.00    -0.355 N 
HETATM   22  H   UNL     1      24.515  43.590  50.798  1.00  0.00     0.162 HD
HETATM   23  O   UNL     1      27.142  44.464  49.318  1.00  0.00    -0.268 OA
BRANCH  21  24
HETATM   24  C   UNL     1      24.715  43.095  48.756  1.00  0.00     0.150 C 
BRANCH  24  25
HETATM   25  C   UNL     1      25.211  41.701  48.328  1.00  0.00     0.249 C 
BRANCH  25  26
HETATM   26  N   UNL     1      26.613  41.753  47.845  1.00  0.00    -0.078 N 
HETATM   27  H   UNL     1      27.220  41.470  48.634  1.00  0.00     0.274 HD
HETATM   28  H   UNL     1      26.797  41.107  47.069  1.00  0.00     0.274 HD
HETATM   29  H   UNL     1      26.900  42.700  47.571  1.00  0.00     0.274 HD
ENDBRANCH  25  26
ENDBRANCH  24  25
ENDBRANCH  21  24
ENDBRANCH   9  20
TORSDOF 6
ENDMDL
MODEL 9
REMARK VINA RESULT:      -7.5      2.596      7.473
REMARK  6 active torsions:
REMARK  status: ('A' for Active; 'I' for Inactive)
REMARK    1  A    between atoms: C_4  and  C_5 
REMARK       I    between atoms: C_5  and  N_6 
REMARK    2  A    between atoms: N_6  and  C_7 
REMARK    3  A    between atoms: C_15  and  C_16 
REMARK       I    between atoms: C_16  and  N_17 
REMARK    4  A    between atoms: N_17  and  C_18 
REMARK    5  A    between atoms: C_18  and  C_19 
REMARK    6  A    between atoms: C_19  and  N_20 
ROOT
HETATM    1  C   UNL     1      25.067  45.635  50.739  1.00  0.00     0.093 A 
HETATM    2  S   UNL     1      24.734  47.268  50.422  1.00  0.00    -0.075 SA
HETATM    3  C   UNL     1      23.555  46.881  49.276  1.00  0.00    -0.008 A 
HETATM    4  C   UNL     1      23.361  45.517  49.143  1.00  0.00    -0.026 A 
HETATM    5  C   UNL     1      22.374  44.999  48.128  1.00  0.00     0.041 C 
HETATM    6  C   UNL     1      22.016  46.047  47.064  1.00  0.00     0.005 C 
HETATM    7  C   UNL     1      21.686  47.400  47.705  1.00  0.00     0.005 C 
HETATM    8  C   UNL     1      22.888  47.958  48.473  1.00  0.00     0.047 C 
HETATM    9  C   UNL     1      24.214  44.767  50.057  1.00  0.00     0.073 A 
ENDROOT
BRANCH   1  10
HETATM   10  N   UNL     1      26.147  45.284  51.545  1.00  0.00    -0.316 N 
HETATM   11  C   UNL     1      27.234  44.511  51.165  1.00  0.00     0.256 C 
HETATM   12  O   UNL     1      27.564  44.263  50.010  1.00  0.00    -0.267 OA
HETATM   13  H   UNL     1      26.071  45.596  52.503  1.00  0.00     0.169 HD
BRANCH  11  14
HETATM   14  C   UNL     1      28.087  43.956  52.268  1.00  0.00     0.032 A 
HETATM   15  C   UNL     1      29.073  42.978  52.081  1.00  0.00     0.017 A 
HETATM   16  C   UNL     1      29.847  42.541  53.163  1.00  0.00     0.001 A 
HETATM   17  C   UNL     1      29.641  43.073  54.435  1.00  0.00     0.000 A 
HETATM   18  C   UNL     1      28.659  44.038  54.634  1.00  0.00     0.001 A 
HETATM   19  C   UNL     1      27.886  44.475  53.558  1.00  0.00     0.017 A 
ENDBRANCH  11  14
ENDBRANCH   1  10
BRANCH   9  20
HETATM   20  C   UNL     1      24.276  43.319  50.288  1.00  0.00     0.255 C 
HETATM   21  N   UNL     1      24.734  42.532  49.253  1.00  0.00    -0.355 N 
HETATM   22  H   UNL     1      25.040  43.012  48.416  1.00  0.00     0.162 HD
HETATM   23  O   UNL     1      23.825  42.777  51.301  1.00  0.00    -0.268 OA
BRANCH  21  24
HETATM   24  C   UNL     1      25.206  41.160  49.415  1.00  0.00     0.150 C 
BRANCH  24  25
HETATM   25  C   UNL     1      26.540  40.951  50.154  1.00  0.00     0.249 C 
BRANCH  25  26
HETATM   26  N   UNL     1      26.319  40.620  51.583  1.00  0.00    -0.078 N 
HETATM   27  H   UNL     1      27.209  40.799  52.081  1.00  0.00     0.274 HD
HETATM   28  H   UNL     1      25.598  41.201  52.025  1.00  0.00     0.274 HD
HETATM   29  H   UNL     1      26.088  39.630  51.727  1.00  0.00     0.274 HD
ENDBRANCH  25  26
ENDBRANCH  24  25
ENDBRANCH  21  24
ENDBRANCH   9  20
TORSDOF 6
ENDMDL
MODEL 10
REMARK VINA RESULT:      -7.3      2.435      4.669
REMARK  6 active torsions:
REMARK  status: ('A' for Active; 'I' for Inactive)
REMARK    1  A    between atoms: C_4  and  C_5 
REMARK       I    between atoms: C_5  and  N_6 
REMARK    2  A    between atoms: N_6  and  C_7 
REMARK    3  A    between atoms: C_15  and  C_16 
REMARK       I    between atoms: C_16  and  N_17 
REMARK    4  A    between atoms: N_17  and  C_18 
REMARK    5  A    between atoms: C_18  and  C_19 
REMARK    6  A    between atoms: C_19  and  N_20 
ROOT
HETATM    1  C   UNL     1      28.676  43.155  52.720  1.00  0.00     0.093 A 
HETATM    2  S   UNL     1      30.080  42.615  53.505  1.00  0.00    -0.075 SA
HETATM    3  C   UNL     1      29.929  43.769  54.729  1.00  0.00    -0.008 A 
HETATM    4  C   UNL     1      28.796  44.553  54.593  1.00  0.00    -0.026 A 
HETATM    5  C   UNL     1      28.534  45.662  55.579  1.00  0.00     0.041 C 
HETATM    6  C   UNL     1      29.789  46.059  56.369  1.00  0.00     0.005 C 
HETATM    7  C   UNL     1      30.517  44.825  56.913  1.00  0.00     0.005 C 
HETATM    8  C   UNL     1      30.993  43.915  55.776  1.00  0.00     0.047 C 
HETATM    9  C   UNL     1      28.009  44.153  53.432  1.00  0.00     0.073 A 
ENDROOT
BRANCH   1  10
HETATM   10  N   UNL     1      28.341  42.659  51.463  1.00  0.00    -0.316 N 
HETATM   11  C   UNL     1      27.728  41.443  51.201  1.00  0.00     0.256 C 
HETATM   12  O   UNL     1      27.126  40.756  52.020  1.00  0.00    -0.267 OA
HETATM   13  H   UNL     1      28.635  43.244  50.693  1.00  0.00     0.169 HD
BRANCH  11  14
HETATM   14  C   UNL     1      27.788  40.948  49.786  1.00  0.00     0.032 A 
HETATM   15  C   UNL     1      27.202  41.608  48.697  1.00  0.00     0.017 A 
HETATM   16  C   UNL     1      27.337  41.090  47.403  1.00  0.00     0.001 A 
HETATM   17  C   UNL     1      28.053  39.913  47.188  1.00  0.00     0.000 A 
HETATM   18  C   UNL     1      28.631  39.245  48.262  1.00  0.00     0.001 A 
HETATM   19  C   UNL     1      28.498  39.758  49.553  1.00  0.00     0.017 A 
ENDBRANCH  11  14
ENDBRANCH   1  10
BRANCH   9  20
HETATM   20  C   UNL     1      26.716  44.669  52.968  1.00  0.00     0.255 C 
HETATM   21  N   UNL     1      26.561  46.038  52.923  1.00  0.00    -0.355 N 
HETATM   22  H   UNL     1      27.367  46.597  53.172  1.00  0.00     0.162 HD
HETATM   23  O   UNL     1      25.742  43.946  52.743  1.00  0.00    -0.268 OA
BRANCH  21  24
HETATM   24  C   UNL     1      25.518  46.718  52.160  1.00  0.00     0.150 C 
BRANCH  24  25
HETATM   25  C   UNL     1      25.739  46.883  50.646  1.00  0.00     0.249 C 
BRANCH  25  26
HETATM   26  N   UNL     1      25.428  45.629  49.917  1.00  0.00    -0.078 N 
HETATM   27  H   UNL     1      24.696  45.853  49.220  1.00  0.00     0.274 HD
HETATM   28  H   UNL     1      26.233  45.249  49.404  1.00  0.00     0.274 HD
HETATM   29  H   UNL     1      25.045  44.901  50.531  1.00  0.00     0.274 HD
ENDBRANCH  25  26
ENDBRANCH  24  25
ENDBRANCH  21  24
ENDBRANCH   9  20
TORSDOF 6
ENDMDL
