MODEL 1
REMARK VINA RESULT:      -9.6      0.000      0.000
REMARK  5 active torsions:
REMARK  status: ('A' for Active; 'I' for Inactive)
REMARK    1  A    between atoms: C_3  and  C_4 
REMARK    2  A    between atoms: C_9  and  N_10 
REMARK       I    between atoms: N_10  and  C_11 
REMARK    3  A    between atoms: C_11  and  C_12 
REMARK    4  A    between atoms: C_14  and  C_15 
REMARK    5  A    between atoms: C_17  and  O_18 
ROOT
HETATM    1  C   UNL     1      27.453  43.971  51.481  1.00  0.00     0.149 A 
HETATM    2  N   UNL     1      28.036  44.595  52.579  1.00  0.00    -0.223 NA
HETATM    3  C   UNL     1      28.714  43.661  53.222  1.00  0.00     0.139 A 
HETATM    4  N   UNL     1      28.563  42.450  52.584  1.00  0.00    -0.342 N 
HETATM    5  H   UNL     1      28.953  41.574  52.902  1.00  0.00     0.167 HD
HETATM    6  C   UNL     1      27.771  42.625  51.482  1.00  0.00     0.041 A 
HETATM    7  C   UNL     1      27.398  41.521  50.569  1.00  0.00     0.071 C 
ENDROOT
BRANCH   1   8
HETATM    8  C   UNL     1      26.623  44.689  50.501  1.00  0.00     0.276 C 
HETATM    9  N   UNL     1      26.422  46.002  50.878  1.00  0.00    -0.322 N 
HETATM   10  H   UNL     1      26.885  46.251  51.749  1.00  0.00     0.169 HD
HETATM   11  O   UNL     1      26.192  44.143  49.493  1.00  0.00    -0.266 OA
BRANCH   9  12
HETATM   12  C   UNL     1      25.669  46.989  50.217  1.00  0.00     0.035 A 
HETATM   13  C   UNL     1      24.279  46.982  50.142  1.00  0.00     0.030 A 
HETATM   14  C   UNL     1      23.595  48.012  49.488  1.00  0.00     0.018 A 
HETATM   15  C   UNL     1      24.295  49.067  48.887  1.00  0.00     0.015 A 
HETATM   16  C   UNL     1      25.702  49.083  48.940  1.00  0.00    -0.046 A 
HETATM   17  C   UNL     1      26.523  50.182  48.319  1.00  0.00     0.049 C 
HETATM   18  C   UNL     1      26.370  48.042  49.615  1.00  0.00     0.037 A 
BRANCH  15  19
HETATM   19  C   UNL     1      23.519  50.164  48.229  1.00  0.00     0.156 C 
HETATM   20  C   UNL     1      22.783  51.145  49.105  1.00  0.00     0.097 C 
HETATM   21  O   UNL     1      23.509  50.278  47.006  1.00  0.00    -0.293 OA
ENDBRANCH  15  19
ENDBRANCH   9  12
ENDBRANCH   1   8
BRANCH   3  22
HETATM   22  C   UNL     1      29.486  43.831  54.457  1.00  0.00     0.013 A 
HETATM   23  C   UNL     1      29.242  44.944  55.279  1.00  0.00     0.052 A 
HETATM   24  C   UNL     1      29.942  45.116  56.475  1.00  0.00     0.069 A 
HETATM   25  C   UNL     1      30.907  44.178  56.846  1.00  0.00     0.037 A 
HETATM   26  C   UNL     1      31.172  43.076  56.035  1.00  0.00     0.004 A 
HETATM   27  C   UNL     1      30.464  42.903  54.845  1.00  0.00     0.015 A 
BRANCH  24  28
HETATM   28  O   UNL     1      29.782  46.146  57.363  1.00  0.00    -0.356 OA
HETATM   29  C   UNL     1      30.725  46.231  58.424  1.00  0.00     0.210 C 
ENDBRANCH  24  28
ENDBRANCH   3  22
TORSDOF 5
ENDMDL
MODEL 2
REMARK VINA RESULT:      -9.3      2.856     10.017
REMARK  5 active torsions:
REMARK  status: ('A' for Active; 'I' for Inactive)
REMARK    1  A    between atoms: C_3  and  C_4 
REMARK    2  A    between atoms: C_9  and  N_10 
REMARK       I    between atoms: N_10  and  C_11 
REMARK    3  A    between atoms: C_11  and  C_12 
REMARK    4  A    between atoms: C_14  and  C_15 
REMARK    5  A    between atoms: C_17  and  O_18 
ROOT
HETATM    1  C   UNL     1      24.454  47.442  50.150  1.00  0.00     0.149 A 
HETATM    2  N   UNL     1      23.772  48.632  49.912  1.00  0.00    -0.223 NA
HETATM    3  C   UNL     1      22.691  48.309  49.222  1.00  0.00     0.139 A 
HETATM    4  N   UNL     1      22.671  46.953  48.989  1.00  0.00    -0.342 N 
HETATM    5  H   UNL     1      21.968  46.466  48.452  1.00  0.00     0.167 HD
HETATM    6  C   UNL     1      23.776  46.387  49.568  1.00  0.00     0.041 A 
HETATM    7  C   UNL     1      24.071  44.938  49.502  1.00  0.00     0.071 C 
ENDROOT
BRANCH   1   8
HETATM    8  C   UNL     1      25.712  47.381  50.909  1.00  0.00     0.276 C 
HETATM    9  N   UNL     1      25.508  46.888  52.183  1.00  0.00    -0.322 N 
HETATM   10  H   UNL     1      24.539  46.641  52.373  1.00  0.00     0.169 HD
HETATM   11  O   UNL     1      26.780  47.734  50.424  1.00  0.00    -0.266 OA
BRANCH   9  12
HETATM   12  C   UNL     1      26.456  46.705  53.205  1.00  0.00     0.035 A 
HETATM   13  C   UNL     1      26.877  47.719  54.062  1.00  0.00     0.030 A 
HETATM   14  C   UNL     1      27.807  47.457  55.073  1.00  0.00     0.018 A 
HETATM   15  C   UNL     1      28.342  46.172  55.239  1.00  0.00     0.015 A 
HETATM   16  C   UNL     1      27.939  45.138  54.373  1.00  0.00    -0.046 A 
HETATM   17  C   UNL     1      28.467  43.733  54.489  1.00  0.00     0.049 C 
HETATM   18  C   UNL     1      26.991  45.420  53.369  1.00  0.00     0.037 A 
BRANCH  15  19
HETATM   19  C   UNL     1      29.306  45.932  56.357  1.00  0.00     0.156 C 
HETATM   20  C   UNL     1      28.804  46.047  57.774  1.00  0.00     0.097 C 
HETATM   21  O   UNL     1      30.471  45.621  56.123  1.00  0.00    -0.293 OA
ENDBRANCH  15  19
ENDBRANCH   9  12
ENDBRANCH   1   8
BRANCH   3  22
HETATM   22  C   UNL     1      21.665  49.229  48.720  1.00  0.00     0.013 A 
HETATM   23  C   UNL     1      20.622  48.734  47.918  1.00  0.00     0.052 A 
HETATM   24  C   UNL     1      19.616  49.582  47.451  1.00  0.00     0.069 A 
HETATM   25  C   UNL     1      19.661  50.940  47.772  1.00  0.00     0.037 A 
HETATM   26  C   UNL     1      20.695  51.451  48.554  1.00  0.00     0.004 A 
HETATM   27  C   UNL     1      21.694  50.598  49.026  1.00  0.00     0.015 A 
BRANCH  24  28
HETATM   28  O   UNL     1      18.547  49.217  46.680  1.00  0.00    -0.356 OA
HETATM   29  C   UNL     1      17.328  49.916  46.897  1.00  0.00     0.210 C 
ENDBRANCH  24  28
ENDBRANCH   3  22
TORSDOF 5
ENDMDL
MODEL 3
REMARK VINA RESULT:      -9.1      3.417      6.230
REMARK  5 active torsions:
REMARK  status: ('A' for Active; 'I' for Inactive)
REMARK    1  A    between atoms: C_3  and  C_4 
REMARK    2  A    between atoms: C_9  and  N_10 
REMARK       I    between atoms: N_10  and  C_11 
REMARK    3  A    between atoms: C_11  and  C_12 
REMARK    4  A    between atoms: C_14  and  C_15 
REMARK    5  A    between atoms: C_17  and  O_18 
ROOT
HETATM    1  C   UNL     1      24.531  48.557  49.459  1.00  0.00     0.149 A 
HETATM    2  N   UNL     1      24.429  47.626  50.488  1.00  0.00    -0.223 NA
HETATM    3  C   UNL     1      25.664  47.375  50.887  1.00  0.00     0.139 A 
HETATM    4  N   UNL     1      26.556  48.098  50.128  1.00  0.00    -0.342 N 
HETATM    5  H   UNL     1      27.562  48.051  50.213  1.00  0.00     0.167 HD
HETATM    6  C   UNL     1      25.860  48.851  49.221  1.00  0.00     0.041 A 
HETATM    7  C   UNL     1      26.514  49.745  48.239  1.00  0.00     0.071 C 
ENDROOT
BRANCH   1   8
HETATM    8  C   UNL     1      23.358  49.104  48.759  1.00  0.00     0.276 C 
HETATM    9  N   UNL     1      22.358  49.449  49.647  1.00  0.00    -0.322 N 
HETATM   10  H   UNL     1      22.602  49.281  50.620  1.00  0.00     0.169 HD
HETATM   11  O   UNL     1      23.327  49.221  47.540  1.00  0.00    -0.266 OA
BRANCH   9  12
HETATM   12  C   UNL     1      21.087  49.979  49.359  1.00  0.00     0.035 A 
HETATM   13  C   UNL     1      20.855  51.322  49.072  1.00  0.00     0.030 A 
HETATM   14  C   UNL     1      19.567  51.773  48.771  1.00  0.00     0.018 A 
HETATM   15  C   UNL     1      18.481  50.887  48.761  1.00  0.00     0.015 A 
HETATM   16  C   UNL     1      18.694  49.528  49.063  1.00  0.00    -0.046 A 
HETATM   17  C   UNL     1      17.580  48.516  49.071  1.00  0.00     0.049 C 
HETATM   18  C   UNL     1      20.003  49.092  49.351  1.00  0.00     0.037 A 
BRANCH  15  19
HETATM   19  C   UNL     1      17.127  51.410  48.398  1.00  0.00     0.156 C 
HETATM   20  C   UNL     1      16.267  51.992  49.492  1.00  0.00     0.097 C 
HETATM   21  O   UNL     1      16.739  51.391  47.233  1.00  0.00    -0.293 OA
ENDBRANCH  15  19
ENDBRANCH   9  12
ENDBRANCH   1   8
BRANCH   3  22
HETATM   22  C   UNL     1      26.073  46.442  51.942  1.00  0.00     0.013 A 
HETATM   23  C   UNL     1      26.387  45.113  51.608  1.00  0.00     0.052 A 
HETATM   24  C   UNL     1      26.806  44.211  52.588  1.00  0.00     0.069 A 
HETATM   25  C   UNL     1      26.896  44.634  53.915  1.00  0.00     0.037 A 
HETATM   26  C   UNL     1      26.574  45.944  54.266  1.00  0.00     0.004 A 
HETATM   27  C   UNL     1      26.164  46.844  53.283  1.00  0.00     0.015 A 
BRANCH  24  28
HETATM   28  O   UNL     1      27.154  42.903  52.385  1.00  0.00    -0.356 OA
HETATM   29  C   UNL     1      27.816  42.240  53.454  1.00  0.00     0.210 C 
ENDBRANCH  24  28
ENDBRANCH   3  22
TORSDOF 5
ENDMDL
MODEL 4
REMARK VINA RESULT:      -9.1      3.446      5.920
REMARK  5 active torsions:
REMARK  status: ('A' for Active; 'I' for Inactive)
REMARK    1  A    between atoms: C_3  and  C_4 
REMARK    2  A    between atoms: C_9  and  N_10 
REMARK       I    between atoms: N_10  and  C_11 
REMARK    3  A    between atoms: C_11  and  C_12 
REMARK    4  A    between atoms: C_14  and  C_15 
REMARK    5  A    between atoms: C_17  and  O_18 
ROOT
HETATM    1  C   UNL     1      24.414  48.385  49.467  1.00  0.00     0.149 A 
HETATM    2  N   UNL     1      24.448  47.496  50.537  1.00  0.00    -0.223 NA
HETATM    3  C   UNL     1      25.717  47.391  50.894  1.00  0.00     0.139 A 
HETATM    4  N   UNL     1      26.500  48.167  50.070  1.00  0.00    -0.342 N 
HETATM    5  H   UNL     1      27.508  48.227  50.115  1.00  0.00     0.167 HD
HETATM    6  C   UNL     1      25.696  48.803  49.162  1.00  0.00     0.041 A 
HETATM    7  C   UNL     1      26.217  49.714  48.118  1.00  0.00     0.071 C 
ENDROOT
BRANCH   1   8
HETATM    8  C   UNL     1      23.166  48.778  48.794  1.00  0.00     0.276 C 
HETATM    9  N   UNL     1      22.339  49.487  49.642  1.00  0.00    -0.322 N 
HETATM   10  H   UNL     1      22.731  49.628  50.570  1.00  0.00     0.169 HD
HETATM   11  O   UNL     1      22.941  48.489  47.625  1.00  0.00    -0.266 OA
BRANCH   9  12
HETATM   12  C   UNL     1      21.061  50.008  49.373  1.00  0.00     0.035 A 
HETATM   13  C   UNL     1      20.813  51.353  49.108  1.00  0.00     0.030 A 
HETATM   14  C   UNL     1      19.517  51.796  48.824  1.00  0.00     0.018 A 
HETATM   15  C   UNL     1      18.440  50.898  48.809  1.00  0.00     0.015 A 
HETATM   16  C   UNL     1      18.670  49.537  49.088  1.00  0.00    -0.046 A 
HETATM   17  C   UNL     1      17.566  48.514  49.090  1.00  0.00     0.049 C 
HETATM   18  C   UNL     1      19.986  49.110  49.359  1.00  0.00     0.037 A 
BRANCH  15  19
HETATM   19  C   UNL     1      17.078  51.412  48.465  1.00  0.00     0.156 C 
HETATM   20  C   UNL     1      16.233  51.995  49.569  1.00  0.00     0.097 C 
HETATM   21  O   UNL     1      16.673  51.386  47.306  1.00  0.00    -0.293 OA
ENDBRANCH  15  19
ENDBRANCH   9  12
ENDBRANCH   1   8
BRANCH   3  22
HETATM   22  C   UNL     1      26.258  46.553  51.968  1.00  0.00     0.013 A 
HETATM   23  C   UNL     1      26.554  47.130  53.215  1.00  0.00     0.052 A 
HETATM   24  C   UNL     1      27.044  46.350  54.265  1.00  0.00     0.069 A 
HETATM   25  C   UNL     1      27.256  44.985  54.062  1.00  0.00     0.037 A 
HETATM   26  C   UNL     1      26.983  44.400  52.827  1.00  0.00     0.004 A 
HETATM   27  C   UNL     1      26.486  45.181  51.784  1.00  0.00     0.015 A 
BRANCH  24  28
HETATM   28  O   UNL     1      27.352  46.791  55.522  1.00  0.00    -0.356 OA
HETATM   29  C   UNL     1      28.473  46.190  56.158  1.00  0.00     0.210 C 
ENDBRANCH  24  28
ENDBRANCH   3  22
TORSDOF 5
ENDMDL
MODEL 5
REMARK VINA RESULT:      -8.9      2.036      9.274
REMARK  5 active torsions:
REMARK  status: ('A' for Active; 'I' for Inactive)
REMARK    1  A    between atoms: C_3  and  C_4 
REMARK    2  A    between atoms: C_9  and  N_10 
REMARK       I    between atoms: N_10  and  C_11 
REMARK    3  A    between atoms: C_11  and  C_12 
REMARK    4  A    between atoms: C_14  and  C_15 
REMARK    5  A    between atoms: C_17  and  O_18 
ROOT
HETATM    1  C   UNL     1      25.011  45.830  51.809  1.00  0.00     0.149 A 
HETATM    2  N   UNL     1      25.025  47.168  51.425  1.00  0.00    -0.223 NA
HETATM    3  C   UNL     1      24.341  47.239  50.296  1.00  0.00     0.139 A 
HETATM    4  N   UNL     1      23.910  45.983  49.931  1.00  0.00    -0.342 N 
HETATM    5  H   UNL     1      23.398  45.768  49.087  1.00  0.00     0.167 HD
HETATM    6  C   UNL     1      24.322  45.081  50.874  1.00  0.00     0.041 A 
HETATM    7  C   UNL     1      24.033  43.631  50.788  1.00  0.00     0.071 C 
ENDROOT
BRANCH   1   8
HETATM    8  C   UNL     1      25.660  45.346  53.037  1.00  0.00     0.276 C 
HETATM    9  N   UNL     1      26.930  45.868  53.175  1.00  0.00    -0.322 N 
HETATM   10  H   UNL     1      27.195  46.500  52.423  1.00  0.00     0.169 HD
HETATM   11  O   UNL     1      25.096  44.577  53.807  1.00  0.00    -0.266 OA
BRANCH   9  12
HETATM   12  C   UNL     1      27.863  45.623  54.199  1.00  0.00     0.035 A 
HETATM   13  C   UNL     1      28.042  46.458  55.299  1.00  0.00     0.030 A 
HETATM   14  C   UNL     1      28.972  46.137  56.292  1.00  0.00     0.018 A 
HETATM   15  C   UNL     1      29.751  44.975  56.197  1.00  0.00     0.015 A 
HETATM   16  C   UNL     1      29.594  44.127  55.084  1.00  0.00    -0.046 A 
HETATM   17  C   UNL     1      30.392  42.862  54.911  1.00  0.00     0.049 C 
HETATM   18  C   UNL     1      28.641  44.462  54.101  1.00  0.00     0.037 A 
BRANCH  15  19
HETATM   19  C   UNL     1      30.708  44.656  57.302  1.00  0.00     0.156 C 
HETATM   20  C   UNL     1      31.780  43.627  57.045  1.00  0.00     0.097 C 
HETATM   21  O   UNL     1      30.638  45.240  58.380  1.00  0.00    -0.293 OA
ENDBRANCH  15  19
ENDBRANCH   9  12
ENDBRANCH   1   8
BRANCH   3  22
HETATM   22  C   UNL     1      24.092  48.441  49.495  1.00  0.00     0.013 A 
HETATM   23  C   UNL     1      22.819  49.037  49.514  1.00  0.00     0.052 A 
HETATM   24  C   UNL     1      22.563  50.199  48.783  1.00  0.00     0.069 A 
HETATM   25  C   UNL     1      23.582  50.762  48.014  1.00  0.00     0.037 A 
HETATM   26  C   UNL     1      24.846  50.177  47.971  1.00  0.00     0.004 A 
HETATM   27  C   UNL     1      25.100  49.021  48.710  1.00  0.00     0.015 A 
BRANCH  24  28
HETATM   28  O   UNL     1      21.375  50.876  48.735  1.00  0.00    -0.356 OA
HETATM   29  C   UNL     1      20.465  50.654  49.804  1.00  0.00     0.210 C 
ENDBRANCH  24  28
ENDBRANCH   3  22
TORSDOF 5
ENDMDL
MODEL 6
REMARK VINA RESULT:      -8.7      3.096      4.605
REMARK  5 active torsions:
REMARK  status: ('A' for Active; 'I' for Inactive)
REMARK    1  A    between atoms: C_3  and  C_4 
REMARK    2  A    between atoms: C_9  and  N_10 
REMARK       I    between atoms: N_10  and  C_11 
REMARK    3  A    between atoms: C_11  and  C_12 
REMARK    4  A    between atoms: C_14  and  C_15 
REMARK    5  A    between atoms: C_17  and  O_18 
ROOT
HETATM    1  C   UNL     1      24.830  47.047  50.424  1.00  0.00     0.149 A 
HETATM    2  N   UNL     1      25.374  47.513  51.618  1.00  0.00    -0.223 NA
HETATM    3  C   UNL     1      26.008  46.490  52.163  1.00  0.00     0.139 A 
HETATM    4  N   UNL     1      25.867  45.375  51.368  1.00  0.00    -0.342 N 
HETATM    5  H   UNL     1      26.229  44.457  51.586  1.00  0.00     0.167 HD
HETATM    6  C   UNL     1      25.127  45.706  50.265  1.00  0.00     0.041 A 
HETATM    7  C   UNL     1      24.780  44.736  49.202  1.00  0.00     0.071 C 
ENDROOT
BRANCH   1   8
HETATM    8  C   UNL     1      24.056  47.902  49.512  1.00  0.00     0.276 C 
HETATM    9  N   UNL     1      22.707  47.613  49.574  1.00  0.00    -0.322 N 
HETATM   10  H   UNL     1      22.479  46.878  50.239  1.00  0.00     0.169 HD
HETATM   11  O   UNL     1      24.591  48.752  48.810  1.00  0.00    -0.266 OA
BRANCH   9  12
HETATM   12  C   UNL     1      21.660  48.197  48.839  1.00  0.00     0.035 A 
HETATM   13  C   UNL     1      20.923  47.521  47.870  1.00  0.00     0.030 A 
HETATM   14  C   UNL     1      19.877  48.160  47.196  1.00  0.00     0.018 A 
HETATM   15  C   UNL     1      19.555  49.496  47.474  1.00  0.00     0.015 A 
HETATM   16  C   UNL     1      20.300  50.200  48.441  1.00  0.00    -0.046 A 
HETATM   17  C   UNL     1      20.014  51.634  48.795  1.00  0.00     0.049 C 
HETATM   18  C   UNL     1      21.341  49.532  49.117  1.00  0.00     0.037 A 
BRANCH  15  19
HETATM   19  C   UNL     1      18.406  50.126  46.753  1.00  0.00     0.156 C 
HETATM   20  C   UNL     1      18.643  50.675  45.369  1.00  0.00     0.097 C 
HETATM   21  O   UNL     1      17.291  50.167  47.267  1.00  0.00    -0.293 OA
ENDBRANCH  15  19
ENDBRANCH   9  12
ENDBRANCH   1   8
BRANCH   3  22
HETATM   22  C   UNL     1      26.727  46.484  53.441  1.00  0.00     0.013 A 
HETATM   23  C   UNL     1      27.609  45.431  53.735  1.00  0.00     0.052 A 
HETATM   24  C   UNL     1      28.328  45.414  54.933  1.00  0.00     0.069 A 
HETATM   25  C   UNL     1      28.152  46.450  55.851  1.00  0.00     0.037 A 
HETATM   26  C   UNL     1      27.269  47.495  55.583  1.00  0.00     0.004 A 
HETATM   27  C   UNL     1      26.559  47.512  54.382  1.00  0.00     0.015 A 
BRANCH  24  28
HETATM   28  O   UNL     1      29.224  44.457  55.323  1.00  0.00    -0.356 OA
HETATM   29  C   UNL     1      30.317  44.887  56.124  1.00  0.00     0.210 C 
ENDBRANCH  24  28
ENDBRANCH   3  22
TORSDOF 5
ENDMDL
MODEL 7
REMARK VINA RESULT:      -8.4      3.395     10.579
REMARK  5 active torsions:
REMARK  status: ('A' for Active; 'I' for Inactive)
REMARK    1  A    between atoms: C_3  and  C_4 
REMARK    2  A    between atoms: C_9  and  N_10 
REMARK       I    between atoms: N_10  and  C_11 
REMARK    3  A    between atoms: C_11  and  C_12 
REMARK    4  A    between atoms: C_14  and  C_15 
REMARK    5  A    between atoms: C_17  and  O_18 
ROOT
HETATM    1  C   UNL     1      23.233  48.125  49.251  1.00  0.00     0.149 A 
HETATM    2  N   UNL     1      22.583  49.356  49.254  1.00  0.00    -0.223 NA
HETATM    3  C   UNL     1      21.492  49.203  48.523  1.00  0.00     0.139 A 
HETATM    4  N   UNL     1      21.435  47.918  48.031  1.00  0.00    -0.342 N 
HETATM    5  H   UNL     1      20.717  47.564  47.415  1.00  0.00     0.167 HD
HETATM    6  C   UNL     1      22.525  47.222  48.481  1.00  0.00     0.041 A 
HETATM    7  C   UNL     1      22.780  45.806  48.134  1.00  0.00     0.071 C 
ENDROOT
BRANCH   1   8
HETATM    8  C   UNL     1      24.490  47.885  49.976  1.00  0.00     0.276 C 
HETATM    9  N   UNL     1      24.325  46.944  50.972  1.00  0.00    -0.322 N 
HETATM   10  H   UNL     1      23.380  46.571  51.028  1.00  0.00     0.169 HD
HETATM   11  O   UNL     1      25.526  48.472  49.688  1.00  0.00    -0.266 OA
BRANCH   9  12
HETATM   12  C   UNL     1      25.283  46.470  51.886  1.00  0.00     0.035 A 
HETATM   13  C   UNL     1      25.438  46.971  53.176  1.00  0.00     0.030 A 
HETATM   14  C   UNL     1      26.398  46.433  54.039  1.00  0.00     0.018 A 
HETATM   15  C   UNL     1      27.230  45.385  53.622  1.00  0.00     0.015 A 
HETATM   16  C   UNL     1      27.098  44.875  52.316  1.00  0.00    -0.046 A 
HETATM   17  C   UNL     1      27.953  43.751  51.795  1.00  0.00     0.049 C 
HETATM   18  C   UNL     1      26.115  45.423  51.467  1.00  0.00     0.037 A 
BRANCH  15  19
HETATM   19  C   UNL     1      28.217  44.819  54.592  1.00  0.00     0.156 C 
HETATM   20  C   UNL     1      29.152  45.768  55.299  1.00  0.00     0.097 C 
HETATM   21  O   UNL     1      28.244  43.614  54.827  1.00  0.00    -0.293 OA
ENDBRANCH  15  19
ENDBRANCH   9  12
ENDBRANCH   1   8
BRANCH   3  22
HETATM   22  C   UNL     1      20.491  50.229  48.216  1.00  0.00     0.013 A 
HETATM   23  C   UNL     1      19.689  50.095  47.070  1.00  0.00     0.052 A 
HETATM   24  C   UNL     1      18.709  51.043  46.769  1.00  0.00     0.069 A 
HETATM   25  C   UNL     1      18.539  52.143  47.611  1.00  0.00     0.037 A 
HETATM   26  C   UNL     1      19.335  52.300  48.744  1.00  0.00     0.004 A 
HETATM   27  C   UNL     1      20.308  51.346  49.046  1.00  0.00     0.015 A 
BRANCH  24  28
HETATM   28  O   UNL     1      17.860  51.014  45.696  1.00  0.00    -0.356 OA
HETATM   29  C   UNL     1      18.341  50.388  44.513  1.00  0.00     0.210 C 
ENDBRANCH  24  28
ENDBRANCH   3  22
TORSDOF 5
ENDMDL
MODEL 8
REMARK VINA RESULT:      -8.3      2.898      3.732
REMARK  5 active torsions:
REMARK  status: ('A' for Active; 'I' for Inactive)
REMARK    1  A    between atoms: C_3  and  C_4 
REMARK    2  A    between atoms: C_9  and  N_10 
REMARK       I    between atoms: N_10  and  C_11 
REMARK    3  A    between atoms: C_11  and  C_12 
REMARK    4  A    between atoms: C_14  and  C_15 
REMARK    5  A    between atoms: C_17  and  O_18 
ROOT
HETATM    1  C   UNL     1      27.729  42.475  51.080  1.00  0.00     0.149 A 
HETATM    2  N   UNL     1      27.972  43.479  52.012  1.00  0.00    -0.223 NA
HETATM    3  C   UNL     1      28.812  42.970  52.898  1.00  0.00     0.139 A 
HETATM    4  N   UNL     1      29.095  41.662  52.575  1.00  0.00    -0.342 N 
HETATM    5  H   UNL     1      29.683  41.044  53.118  1.00  0.00     0.167 HD
HETATM    6  C   UNL     1      28.422  41.331  51.430  1.00  0.00     0.041 A 
HETATM    7  C   UNL     1      28.497  39.991  50.805  1.00  0.00     0.071 C 
ENDROOT
BRANCH   1   8
HETATM    8  C   UNL     1      26.848  42.662  49.917  1.00  0.00     0.276 C 
HETATM    9  N   UNL     1      25.585  43.066  50.303  1.00  0.00    -0.322 N 
HETATM   10  H   UNL     1      25.483  43.178  51.309  1.00  0.00     0.169 HD
HETATM   11  O   UNL     1      27.238  42.471  48.771  1.00  0.00    -0.266 OA
BRANCH   9  12
HETATM   12  C   UNL     1      24.469  43.323  49.486  1.00  0.00     0.035 A 
HETATM   13  C   UNL     1      23.727  42.328  48.855  1.00  0.00     0.030 A 
HETATM   14  C   UNL     1      22.612  42.657  48.077  1.00  0.00     0.018 A 
HETATM   15  C   UNL     1      22.225  43.993  47.907  1.00  0.00     0.015 A 
HETATM   16  C   UNL     1      22.974  45.014  48.525  1.00  0.00    -0.046 A 
HETATM   17  C   UNL     1      22.621  46.471  48.391  1.00  0.00     0.049 C 
HETATM   18  C   UNL     1      24.085  44.659  49.316  1.00  0.00     0.037 A 
BRANCH  15  19
HETATM   19  C   UNL     1      21.006  44.293  47.094  1.00  0.00     0.156 C 
HETATM   20  C   UNL     1      21.175  44.552  45.619  1.00  0.00     0.097 C 
HETATM   21  O   UNL     1      19.893  44.299  47.613  1.00  0.00    -0.293 OA
ENDBRANCH  15  19
ENDBRANCH   9  12
ENDBRANCH   1   8
BRANCH   3  22
HETATM   22  C   UNL     1      29.350  43.643  54.084  1.00  0.00     0.013 A 
HETATM   23  C   UNL     1      28.698  44.780  54.591  1.00  0.00     0.052 A 
HETATM   24  C   UNL     1      29.173  45.424  55.736  1.00  0.00     0.069 A 
HETATM   25  C   UNL     1      30.317  44.938  56.371  1.00  0.00     0.037 A 
HETATM   26  C   UNL     1      30.985  43.821  55.873  1.00  0.00     0.004 A 
HETATM   27  C   UNL     1      30.503  43.175  54.733  1.00  0.00     0.015 A 
BRANCH  24  28
HETATM   28  O   UNL     1      28.618  46.524  56.331  1.00  0.00    -0.356 OA
HETATM   29  C   UNL     1      27.631  47.228  55.588  1.00  0.00     0.210 C 
ENDBRANCH  24  28
ENDBRANCH   3  22
TORSDOF 5
ENDMDL
MODEL 9
REMARK VINA RESULT:      -8.1      9.806     14.973
REMARK  5 active torsions:
REMARK  status: ('A' for Active; 'I' for Inactive)
REMARK    1  A    between atoms: C_3  and  C_4 
REMARK    2  A    between atoms: C_9  and  N_10 
REMARK       I    between atoms: N_10  and  C_11 
REMARK    3  A    between atoms: C_11  and  C_12 
REMARK    4  A    between atoms: C_14  and  C_15 
REMARK    5  A    between atoms: C_17  and  O_18 
ROOT
HETATM    1  C   UNL     1      15.445  53.297  49.957  1.00  0.00     0.149 A 
HETATM    2  N   UNL     1      16.617  52.603  50.243  1.00  0.00    -0.223 NA
HETATM    3  C   UNL     1      17.136  52.251  49.079  1.00  0.00     0.139 A 
HETATM    4  N   UNL     1      16.319  52.677  48.056  1.00  0.00    -0.342 N 
HETATM    5  H   UNL     1      16.478  52.498  47.074  1.00  0.00     0.167 HD
HETATM    6  C   UNL     1      15.247  53.340  48.589  1.00  0.00     0.041 A 
HETATM    7  C   UNL     1      14.165  53.925  47.765  1.00  0.00     0.071 C 
ENDROOT
BRANCH   1   8
HETATM    8  C   UNL     1      14.582  53.870  51.000  1.00  0.00     0.276 C 
HETATM    9  N   UNL     1      15.186  54.948  51.617  1.00  0.00    -0.322 N 
HETATM   10  H   UNL     1      16.106  55.168  51.243  1.00  0.00     0.169 HD
HETATM   11  O   UNL     1      13.473  53.412  51.248  1.00  0.00    -0.266 OA
BRANCH   9  12
HETATM   12  C   UNL     1      14.687  55.736  52.670  1.00  0.00     0.035 A 
HETATM   13  C   UNL     1      13.364  55.701  53.105  1.00  0.00     0.030 A 
HETATM   14  C   UNL     1      12.946  56.497  54.175  1.00  0.00     0.018 A 
HETATM   15  C   UNL     1      13.844  57.353  54.827  1.00  0.00     0.015 A 
HETATM   16  C   UNL     1      15.182  57.412  54.392  1.00  0.00    -0.046 A 
HETATM   17  C   UNL     1      16.206  58.304  55.041  1.00  0.00     0.049 C 
HETATM   18  C   UNL     1      15.587  56.592  53.319  1.00  0.00     0.037 A 
BRANCH  15  19
HETATM   19  C   UNL     1      13.358  58.158  55.990  1.00  0.00     0.156 C 
HETATM   20  C   UNL     1      12.790  59.529  55.724  1.00  0.00     0.097 C 
HETATM   21  O   UNL     1      13.396  57.700  57.129  1.00  0.00    -0.293 OA
ENDBRANCH  15  19
ENDBRANCH   9  12
ENDBRANCH   1   8
BRANCH   3  22
HETATM   22  C   UNL     1      18.367  51.484  48.863  1.00  0.00     0.013 A 
HETATM   23  C   UNL     1      18.316  50.080  48.860  1.00  0.00     0.052 A 
HETATM   24  C   UNL     1      19.468  49.325  48.628  1.00  0.00     0.069 A 
HETATM   25  C   UNL     1      20.684  49.977  48.416  1.00  0.00     0.037 A 
HETATM   26  C   UNL     1      20.755  51.369  48.431  1.00  0.00     0.004 A 
HETATM   27  C   UNL     1      19.600  52.120  48.654  1.00  0.00     0.015 A 
BRANCH  24  28
HETATM   28  O   UNL     1      19.542  47.959  48.585  1.00  0.00    -0.356 OA
HETATM   29  C   UNL     1      20.843  47.386  48.577  1.00  0.00     0.210 C 
ENDBRANCH  24  28
ENDBRANCH   3  22
TORSDOF 5
ENDMDL
MODEL 10
REMARK VINA RESULT:      -7.9      2.201      9.164
REMARK  5 active torsions:
REMARK  status: ('A' for Active; 'I' for Inactive)
REMARK    1  A    between atoms: C_3  and  C_4 
REMARK    2  A    between atoms: C_9  and  N_10 
REMARK       I    between atoms: N_10  and  C_11 
REMARK    3  A    between atoms: C_11  and  C_12 
REMARK    4  A    between atoms: C_14  and  C_15 
REMARK    5  A    between atoms: C_17  and  O_18 
ROOT
HETATM    1  C   UNL     1      25.096  45.123  50.056  1.00  0.00     0.149 A 
HETATM    2  N   UNL     1      24.408  46.292  49.747  1.00  0.00    -0.223 NA
HETATM    3  C   UNL     1      23.342  45.926  49.056  1.00  0.00     0.139 A 
HETATM    4  N   UNL     1      23.339  44.559  48.892  1.00  0.00    -0.342 N 
HETATM    5  H   UNL     1      22.649  44.039  48.367  1.00  0.00     0.167 HD
HETATM    6  C   UNL     1      24.438  44.034  49.516  1.00  0.00     0.041 A 
HETATM    7  C   UNL     1      24.747  42.586  49.529  1.00  0.00     0.071 C 
ENDROOT
BRANCH   1   8
HETATM    8  C   UNL     1      26.341  45.113  50.839  1.00  0.00     0.276 C 
HETATM    9  N   UNL     1      26.094  45.323  52.181  1.00  0.00    -0.322 N 
HETATM   10  H   UNL     1      25.107  45.434  52.400  1.00  0.00     0.169 HD
HETATM   11  O   UNL     1      27.435  44.934  50.315  1.00  0.00    -0.266 OA
BRANCH   9  12
HETATM   12  C   UNL     1      27.024  45.403  53.233  1.00  0.00     0.035 A 
HETATM   13  C   UNL     1      27.171  46.519  54.053  1.00  0.00     0.030 A 
HETATM   14  C   UNL     1      28.102  46.519  55.096  1.00  0.00     0.018 A 
HETATM   15  C   UNL     1      28.912  45.400  55.333  1.00  0.00     0.015 A 
HETATM   16  C   UNL     1      28.788  44.268  54.505  1.00  0.00    -0.046 A 
HETATM   17  C   UNL     1      29.621  43.029  54.697  1.00  0.00     0.049 C 
HETATM   18  C   UNL     1      27.834  44.285  53.467  1.00  0.00     0.037 A 
BRANCH  15  19
HETATM   19  C   UNL     1      29.868  45.432  56.483  1.00  0.00     0.156 C 
HETATM   20  C   UNL     1      29.377  45.960  57.808  1.00  0.00     0.097 C 
HETATM   21  O   UNL     1      31.014  45.011  56.357  1.00  0.00    -0.293 OA
ENDBRANCH  15  19
ENDBRANCH   9  12
ENDBRANCH   1   8
BRANCH   3  22
HETATM   22  C   UNL     1      22.317  46.809  48.492  1.00  0.00     0.013 A 
HETATM   23  C   UNL     1      22.538  48.196  48.460  1.00  0.00     0.052 A 
HETATM   24  C   UNL     1      21.590  49.058  47.902  1.00  0.00     0.069 A 
HETATM   25  C   UNL     1      20.405  48.531  47.387  1.00  0.00     0.037 A 
HETATM   26  C   UNL     1      20.163  47.159  47.423  1.00  0.00     0.004 A 
HETATM   27  C   UNL     1      21.115  46.301  47.974  1.00  0.00     0.015 A 
BRANCH  24  28
HETATM   28  O   UNL     1      21.699  50.418  47.800  1.00  0.00    -0.356 OA
HETATM   29  C   UNL     1      22.801  51.027  48.461  1.00  0.00     0.210 C 
ENDBRANCH  24  28
ENDBRANCH   3  22
TORSDOF 5
ENDMDL
