MODEL 1
REMARK VINA RESULT:      -9.6      0.000      0.000
REMARK  5 active torsions:
REMARK  status: ('A' for Active; 'I' for Inactive)
REMARK    1  A    between atoms: C_2  and  N_3 
REMARK       I    between atoms: N_3  and  C_4 
REMARK       I    between atoms: C_4  and  N_5 
REMARK    2  A    between atoms: N_5  and  C_6 
REMARK    3  A    between atoms: C_9  and  C_10 
REMARK    4  A    between atoms: C_10  and  C_11 
REMARK       I    between atoms: C_11  and  N_12 
REMARK    5  A    between atoms: N_12  and  C_13 
ROOT
HETATM    1  C   UNL     1      26.385  43.681  50.300  1.00  0.00     0.174 A 
HETATM    2  S   UNL     1      25.709  42.727  49.061  1.00  0.00    -0.062 SA
HETATM    3  C   UNL     1      26.705  41.417  49.555  1.00  0.00     0.081 A 
HETATM    4  C   UNL     1      27.471  41.790  50.646  1.00  0.00     0.052 A 
HETATM    5  N   UNL     1      27.271  43.098  51.067  1.00  0.00    -0.228 NA
ENDROOT
BRANCH   1   6
HETATM    6  N   UNL     1      25.897  44.953  50.375  1.00  0.00    -0.287 N 
HETATM    7  C   UNL     1      24.695  45.227  50.951  1.00  0.00     0.326 C 
HETATM    8  N   UNL     1      24.261  46.523  50.877  1.00  0.00    -0.309 N 
HETATM    9  O   UNL     1      24.017  44.435  51.604  1.00  0.00    -0.247 OA
HETATM   10  H   UNL     1      23.521  46.699  51.547  1.00  0.00     0.170 HD
HETATM   11  H   UNL     1      26.547  45.708  50.227  1.00  0.00     0.172 HD
BRANCH   8  12
HETATM   12  C   UNL     1      24.552  47.562  49.978  1.00  0.00     0.036 A 
HETATM   13  C   UNL     1      23.580  48.289  49.281  1.00  0.00     0.032 A 
HETATM   14  C   UNL     1      23.958  49.340  48.438  1.00  0.00     0.044 A 
HETATM   15  C   UNL     1      25.301  49.669  48.303  1.00  0.00     0.116 A 
HETATM   16  C   UNL     1      26.276  48.973  49.001  1.00  0.00     0.044 A 
HETATM   17  F   UNL     1      25.656  50.680  47.500  1.00  0.00    -0.206 F 
HETATM   18  C   UNL     1      25.901  47.926  49.847  1.00  0.00     0.032 A 
ENDBRANCH   8  12
ENDBRANCH   1   6
BRANCH   4  19
HETATM   19  C   UNL     1      28.415  40.929  51.420  1.00  0.00     0.163 C 
BRANCH  19  20
HETATM   20  C   UNL     1      28.702  41.417  52.833  1.00  0.00     0.227 C 
HETATM   21  N   UNL     1      29.438  42.586  52.905  1.00  0.00    -0.327 N 
HETATM   22  H   UNL     1      29.882  42.888  52.032  1.00  0.00     0.169 HD
HETATM   23  O   UNL     1      28.219  40.818  53.793  1.00  0.00    -0.273 OA
BRANCH  21  24
HETATM   24  C   UNL     1      29.718  43.362  54.048  1.00  0.00     0.036 A 
HETATM   25  C   UNL     1      30.707  43.046  54.985  1.00  0.00     0.056 A 
HETATM   26  C   UNL     1      30.895  43.858  56.107  1.00  0.00     0.074 A 
HETATM   27 CL   UNL     1      32.104  43.441  57.263  1.00  0.00    -0.081 Cl
HETATM   28  C   UNL     1      30.103  44.988  56.294  1.00  0.00     0.138 A 
HETATM   29  F   UNL     1      30.271  45.777  57.366  1.00  0.00    -0.204 F 
HETATM   30  C   UNL     1      29.119  45.314  55.372  1.00  0.00     0.046 A 
HETATM   31  C   UNL     1      28.924  44.499  54.254  1.00  0.00     0.032 A 
ENDBRANCH  21  24
ENDBRANCH  19  20
ENDBRANCH   4  19
TORSDOF 5
ENDMDL
MODEL 2
REMARK VINA RESULT:      -9.5      4.831     10.125
REMARK  5 active torsions:
REMARK  status: ('A' for Active; 'I' for Inactive)
REMARK    1  A    between atoms: C_2  and  N_3 
REMARK       I    between atoms: N_3  and  C_4 
REMARK       I    between atoms: C_4  and  N_5 
REMARK    2  A    between atoms: N_5  and  C_6 
REMARK    3  A    between atoms: C_9  and  C_10 
REMARK    4  A    between atoms: C_10  and  C_11 
REMARK       I    between atoms: C_11  and  N_12 
REMARK    5  A    between atoms: N_12  and  C_13 
ROOT
HETATM    1  C   UNL     1      25.574  46.531  51.673  1.00  0.00     0.174 A 
HETATM    2  S   UNL     1      24.666  45.339  50.861  1.00  0.00    -0.062 SA
HETATM    3  C   UNL     1      24.293  46.486  49.639  1.00  0.00     0.081 A 
HETATM    4  C   UNL     1      24.904  47.695  49.921  1.00  0.00     0.052 A 
HETATM    5  N   UNL     1      25.644  47.703  51.096  1.00  0.00    -0.228 NA
ENDROOT
BRANCH   1   6
HETATM    6  N   UNL     1      26.161  46.114  52.832  1.00  0.00    -0.287 N 
HETATM    7  C   UNL     1      26.175  46.893  53.949  1.00  0.00     0.326 C 
HETATM    8  N   UNL     1      26.879  46.415  55.020  1.00  0.00    -0.309 N 
HETATM    9  O   UNL     1      25.540  47.935  54.103  1.00  0.00    -0.247 OA
HETATM   10  H   UNL     1      26.619  46.898  55.873  1.00  0.00     0.170 HD
HETATM   11  H   UNL     1      26.356  45.130  52.925  1.00  0.00     0.172 HD
BRANCH   8  12
HETATM   12  C   UNL     1      27.952  45.512  55.114  1.00  0.00     0.036 A 
HETATM   13  C   UNL     1      27.998  44.281  54.451  1.00  0.00     0.032 A 
HETATM   14  C   UNL     1      29.127  43.462  54.565  1.00  0.00     0.044 A 
HETATM   15  C   UNL     1      30.209  43.879  55.330  1.00  0.00     0.116 A 
HETATM   16  C   UNL     1      30.189  45.106  55.978  1.00  0.00     0.044 A 
HETATM   17  F   UNL     1      31.289  43.095  55.430  1.00  0.00    -0.206 F 
HETATM   18  C   UNL     1      29.064  45.927  55.861  1.00  0.00     0.032 A 
ENDBRANCH   8  12
ENDBRANCH   1   6
BRANCH   4  19
HETATM   19  C   UNL     1      24.890  48.930  49.080  1.00  0.00     0.163 C 
BRANCH  19  20
HETATM   20  C   UNL     1      23.522  49.299  48.523  1.00  0.00     0.227 C 
HETATM   21  N   UNL     1      22.510  49.360  49.463  1.00  0.00    -0.327 N 
HETATM   22  H   UNL     1      22.730  48.960  50.381  1.00  0.00     0.169 HD
HETATM   23  O   UNL     1      23.409  49.589  47.332  1.00  0.00    -0.273 OA
BRANCH  21  24
HETATM   24  C   UNL     1      21.192  49.827  49.285  1.00  0.00     0.036 A 
HETATM   25  C   UNL     1      20.068  48.996  49.234  1.00  0.00     0.056 A 
HETATM   26  C   UNL     1      18.800  49.544  49.023  1.00  0.00     0.074 A 
HETATM   27 CL   UNL     1      17.428  48.504  48.942  1.00  0.00    -0.081 Cl
HETATM   28  C   UNL     1      18.649  50.920  48.868  1.00  0.00     0.138 A 
HETATM   29  F   UNL     1      17.439  51.462  48.664  1.00  0.00    -0.204 F 
HETATM   30  C   UNL     1      19.755  51.756  48.917  1.00  0.00     0.046 A 
HETATM   31  C   UNL     1      21.024  51.209  49.120  1.00  0.00     0.032 A 
ENDBRANCH  21  24
ENDBRANCH  19  20
ENDBRANCH   4  19
TORSDOF 5
ENDMDL
MODEL 3
REMARK VINA RESULT:      -9.4      4.955     10.160
REMARK  5 active torsions:
REMARK  status: ('A' for Active; 'I' for Inactive)
REMARK    1  A    between atoms: C_2  and  N_3 
REMARK       I    between atoms: N_3  and  C_4 
REMARK       I    between atoms: C_4  and  N_5 
REMARK    2  A    between atoms: N_5  and  C_6 
REMARK    3  A    between atoms: C_9  and  C_10 
REMARK    4  A    between atoms: C_10  and  C_11 
REMARK       I    between atoms: C_11  and  N_12 
REMARK    5  A    between atoms: N_12  and  C_13 
ROOT
HETATM    1  C   UNL     1      25.570  46.501  51.689  1.00  0.00     0.174 A 
HETATM    2  S   UNL     1      24.673  45.299  50.880  1.00  0.00    -0.062 SA
HETATM    3  C   UNL     1      24.286  46.440  49.656  1.00  0.00     0.081 A 
HETATM    4  C   UNL     1      24.886  47.656  49.936  1.00  0.00     0.052 A 
HETATM    5  N   UNL     1      25.627  47.672  51.111  1.00  0.00    -0.228 NA
ENDROOT
BRANCH   1   6
HETATM    6  N   UNL     1      26.161  46.091  52.848  1.00  0.00    -0.287 N 
HETATM    7  C   UNL     1      26.179  46.876  53.960  1.00  0.00     0.326 C 
HETATM    8  N   UNL     1      26.889  46.405  55.031  1.00  0.00    -0.309 N 
HETATM    9  O   UNL     1      25.543  47.918  54.111  1.00  0.00    -0.247 OA
HETATM   10  H   UNL     1      26.632  46.893  55.882  1.00  0.00     0.170 HD
HETATM   11  H   UNL     1      26.359  45.108  52.946  1.00  0.00     0.172 HD
BRANCH   8  12
HETATM   12  C   UNL     1      27.963  45.504  55.126  1.00  0.00     0.036 A 
HETATM   13  C   UNL     1      28.004  44.265  54.476  1.00  0.00     0.032 A 
HETATM   14  C   UNL     1      29.135  43.449  54.590  1.00  0.00     0.044 A 
HETATM   15  C   UNL     1      30.223  43.876  55.340  1.00  0.00     0.116 A 
HETATM   16  C   UNL     1      30.208  45.111  55.973  1.00  0.00     0.044 A 
HETATM   17  F   UNL     1      31.305  43.094  55.439  1.00  0.00    -0.206 F 
HETATM   18  C   UNL     1      29.082  45.929  55.858  1.00  0.00     0.032 A 
ENDBRANCH   8  12
ENDBRANCH   1   6
BRANCH   4  19
HETATM   19  C   UNL     1      24.858  48.890  49.094  1.00  0.00     0.163 C 
BRANCH  19  20
HETATM   20  C   UNL     1      23.493  49.225  48.509  1.00  0.00     0.227 C 
HETATM   21  N   UNL     1      22.442  49.138  49.403  1.00  0.00    -0.327 N 
HETATM   22  H   UNL     1      22.650  48.670  50.291  1.00  0.00     0.169 HD
HETATM   23  O   UNL     1      23.410  49.615  47.345  1.00  0.00    -0.273 OA
BRANCH  21  24
HETATM   24  C   UNL     1      21.104  49.538  49.207  1.00  0.00     0.036 A 
HETATM   25  C   UNL     1      20.719  50.841  48.876  1.00  0.00     0.056 A 
HETATM   26  C   UNL     1      19.365  51.156  48.731  1.00  0.00     0.074 A 
HETATM   27 CL   UNL     1      18.906  52.771  48.344  1.00  0.00    -0.081 Cl
HETATM   28  C   UNL     1      18.395  50.173  48.909  1.00  0.00     0.138 A 
HETATM   29  F   UNL     1      17.091  50.459  48.774  1.00  0.00    -0.204 F 
HETATM   30  C   UNL     1      18.763  48.875  49.236  1.00  0.00     0.046 A 
HETATM   31  C   UNL     1      20.115  48.561  49.390  1.00  0.00     0.032 A 
ENDBRANCH  21  24
ENDBRANCH  19  20
ENDBRANCH   4  19
TORSDOF 5
ENDMDL
MODEL 4
REMARK VINA RESULT:      -9.4      3.475      4.726
REMARK  5 active torsions:
REMARK  status: ('A' for Active; 'I' for Inactive)
REMARK    1  A    between atoms: C_2  and  N_3 
REMARK       I    between atoms: N_3  and  C_4 
REMARK       I    between atoms: C_4  and  N_5 
REMARK    2  A    between atoms: N_5  and  C_6 
REMARK    3  A    between atoms: C_9  and  C_10 
REMARK    4  A    between atoms: C_10  and  C_11 
REMARK       I    between atoms: C_11  and  N_12 
REMARK    5  A    between atoms: N_12  and  C_13 
ROOT
HETATM    1  C   UNL     1      23.659  47.131  49.448  1.00  0.00     0.174 A 
HETATM    2  S   UNL     1      24.968  48.221  49.489  1.00  0.00    -0.062 SA
HETATM    3  C   UNL     1      26.020  46.911  49.850  1.00  0.00     0.081 A 
HETATM    4  C   UNL     1      25.305  45.728  49.892  1.00  0.00     0.052 A 
HETATM    5  N   UNL     1      23.944  45.871  49.654  1.00  0.00    -0.228 NA
ENDROOT
BRANCH   1   6
HETATM    6  N   UNL     1      22.450  47.698  49.170  1.00  0.00    -0.287 N 
HETATM    7  C   UNL     1      21.880  47.602  47.938  1.00  0.00     0.326 C 
HETATM    8  N   UNL     1      20.716  48.296  47.746  1.00  0.00    -0.309 N 
HETATM    9  O   UNL     1      22.270  46.880  47.022  1.00  0.00    -0.247 OA
HETATM   10  H   UNL     1      20.223  47.962  46.925  1.00  0.00     0.170 HD
HETATM   11  H   UNL     1      21.874  47.968  49.951  1.00  0.00     0.172 HD
BRANCH   8  12
HETATM   12  C   UNL     1      20.183  49.432  48.378  1.00  0.00     0.036 A 
HETATM   13  C   UNL     1      20.497  50.748  48.018  1.00  0.00     0.032 A 
HETATM   14  C   UNL     1      19.884  51.822  48.672  1.00  0.00     0.044 A 
HETATM   15  C   UNL     1      18.952  51.580  49.674  1.00  0.00     0.116 A 
HETATM   16  C   UNL     1      18.613  50.282  50.030  1.00  0.00     0.044 A 
HETATM   17  F   UNL     1      18.364  52.611  50.292  1.00  0.00    -0.206 F 
HETATM   18  C   UNL     1      19.220  49.208  49.374  1.00  0.00     0.032 A 
ENDBRANCH   8  12
ENDBRANCH   1   6
BRANCH   4  19
HETATM   19  C   UNL     1      25.849  44.353  50.107  1.00  0.00     0.163 C 
BRANCH  19  20
HETATM   20  C   UNL     1      26.374  44.093  51.512  1.00  0.00     0.227 C 
HETATM   21  N   UNL     1      27.745  43.940  51.599  1.00  0.00    -0.327 N 
HETATM   22  H   UNL     1      28.238  43.814  50.709  1.00  0.00     0.169 HD
HETATM   23  O   UNL     1      25.595  44.110  52.465  1.00  0.00    -0.273 OA
BRANCH  21  24
HETATM   24  C   UNL     1      28.533  43.853  52.765  1.00  0.00     0.036 A 
HETATM   25  C   UNL     1      28.378  44.685  53.878  1.00  0.00     0.056 A 
HETATM   26  C   UNL     1      29.226  44.547  54.980  1.00  0.00     0.074 A 
HETATM   27 CL   UNL     1      29.034  45.596  56.335  1.00  0.00    -0.081 Cl
HETATM   28  C   UNL     1      30.224  43.577  54.978  1.00  0.00     0.138 A 
HETATM   29  F   UNL     1      31.048  43.432  56.028  1.00  0.00    -0.204 F 
HETATM   30  C   UNL     1      30.390  42.743  53.881  1.00  0.00     0.046 A 
HETATM   31  C   UNL     1      29.548  42.885  52.775  1.00  0.00     0.032 A 
ENDBRANCH  21  24
ENDBRANCH  19  20
ENDBRANCH   4  19
TORSDOF 5
ENDMDL
MODEL 5
REMARK VINA RESULT:      -9.3      3.401      6.040
REMARK  5 active torsions:
REMARK  status: ('A' for Active; 'I' for Inactive)
REMARK    1  A    between atoms: C_2  and  N_3 
REMARK       I    between atoms: N_3  and  C_4 
REMARK       I    between atoms: C_4  and  N_5 
REMARK    2  A    between atoms: N_5  and  C_6 
REMARK    3  A    between atoms: C_9  and  C_10 
REMARK    4  A    between atoms: C_10  and  C_11 
REMARK       I    between atoms: C_11  and  N_12 
REMARK    5  A    between atoms: N_12  and  C_13 
ROOT
HETATM    1  C   UNL     1      25.968  44.941  51.172  1.00  0.00     0.174 A 
HETATM    2  S   UNL     1      25.763  46.149  49.988  1.00  0.00    -0.062 SA
HETATM    3  C   UNL     1      25.780  47.337  51.228  1.00  0.00     0.081 A 
HETATM    4  C   UNL     1      25.963  46.734  52.459  1.00  0.00     0.052 A 
HETATM    5  N   UNL     1      26.075  45.350  52.409  1.00  0.00    -0.228 NA
ENDROOT
BRANCH   1   6
HETATM    6  N   UNL     1      26.030  43.667  50.685  1.00  0.00    -0.287 N 
HETATM    7  C   UNL     1      25.047  42.758  50.930  1.00  0.00     0.326 C 
HETATM    8  N   UNL     1      25.265  41.484  50.479  1.00  0.00    -0.309 N 
HETATM    9  O   UNL     1      23.953  43.005  51.435  1.00  0.00    -0.247 OA
HETATM   10  H   UNL     1      24.401  40.954  50.451  1.00  0.00     0.170 HD
HETATM   11  H   UNL     1      26.682  43.487  49.939  1.00  0.00     0.172 HD
BRANCH   8  12
HETATM   12  C   UNL     1      26.444  40.775  50.198  1.00  0.00     0.036 A 
HETATM   13  C   UNL     1      27.487  40.596  51.113  1.00  0.00     0.032 A 
HETATM   14  C   UNL     1      28.608  39.835  50.763  1.00  0.00     0.044 A 
HETATM   15  C   UNL     1      28.679  39.247  49.506  1.00  0.00     0.116 A 
HETATM   16  C   UNL     1      27.645  39.397  48.593  1.00  0.00     0.044 A 
HETATM   17  F   UNL     1      29.751  38.515  49.179  1.00  0.00    -0.206 F 
HETATM   18  C   UNL     1      26.523  40.152  48.943  1.00  0.00     0.032 A 
ENDBRANCH   8  12
ENDBRANCH   1   6
BRANCH   4  19
HETATM   19  C   UNL     1      26.105  47.412  53.783  1.00  0.00     0.163 C 
BRANCH  19  20
HETATM   20  C   UNL     1      27.405  47.108  54.514  1.00  0.00     0.227 C 
HETATM   21  N   UNL     1      27.566  45.785  54.885  1.00  0.00    -0.327 N 
HETATM   22  H   UNL     1      26.728  45.198  54.818  1.00  0.00     0.169 HD
HETATM   23  O   UNL     1      28.243  47.997  54.661  1.00  0.00    -0.273 OA
BRANCH  21  24
HETATM   24  C   UNL     1      28.716  45.171  55.421  1.00  0.00     0.036 A 
HETATM   25  C   UNL     1      29.302  45.536  56.637  1.00  0.00     0.056 A 
HETATM   26  C   UNL     1      30.463  44.893  57.077  1.00  0.00     0.074 A 
HETATM   27 CL   UNL     1      31.184  45.369  58.568  1.00  0.00    -0.081 Cl
HETATM   28  C   UNL     1      31.036  43.882  56.310  1.00  0.00     0.138 A 
HETATM   29  F   UNL     1      32.149  43.254  56.718  1.00  0.00    -0.204 F 
HETATM   30  C   UNL     1      30.464  43.508  55.102  1.00  0.00     0.046 A 
HETATM   31  C   UNL     1      29.310  44.156  54.657  1.00  0.00     0.032 A 
ENDBRANCH  21  24
ENDBRANCH  19  20
ENDBRANCH   4  19
TORSDOF 5
ENDMDL
MODEL 6
REMARK VINA RESULT:      -9.2      4.845     10.017
REMARK  5 active torsions:
REMARK  status: ('A' for Active; 'I' for Inactive)
REMARK    1  A    between atoms: C_2  and  N_3 
REMARK       I    between atoms: N_3  and  C_4 
REMARK       I    between atoms: C_4  and  N_5 
REMARK    2  A    between atoms: N_5  and  C_6 
REMARK    3  A    between atoms: C_9  and  C_10 
REMARK    4  A    between atoms: C_10  and  C_11 
REMARK       I    between atoms: C_11  and  N_12 
REMARK    5  A    between atoms: N_12  and  C_13 
ROOT
HETATM    1  C   UNL     1      26.215  48.402  49.836  1.00  0.00     0.174 A 
HETATM    2  S   UNL     1      27.694  48.952  49.192  1.00  0.00    -0.062 SA
HETATM    3  C   UNL     1      26.822  49.904  48.059  1.00  0.00     0.081 A 
HETATM    4  C   UNL     1      25.461  49.756  48.263  1.00  0.00     0.052 A 
HETATM    5  N   UNL     1      25.128  48.888  49.296  1.00  0.00    -0.228 NA
ENDROOT
BRANCH   1   6
HETATM    6  N   UNL     1      26.333  47.528  50.877  1.00  0.00    -0.287 N 
HETATM    7  C   UNL     1      25.309  46.711  51.247  1.00  0.00     0.326 C 
HETATM    8  N   UNL     1      25.506  45.952  52.369  1.00  0.00    -0.309 N 
HETATM    9  O   UNL     1      24.270  46.534  50.614  1.00  0.00    -0.247 OA
HETATM   10  H   UNL     1      24.836  45.192  52.417  1.00  0.00     0.170 HD
HETATM   11  H   UNL     1      27.263  47.318  51.202  1.00  0.00     0.172 HD
BRANCH   8  12
HETATM   12  C   UNL     1      26.345  46.120  53.484  1.00  0.00     0.036 A 
HETATM   13  C   UNL     1      26.387  47.281  54.263  1.00  0.00     0.032 A 
HETATM   14  C   UNL     1      27.222  47.345  55.385  1.00  0.00     0.044 A 
HETATM   15  C   UNL     1      28.001  46.248  55.730  1.00  0.00     0.116 A 
HETATM   16  C   UNL     1      27.956  45.081  54.981  1.00  0.00     0.044 A 
HETATM   17  F   UNL     1      28.792  46.313  56.808  1.00  0.00    -0.206 F 
HETATM   18  C   UNL     1      27.120  45.013  53.864  1.00  0.00     0.032 A 
ENDBRANCH   8  12
ENDBRANCH   1   6
BRANCH   4  19
HETATM   19  C   UNL     1      24.359  50.459  47.540  1.00  0.00     0.163 C 
BRANCH  19  20
HETATM   20  C   UNL     1      22.958  50.034  47.956  1.00  0.00     0.227 C 
HETATM   21  N   UNL     1      22.304  50.928  48.784  1.00  0.00    -0.327 N 
HETATM   22  H   UNL     1      22.886  51.667  49.191  1.00  0.00     0.169 HD
HETATM   23  O   UNL     1      22.472  49.003  47.493  1.00  0.00    -0.273 OA
BRANCH  21  24
HETATM   24  C   UNL     1      20.957  50.896  49.199  1.00  0.00     0.036 A 
HETATM   25  C   UNL     1      20.422  49.916  50.041  1.00  0.00     0.056 A 
HETATM   26  C   UNL     1      19.065  49.945  50.376  1.00  0.00     0.074 A 
HETATM   27 CL   UNL     1      18.417  48.717  51.399  1.00  0.00    -0.081 Cl
HETATM   28  C   UNL     1      18.242  50.951  49.879  1.00  0.00     0.138 A 
HETATM   29  F   UNL     1      16.938  50.993  50.190  1.00  0.00    -0.204 F 
HETATM   30  C   UNL     1      18.760  51.931  49.043  1.00  0.00     0.046 A 
HETATM   31  C   UNL     1      20.113  51.899  48.700  1.00  0.00     0.032 A 
ENDBRANCH  21  24
ENDBRANCH  19  20
ENDBRANCH   4  19
TORSDOF 5
ENDMDL
MODEL 7
REMARK VINA RESULT:      -9.1      3.986      9.698
REMARK  5 active torsions:
REMARK  status: ('A' for Active; 'I' for Inactive)
REMARK    1  A    between atoms: C_2  and  N_3 
REMARK       I    between atoms: N_3  and  C_4 
REMARK       I    between atoms: C_4  and  N_5 
REMARK    2  A    between atoms: N_5  and  C_6 
REMARK    3  A    between atoms: C_9  and  C_10 
REMARK    4  A    between atoms: C_10  and  C_11 
REMARK       I    between atoms: C_11  and  N_12 
REMARK    5  A    between atoms: N_12  and  C_13 
ROOT
HETATM    1  C   UNL     1      26.965  44.748  52.683  1.00  0.00     0.174 A 
HETATM    2  S   UNL     1      25.579  44.114  53.444  1.00  0.00    -0.062 SA
HETATM    3  C   UNL     1      24.627  44.672  52.128  1.00  0.00     0.081 A 
HETATM    4  C   UNL     1      25.434  45.285  51.186  1.00  0.00     0.052 A 
HETATM    5  N   UNL     1      26.783  45.316  51.519  1.00  0.00    -0.228 NA
ENDROOT
BRANCH   1   6
HETATM    6  N   UNL     1      28.131  44.561  53.368  1.00  0.00    -0.287 N 
HETATM    7  C   UNL     1      28.936  43.489  53.133  1.00  0.00     0.326 C 
HETATM    8  N   UNL     1      30.025  43.350  53.949  1.00  0.00    -0.309 N 
HETATM    9  O   UNL     1      28.817  42.694  52.201  1.00  0.00    -0.247 OA
HETATM   10  H   UNL     1      30.703  42.712  53.548  1.00  0.00     0.170 HD
HETATM   11  H   UNL     1      28.510  45.352  53.863  1.00  0.00     0.172 HD
BRANCH   8  12
HETATM   12  C   UNL     1      30.290  43.808  55.251  1.00  0.00     0.036 A 
HETATM   13  C   UNL     1      31.121  43.144  56.160  1.00  0.00     0.032 A 
HETATM   14  C   UNL     1      31.365  43.695  57.423  1.00  0.00     0.044 A 
HETATM   15  C   UNL     1      30.789  44.911  57.769  1.00  0.00     0.116 A 
HETATM   16  C   UNL     1      29.979  45.594  56.873  1.00  0.00     0.044 A 
HETATM   17  F   UNL     1      31.031  45.437  58.976  1.00  0.00    -0.206 F 
HETATM   18  C   UNL     1      29.738  45.047  55.610  1.00  0.00     0.032 A 
ENDBRANCH   8  12
ENDBRANCH   1   6
BRANCH   4  19
HETATM   19  C   UNL     1      25.014  45.844  49.866  1.00  0.00     0.163 C 
BRANCH  19  20
HETATM   20  C   UNL     1      24.430  47.249  49.931  1.00  0.00     0.227 C 
HETATM   21  N   UNL     1      23.475  47.525  48.970  1.00  0.00    -0.327 N 
HETATM   22  H   UNL     1      23.406  46.848  48.203  1.00  0.00     0.169 HD
HETATM   23  O   UNL     1      24.765  48.005  50.842  1.00  0.00    -0.273 OA
BRANCH  21  24
HETATM   24  C   UNL     1      22.648  48.662  48.875  1.00  0.00     0.036 A 
HETATM   25  C   UNL     1      21.261  48.638  49.054  1.00  0.00     0.056 A 
HETATM   26  C   UNL     1      20.515  49.811  48.910  1.00  0.00     0.074 A 
HETATM   27 CL   UNL     1      18.804  49.759  49.113  1.00  0.00    -0.081 Cl
HETATM   28  C   UNL     1      21.149  51.009  48.594  1.00  0.00     0.138 A 
HETATM   29  F   UNL     1      20.448  52.144  48.452  1.00  0.00    -0.204 F 
HETATM   30  C   UNL     1      22.525  51.049  48.415  1.00  0.00     0.046 A 
HETATM   31  C   UNL     1      23.271  49.876  48.550  1.00  0.00     0.032 A 
ENDBRANCH  21  24
ENDBRANCH  19  20
ENDBRANCH   4  19
TORSDOF 5
ENDMDL
MODEL 8
REMARK VINA RESULT:      -8.5      4.491      8.279
REMARK  5 active torsions:
REMARK  status: ('A' for Active; 'I' for Inactive)
REMARK    1  A    between atoms: C_2  and  N_3 
REMARK       I    between atoms: N_3  and  C_4 
REMARK       I    between atoms: C_4  and  N_5 
REMARK    2  A    between atoms: N_5  and  C_6 
REMARK    3  A    between atoms: C_9  and  C_10 
REMARK    4  A    between atoms: C_10  and  C_11 
REMARK       I    between atoms: C_11  and  N_12 
REMARK    5  A    between atoms: N_12  and  C_13 
ROOT
HETATM    1  C   UNL     1      26.763  44.890  53.278  1.00  0.00     0.174 A 
HETATM    2  S   UNL     1      25.091  44.956  53.600  1.00  0.00    -0.062 SA
HETATM    3  C   UNL     1      24.780  44.642  51.940  1.00  0.00     0.081 A 
HETATM    4  C   UNL     1      25.973  44.486  51.257  1.00  0.00     0.052 A 
HETATM    5  N   UNL     1      27.109  44.628  52.045  1.00  0.00    -0.228 NA
ENDROOT
BRANCH   1   6
HETATM    6  N   UNL     1      27.564  45.090  54.365  1.00  0.00    -0.287 N 
HETATM    7  C   UNL     1      27.964  46.336  54.740  1.00  0.00     0.326 C 
HETATM    8  N   UNL     1      28.848  46.407  55.783  1.00  0.00    -0.309 N 
HETATM    9  O   UNL     1      27.533  47.394  54.285  1.00  0.00    -0.247 OA
HETATM   10  H   UNL     1      28.880  47.343  56.171  1.00  0.00     0.170 HD
HETATM   11  H   UNL     1      27.644  44.335  55.027  1.00  0.00     0.172 HD
BRANCH   8  12
HETATM   12  C   UNL     1      29.780  45.485  56.291  1.00  0.00     0.036 A 
HETATM   13  C   UNL     1      30.296  45.530  57.591  1.00  0.00     0.032 A 
HETATM   14  C   UNL     1      31.186  44.545  58.029  1.00  0.00     0.044 A 
HETATM   15  C   UNL     1      31.549  43.512  57.174  1.00  0.00     0.116 A 
HETATM   16  C   UNL     1      31.031  43.439  55.889  1.00  0.00     0.044 A 
HETATM   17  F   UNL     1      32.396  42.567  57.601  1.00  0.00    -0.206 F 
HETATM   18  C   UNL     1      30.138  44.420  55.451  1.00  0.00     0.032 A 
ENDBRANCH   8  12
ENDBRANCH   1   6
BRANCH   4  19
HETATM   19  C   UNL     1      26.147  44.135  49.815  1.00  0.00     0.163 C 
BRANCH  19  20
HETATM   20  C   UNL     1      26.242  42.642  49.534  1.00  0.00     0.227 C 
HETATM   21  N   UNL     1      27.225  42.284  48.629  1.00  0.00    -0.327 N 
HETATM   22  H   UNL     1      27.641  43.055  48.095  1.00  0.00     0.169 HD
HETATM   23  O   UNL     1      25.526  41.859  50.157  1.00  0.00    -0.273 OA
BRANCH  21  24
HETATM   24  C   UNL     1      27.660  40.986  48.293  1.00  0.00     0.036 A 
HETATM   25  C   UNL     1      28.513  40.217  49.090  1.00  0.00     0.056 A 
HETATM   26  C   UNL     1      28.918  38.950  48.663  1.00  0.00     0.074 A 
HETATM   27 CL   UNL     1      29.987  38.023  49.648  1.00  0.00    -0.081 Cl
HETATM   28  C   UNL     1      28.470  38.445  47.445  1.00  0.00     0.138 A 
HETATM   29  F   UNL     1      28.850  37.230  47.020  1.00  0.00    -0.204 F 
HETATM   30  C   UNL     1      27.622  39.197  46.644  1.00  0.00     0.046 A 
HETATM   31  C   UNL     1      27.223  40.467  47.066  1.00  0.00     0.032 A 
ENDBRANCH  21  24
ENDBRANCH  19  20
ENDBRANCH   4  19
TORSDOF 5
ENDMDL
MODEL 9
REMARK VINA RESULT:      -8.4      3.790      8.897
REMARK  5 active torsions:
REMARK  status: ('A' for Active; 'I' for Inactive)
REMARK    1  A    between atoms: C_2  and  N_3 
REMARK       I    between atoms: N_3  and  C_4 
REMARK       I    between atoms: C_4  and  N_5 
REMARK    2  A    between atoms: N_5  and  C_6 
REMARK    3  A    between atoms: C_9  and  C_10 
REMARK    4  A    between atoms: C_10  and  C_11 
REMARK       I    between atoms: C_11  and  N_12 
REMARK    5  A    between atoms: N_12  and  C_13 
ROOT
HETATM    1  C   UNL     1      25.765  44.013  51.481  1.00  0.00     0.174 A 
HETATM    2  S   UNL     1      26.761  43.690  50.136  1.00  0.00    -0.062 SA
HETATM    3  C   UNL     1      25.360  43.335  49.209  1.00  0.00     0.081 A 
HETATM    4  C   UNL     1      24.225  43.508  49.982  1.00  0.00     0.052 A 
HETATM    5  N   UNL     1      24.476  43.904  51.290  1.00  0.00    -0.228 NA
ENDROOT
BRANCH   1   6
HETATM    6  N   UNL     1      26.432  44.385  52.612  1.00  0.00    -0.287 N 
HETATM    7  C   UNL     1      26.503  45.685  53.007  1.00  0.00     0.326 C 
HETATM    8  N   UNL     1      27.283  45.952  54.099  1.00  0.00    -0.309 N 
HETATM    9  O   UNL     1      25.860  46.616  52.525  1.00  0.00    -0.247 OA
HETATM   10  H   UNL     1      27.069  46.864  54.487  1.00  0.00     0.170 HD
HETATM   11  H   UNL     1      26.651  43.662  53.279  1.00  0.00     0.172 HD
BRANCH   8  12
HETATM   12  C   UNL     1      28.376  45.272  54.663  1.00  0.00     0.036 A 
HETATM   13  C   UNL     1      28.854  44.040  54.202  1.00  0.00     0.032 A 
HETATM   14  C   UNL     1      29.977  43.454  54.796  1.00  0.00     0.044 A 
HETATM   15  C   UNL     1      30.627  44.105  55.837  1.00  0.00     0.116 A 
HETATM   16  C   UNL     1      30.180  45.337  56.294  1.00  0.00     0.044 A 
HETATM   17  F   UNL     1      31.706  43.544  56.397  1.00  0.00    -0.206 F 
HETATM   18  C   UNL     1      29.060  45.925  55.700  1.00  0.00     0.032 A 
ENDBRANCH   8  12
ENDBRANCH   1   6
BRANCH   4  19
HETATM   19  C   UNL     1      22.804  43.368  49.541  1.00  0.00     0.163 C 
BRANCH  19  20
HETATM   20  C   UNL     1      22.284  44.530  48.706  1.00  0.00     0.227 C 
HETATM   21  N   UNL     1      22.273  45.751  49.355  1.00  0.00    -0.327 N 
HETATM   22  H   UNL     1      22.416  45.717  50.370  1.00  0.00     0.169 HD
HETATM   23  O   UNL     1      21.989  44.347  47.526  1.00  0.00    -0.273 OA
BRANCH  21  24
HETATM   24  C   UNL     1      22.006  47.021  48.804  1.00  0.00     0.036 A 
HETATM   25  C   UNL     1      22.984  47.990  48.564  1.00  0.00     0.056 A 
HETATM   26  C   UNL     1      22.623  49.236  48.043  1.00  0.00     0.074 A 
HETATM   27 CL   UNL     1      23.839  50.427  47.773  1.00  0.00    -0.081 Cl
HETATM   28  C   UNL     1      21.290  49.515  47.756  1.00  0.00     0.138 A 
HETATM   29  F   UNL     1      20.927  50.706  47.256  1.00  0.00    -0.204 F 
HETATM   30  C   UNL     1      20.308  48.562  47.988  1.00  0.00     0.046 A 
HETATM   31  C   UNL     1      20.666  47.320  48.517  1.00  0.00     0.032 A 
ENDBRANCH  21  24
ENDBRANCH  19  20
ENDBRANCH   4  19
TORSDOF 5
ENDMDL
MODEL 10
REMARK VINA RESULT:      -8.3      8.049     11.047
REMARK  5 active torsions:
REMARK  status: ('A' for Active; 'I' for Inactive)
REMARK    1  A    between atoms: C_2  and  N_3 
REMARK       I    between atoms: N_3  and  C_4 
REMARK       I    between atoms: C_4  and  N_5 
REMARK    2  A    between atoms: N_5  and  C_6 
REMARK    3  A    between atoms: C_9  and  C_10 
REMARK    4  A    between atoms: C_10  and  C_11 
REMARK       I    between atoms: C_11  and  N_12 
REMARK    5  A    between atoms: N_12  and  C_13 
ROOT
HETATM    1  C   UNL     1      17.985  51.549  49.546  1.00  0.00     0.174 A 
HETATM    2  S   UNL     1      19.003  52.352  48.442  1.00  0.00    -0.062 SA
HETATM    3  C   UNL     1      19.991  50.948  48.364  1.00  0.00     0.081 A 
HETATM    4  C   UNL     1      19.464  49.954  49.170  1.00  0.00     0.052 A 
HETATM    5  N   UNL     1      18.303  50.315  49.842  1.00  0.00    -0.228 NA
ENDROOT
BRANCH   1   6
HETATM    6  N   UNL     1      16.919  52.282  49.980  1.00  0.00    -0.287 N 
HETATM    7  C   UNL     1      15.725  52.267  49.326  1.00  0.00     0.326 C 
HETATM    8  N   UNL     1      14.761  53.120  49.792  1.00  0.00    -0.309 N 
HETATM    9  O   UNL     1      15.414  51.496  48.420  1.00  0.00    -0.247 OA
HETATM   10  H   UNL     1      13.844  52.859  49.445  1.00  0.00     0.170 HD
HETATM   11  H   UNL     1      16.950  52.631  50.924  1.00  0.00     0.172 HD
BRANCH   8  12
HETATM   12  C   UNL     1      14.837  54.321  50.518  1.00  0.00     0.036 A 
HETATM   13  C   UNL     1      14.660  54.411  51.902  1.00  0.00     0.032 A 
HETATM   14  C   UNL     1      14.798  55.643  52.551  1.00  0.00     0.044 A 
HETATM   15  C   UNL     1      15.125  56.776  51.818  1.00  0.00     0.116 A 
HETATM   16  C   UNL     1      15.326  56.702  50.447  1.00  0.00     0.044 A 
HETATM   17  F   UNL     1      15.263  57.951  52.445  1.00  0.00    -0.206 F 
HETATM   18  C   UNL     1      15.192  55.472  49.798  1.00  0.00     0.032 A 
ENDBRANCH   8  12
ENDBRANCH   1   6
BRANCH   4  19
HETATM   19  C   UNL     1      19.977  48.561  49.334  1.00  0.00     0.163 C 
BRANCH  19  20
HETATM   20  C   UNL     1      21.391  48.342  48.813  1.00  0.00     0.227 C 
HETATM   21  N   UNL     1      22.395  48.746  49.675  1.00  0.00    -0.327 N 
HETATM   22  H   UNL     1      22.097  49.324  50.467  1.00  0.00     0.169 HD
HETATM   23  O   UNL     1      21.562  47.772  47.736  1.00  0.00    -0.273 OA
BRANCH  21  24
HETATM   24  C   UNL     1      23.782  48.528  49.549  1.00  0.00     0.036 A 
HETATM   25  C   UNL     1      24.457  47.440  50.111  1.00  0.00     0.056 A 
HETATM   26  C   UNL     1      25.842  47.320  49.961  1.00  0.00     0.074 A 
HETATM   27 CL   UNL     1      26.661  45.984  50.678  1.00  0.00    -0.081 Cl
HETATM   28  C   UNL     1      26.554  48.280  49.247  1.00  0.00     0.138 A 
HETATM   29  F   UNL     1      27.883  48.181  49.095  1.00  0.00    -0.204 F 
HETATM   30  C   UNL     1      25.897  49.365  48.683  1.00  0.00     0.046 A 
HETATM   31  C   UNL     1      24.514  49.490  48.839  1.00  0.00     0.032 A 
ENDBRANCH  21  24
ENDBRANCH  19  20
ENDBRANCH   4  19
TORSDOF 5
ENDMDL
