MODEL 1
REMARK VINA RESULT:      -9.1      0.000      0.000
REMARK  9 active torsions:
REMARK  status: ('A' for Active; 'I' for Inactive)
REMARK    1  A    between atoms: C_4  and  N_5 
REMARK       I    between atoms: N_5  and  C_6 
REMARK    2  A    between atoms: C_6  and  C_7 
REMARK    3  A    between atoms: C_7  and  N_8 
REMARK       I    between atoms: N_8  and  C_9 
REMARK    4  A    between atoms: C_9  and  C_10 
REMARK    5  A    between atoms: C_10  and  O_11 
REMARK    6  A    between atoms: O_11  and  C_12 
REMARK    7  A    between atoms: C_12  and  C_13 
REMARK    8  A    between atoms: C_17  and  C_18 
REMARK    9  A    between atoms: C_27  and  O_28 
ROOT
HETATM    1  N   UNL     1      25.875  47.819  49.854  1.00  0.00    -0.350 N 
HETATM    2  C   UNL     1      26.598  46.650  49.732  1.00  0.00     0.242 C 
HETATM    3  O   UNL     1      27.620  46.552  49.061  1.00  0.00    -0.271 OA
HETATM    4  H   UNL     1      24.921  47.718  50.200  1.00  0.00     0.163 HD
ENDROOT
BRANCH   2   5
HETATM    5  C   UNL     1      26.021  45.469  50.517  1.00  0.00     0.281 C 
BRANCH   5   6
HETATM    6  O   UNL     1      25.190  45.865  51.605  1.00  0.00    -0.308 OA
BRANCH   6   7
HETATM    7  C   UNL     1      25.321  45.130  52.744  1.00  0.00     0.301 C 
HETATM    8  O   UNL     1      24.681  44.103  52.962  1.00  0.00    -0.259 OA
BRANCH   7   9
HETATM    9  C   UNL     1      26.329  45.715  53.606  1.00  0.00     0.091 A 
HETATM   10  S   UNL     1      26.087  47.336  54.122  1.00  0.00    -0.095 SA
HETATM   11  C   UNL     1      27.482  47.315  55.102  1.00  0.00     0.051 A 
HETATM   12  C   UNL     1      28.156  46.120  55.006  1.00  0.00     0.021 A 
HETATM   13  C   UNL     1      27.510  45.192  54.122  1.00  0.00    -0.002 A 
BRANCH  13  14
HETATM   14  C   UNL     1      28.029  43.873  53.777  1.00  0.00    -0.024 A 
HETATM   15  C   UNL     1      29.144  43.757  52.938  1.00  0.00     0.012 A 
HETATM   16  C   UNL     1      29.627  42.496  52.581  1.00  0.00     0.001 A 
HETATM   17  C   UNL     1      28.999  41.347  53.058  1.00  0.00     0.000 A 
HETATM   18  C   UNL     1      27.883  41.454  53.887  1.00  0.00     0.001 A 
HETATM   19  C   UNL     1      27.394  42.713  54.242  1.00  0.00     0.012 A 
ENDBRANCH  13  14
ENDBRANCH   7   9
ENDBRANCH   6   7
ENDBRANCH   5   6
ENDBRANCH   2   5
BRANCH   1  20
HETATM   20  C   UNL     1      26.184  48.974  49.024  1.00  0.00     0.225 C 
BRANCH  20  21
HETATM   21  C   UNL     1      24.943  49.491  48.283  1.00  0.00     0.239 C 
HETATM   22  N   UNL     1      23.764  49.174  48.933  1.00  0.00    -0.323 N 
HETATM   23  H   UNL     1      23.816  48.784  49.868  1.00  0.00     0.169 HD
HETATM   24  O   UNL     1      25.045  50.217  47.298  1.00  0.00    -0.271 OA
BRANCH  22  25
HETATM   25  C   UNL     1      22.443  49.434  48.508  1.00  0.00     0.069 A 
HETATM   26  C   UNL     1      21.797  50.653  48.727  1.00  0.00     0.039 A 
HETATM   27  C   UNL     1      20.509  50.877  48.224  1.00  0.00    -0.060 A 
HETATM   28  C   UNL     1      19.820  52.187  48.471  1.00  0.00     0.048 C 
HETATM   29  C   UNL     1      19.858  49.852  47.531  1.00  0.00     0.009 A 
HETATM   30  C   UNL     1      20.493  48.626  47.313  1.00  0.00     0.039 A 
HETATM   31  C   UNL     1      21.785  48.410  47.796  1.00  0.00     0.095 A 
BRANCH  31  32
HETATM   32  O   UNL     1      22.502  47.245  47.637  1.00  0.00    -0.354 OA
HETATM   33  C   UNL     1      22.046  46.110  48.364  1.00  0.00     0.210 C 
ENDBRANCH  31  32
ENDBRANCH  22  25
ENDBRANCH  20  21
ENDBRANCH   1  20
TORSDOF 9
ENDMDL
MODEL 2
REMARK VINA RESULT:      -9.1      2.268      3.793
REMARK  9 active torsions:
REMARK  status: ('A' for Active; 'I' for Inactive)
REMARK    1  A    between atoms: C_4  and  N_5 
REMARK       I    between atoms: N_5  and  C_6 
REMARK    2  A    between atoms: C_6  and  C_7 
REMARK    3  A    between atoms: C_7  and  N_8 
REMARK       I    between atoms: N_8  and  C_9 
REMARK    4  A    between atoms: C_9  and  C_10 
REMARK    5  A    between atoms: C_10  and  O_11 
REMARK    6  A    between atoms: O_11  and  C_12 
REMARK    7  A    between atoms: C_12  and  C_13 
REMARK    8  A    between atoms: C_17  and  C_18 
REMARK    9  A    between atoms: C_27  and  O_28 
ROOT
HETATM    1  N   UNL     1      24.263  45.162  51.441  1.00  0.00    -0.350 N 
HETATM    2  C   UNL     1      25.470  45.669  51.879  1.00  0.00     0.242 C 
HETATM    3  O   UNL     1      26.401  45.944  51.128  1.00  0.00    -0.271 OA
HETATM    4  H   UNL     1      23.682  44.722  52.155  1.00  0.00     0.163 HD
ENDROOT
BRANCH   2   5
HETATM    5  C   UNL     1      25.557  45.869  53.394  1.00  0.00     0.281 C 
BRANCH   5   6
HETATM    6  O   UNL     1      26.811  45.476  53.945  1.00  0.00    -0.308 OA
BRANCH   6   7
HETATM    7  C   UNL     1      26.874  44.199  54.414  1.00  0.00     0.301 C 
HETATM    8  O   UNL     1      26.084  43.743  55.238  1.00  0.00    -0.259 OA
BRANCH   7   9
HETATM    9  C   UNL     1      27.961  43.483  53.776  1.00  0.00     0.091 A 
HETATM   10  S   UNL     1      27.596  42.592  52.352  1.00  0.00    -0.095 SA
HETATM   11  C   UNL     1      29.224  42.148  52.118  1.00  0.00     0.051 A 
HETATM   12  C   UNL     1      30.033  42.619  53.126  1.00  0.00     0.021 A 
HETATM   13  C   UNL     1      29.308  43.375  54.107  1.00  0.00    -0.002 A 
BRANCH  13  14
HETATM   14  C   UNL     1      29.890  43.941  55.319  1.00  0.00    -0.024 A 
HETATM   15  C   UNL     1      30.795  43.190  56.078  1.00  0.00     0.012 A 
HETATM   16  C   UNL     1      31.333  43.716  57.255  1.00  0.00     0.001 A 
HETATM   17  C   UNL     1      30.969  44.993  57.679  1.00  0.00     0.000 A 
HETATM   18  C   UNL     1      30.062  45.745  56.933  1.00  0.00     0.001 A 
HETATM   19  C   UNL     1      29.518  45.219  55.759  1.00  0.00     0.012 A 
ENDBRANCH  13  14
ENDBRANCH   7   9
ENDBRANCH   6   7
ENDBRANCH   5   6
ENDBRANCH   2   5
BRANCH   1  20
HETATM   20  C   UNL     1      24.091  44.739  50.060  1.00  0.00     0.225 C 
BRANCH  20  21
HETATM   21  C   UNL     1      23.449  45.839  49.204  1.00  0.00     0.239 C 
HETATM   22  N   UNL     1      23.702  47.109  49.691  1.00  0.00    -0.323 N 
HETATM   23  H   UNL     1      24.378  47.215  50.440  1.00  0.00     0.169 HD
HETATM   24  O   UNL     1      22.896  45.579  48.140  1.00  0.00    -0.271 OA
BRANCH  22  25
HETATM   25  C   UNL     1      23.220  48.340  49.195  1.00  0.00     0.069 A 
HETATM   26  C   UNL     1      21.859  48.632  49.071  1.00  0.00     0.039 A 
HETATM   27  C   UNL     1      21.439  49.896  48.635  1.00  0.00    -0.060 A 
HETATM   28  C   UNL     1      19.976  50.198  48.498  1.00  0.00     0.048 C 
HETATM   29  C   UNL     1      22.398  50.853  48.289  1.00  0.00     0.009 A 
HETATM   30  C   UNL     1      23.761  50.568  48.404  1.00  0.00     0.039 A 
HETATM   31  C   UNL     1      24.181  49.316  48.858  1.00  0.00     0.095 A 
BRANCH  31  32
HETATM   32  O   UNL     1      25.494  48.930  49.009  1.00  0.00    -0.354 OA
HETATM   33  C   UNL     1      26.469  49.697  48.313  1.00  0.00     0.210 C 
ENDBRANCH  31  32
ENDBRANCH  22  25
ENDBRANCH  20  21
ENDBRANCH   1  20
TORSDOF 9
ENDMDL
MODEL 3
REMARK VINA RESULT:      -8.9      1.839      3.191
REMARK  9 active torsions:
REMARK  status: ('A' for Active; 'I' for Inactive)
REMARK    1  A    between atoms: C_4  and  N_5 
REMARK       I    between atoms: N_5  and  C_6 
REMARK    2  A    between atoms: C_6  and  C_7 
REMARK    3  A    between atoms: C_7  and  N_8 
REMARK       I    between atoms: N_8  and  C_9 
REMARK    4  A    between atoms: C_9  and  C_10 
REMARK    5  A    between atoms: C_10  and  O_11 
REMARK    6  A    between atoms: O_11  and  C_12 
REMARK    7  A    between atoms: C_12  and  C_13 
REMARK    8  A    between atoms: C_17  and  C_18 
REMARK    9  A    between atoms: C_27  and  O_28 
ROOT
HETATM    1  N   UNL     1      24.163  44.757  50.465  1.00  0.00    -0.350 N 
HETATM    2  C   UNL     1      24.643  43.612  51.066  1.00  0.00     0.242 C 
HETATM    3  O   UNL     1      24.270  42.482  50.766  1.00  0.00    -0.271 OA
HETATM    4  H   UNL     1      24.332  45.628  50.968  1.00  0.00     0.163 HD
ENDROOT
BRANCH   2   5
HETATM    5  C   UNL     1      25.696  43.863  52.149  1.00  0.00     0.281 C 
BRANCH   5   6
HETATM    6  O   UNL     1      25.148  44.369  53.364  1.00  0.00    -0.308 OA
BRANCH   6   7
HETATM    7  C   UNL     1      26.002  44.411  54.423  1.00  0.00     0.301 C 
HETATM    8  O   UNL     1      26.175  43.465  55.188  1.00  0.00    -0.259 OA
BRANCH   7   9
HETATM    9  C   UNL     1      26.676  45.693  54.473  1.00  0.00     0.091 A 
HETATM   10  S   UNL     1      25.769  47.084  54.027  1.00  0.00    -0.095 SA
HETATM   11  C   UNL     1      27.054  48.139  54.400  1.00  0.00     0.051 A 
HETATM   12  C   UNL     1      28.175  47.455  54.809  1.00  0.00     0.021 A 
HETATM   13  C   UNL     1      27.976  46.033  54.832  1.00  0.00    -0.002 A 
BRANCH  13  14
HETATM   14  C   UNL     1      29.006  45.054  55.161  1.00  0.00    -0.024 A 
HETATM   15  C   UNL     1      29.801  45.230  56.300  1.00  0.00     0.012 A 
HETATM   16  C   UNL     1      30.808  44.310  56.604  1.00  0.00     0.001 A 
HETATM   17  C   UNL     1      31.026  43.214  55.772  1.00  0.00     0.000 A 
HETATM   18  C   UNL     1      30.243  43.035  54.632  1.00  0.00     0.001 A 
HETATM   19  C   UNL     1      29.240  43.956  54.322  1.00  0.00     0.012 A 
ENDBRANCH  13  14
ENDBRANCH   7   9
ENDBRANCH   6   7
ENDBRANCH   5   6
ENDBRANCH   2   5
BRANCH   1  20
HETATM   20  C   UNL     1      23.028  44.701  49.555  1.00  0.00     0.225 C 
BRANCH  20  21
HETATM   21  C   UNL     1      22.875  46.001  48.756  1.00  0.00     0.239 C 
HETATM   22  N   UNL     1      23.155  47.127  49.509  1.00  0.00    -0.323 N 
HETATM   23  H   UNL     1      23.565  47.003  50.430  1.00  0.00     0.169 HD
HETATM   24  O   UNL     1      22.657  45.986  47.548  1.00  0.00    -0.271 OA
BRANCH  22  25
HETATM   25  C   UNL     1      23.057  48.479  49.118  1.00  0.00     0.069 A 
HETATM   26  C   UNL     1      21.841  49.163  49.033  1.00  0.00     0.039 A 
HETATM   27  C   UNL     1      21.811  50.524  48.703  1.00  0.00    -0.060 A 
HETATM   28  C   UNL     1      20.500  51.248  48.607  1.00  0.00     0.048 C 
HETATM   29  C   UNL     1      23.010  51.186  48.421  1.00  0.00     0.009 A 
HETATM   30  C   UNL     1      24.230  50.509  48.497  1.00  0.00     0.039 A 
HETATM   31  C   UNL     1      24.263  49.158  48.846  1.00  0.00     0.095 A 
BRANCH  31  32
HETATM   32  O   UNL     1      25.407  48.397  48.950  1.00  0.00    -0.354 OA
HETATM   33  C   UNL     1      26.645  49.096  48.906  1.00  0.00     0.210 C 
ENDBRANCH  31  32
ENDBRANCH  22  25
ENDBRANCH  20  21
ENDBRANCH   1  20
TORSDOF 9
ENDMDL
MODEL 4
REMARK VINA RESULT:      -8.9      1.651      2.661
REMARK  9 active torsions:
REMARK  status: ('A' for Active; 'I' for Inactive)
REMARK    1  A    between atoms: C_4  and  N_5 
REMARK       I    between atoms: N_5  and  C_6 
REMARK    2  A    between atoms: C_6  and  C_7 
REMARK    3  A    between atoms: C_7  and  N_8 
REMARK       I    between atoms: N_8  and  C_9 
REMARK    4  A    between atoms: C_9  and  C_10 
REMARK    5  A    between atoms: C_10  and  O_11 
REMARK    6  A    between atoms: O_11  and  C_12 
REMARK    7  A    between atoms: C_12  and  C_13 
REMARK    8  A    between atoms: C_17  and  C_18 
REMARK    9  A    between atoms: C_27  and  O_28 
ROOT
HETATM    1  N   UNL     1      25.542  47.915  49.991  1.00  0.00    -0.350 N 
HETATM    2  C   UNL     1      26.315  46.773  49.934  1.00  0.00     0.242 C 
HETATM    3  O   UNL     1      27.303  46.658  49.215  1.00  0.00    -0.271 OA
HETATM    4  H   UNL     1      24.615  47.803  50.401  1.00  0.00     0.163 HD
ENDROOT
BRANCH   2   5
HETATM    5  C   UNL     1      25.843  45.646  50.856  1.00  0.00     0.281 C 
BRANCH   5   6
HETATM    6  O   UNL     1      26.728  45.397  51.945  1.00  0.00    -0.308 OA
BRANCH   6   7
HETATM    7  C   UNL     1      26.395  44.349  52.748  1.00  0.00     0.301 C 
HETATM    8  O   UNL     1      25.418  44.355  53.494  1.00  0.00    -0.259 OA
BRANCH   7   9
HETATM    9  C   UNL     1      27.324  43.253  52.554  1.00  0.00     0.091 A 
HETATM   10  S   UNL     1      26.896  42.043  51.411  1.00  0.00    -0.095 SA
HETATM   11  C   UNL     1      28.372  41.216  51.616  1.00  0.00     0.051 A 
HETATM   12  C   UNL     1      29.163  41.811  52.571  1.00  0.00     0.021 A 
HETATM   13  C   UNL     1      28.556  42.980  53.140  1.00  0.00    -0.002 A 
BRANCH  13  14
HETATM   14  C   UNL     1      29.132  43.777  54.218  1.00  0.00    -0.024 A 
HETATM   15  C   UNL     1      30.283  43.331  54.879  1.00  0.00     0.012 A 
HETATM   16  C   UNL     1      30.823  44.076  55.931  1.00  0.00     0.001 A 
HETATM   17  C   UNL     1      30.214  45.265  56.328  1.00  0.00     0.000 A 
HETATM   18  C   UNL     1      29.063  45.712  55.680  1.00  0.00     0.001 A 
HETATM   19  C   UNL     1      28.519  44.967  54.632  1.00  0.00     0.012 A 
ENDBRANCH  13  14
ENDBRANCH   7   9
ENDBRANCH   6   7
ENDBRANCH   5   6
ENDBRANCH   2   5
BRANCH   1  20
HETATM   20  C   UNL     1      25.747  48.999  49.042  1.00  0.00     0.225 C 
BRANCH  20  21
HETATM   21  C   UNL     1      24.428  49.450  48.401  1.00  0.00     0.239 C 
HETATM   22  N   UNL     1      23.336  49.246  49.226  1.00  0.00    -0.323 N 
HETATM   23  H   UNL     1      23.502  48.973  50.190  1.00  0.00     0.169 HD
HETATM   24  O   UNL     1      24.411  50.046  47.328  1.00  0.00    -0.271 OA
BRANCH  22  25
HETATM   25  C   UNL     1      21.975  49.483  48.938  1.00  0.00     0.069 A 
HETATM   26  C   UNL     1      21.416  50.763  48.894  1.00  0.00     0.039 A 
HETATM   27  C   UNL     1      20.073  50.942  48.537  1.00  0.00    -0.060 A 
HETATM   28  C   UNL     1      19.480  52.320  48.500  1.00  0.00     0.048 C 
HETATM   29  C   UNL     1      19.284  49.821  48.262  1.00  0.00     0.009 A 
HETATM   30  C   UNL     1      19.832  48.537  48.311  1.00  0.00     0.039 A 
HETATM   31  C   UNL     1      21.175  48.359  48.645  1.00  0.00     0.095 A 
BRANCH  31  32
HETATM   32  O   UNL     1      21.815  47.142  48.721  1.00  0.00    -0.354 OA
HETATM   33  C   UNL     1      22.059  46.470  47.492  1.00  0.00     0.210 C 
ENDBRANCH  31  32
ENDBRANCH  22  25
ENDBRANCH  20  21
ENDBRANCH   1  20
TORSDOF 9
ENDMDL
MODEL 5
REMARK VINA RESULT:      -8.9      2.704      9.597
REMARK  9 active torsions:
REMARK  status: ('A' for Active; 'I' for Inactive)
REMARK    1  A    between atoms: C_4  and  N_5 
REMARK       I    between atoms: N_5  and  C_6 
REMARK    2  A    between atoms: C_6  and  C_7 
REMARK    3  A    between atoms: C_7  and  N_8 
REMARK       I    between atoms: N_8  and  C_9 
REMARK    4  A    between atoms: C_9  and  C_10 
REMARK    5  A    between atoms: C_10  and  O_11 
REMARK    6  A    between atoms: O_11  and  C_12 
REMARK    7  A    between atoms: C_12  and  C_13 
REMARK    8  A    between atoms: C_17  and  C_18 
REMARK    9  A    between atoms: C_27  and  O_28 
ROOT
HETATM    1  N   UNL     1      26.859  44.657  51.762  1.00  0.00    -0.350 N 
HETATM    2  C   UNL     1      25.530  44.345  51.558  1.00  0.00     0.242 C 
HETATM    3  O   UNL     1      25.122  43.203  51.373  1.00  0.00    -0.271 OA
HETATM    4  H   UNL     1      27.111  45.636  51.631  1.00  0.00     0.163 HD
ENDROOT
BRANCH   2   5
HETATM    5  C   UNL     1      24.589  45.553  51.585  1.00  0.00     0.281 C 
BRANCH   5   6
HETATM    6  O   UNL     1      25.153  46.723  50.997  1.00  0.00    -0.308 OA
BRANCH   6   7
HETATM    7  C   UNL     1      24.525  47.183  49.880  1.00  0.00     0.301 C 
HETATM    8  O   UNL     1      23.480  46.701  49.447  1.00  0.00    -0.259 OA
BRANCH   7   9
HETATM    9  C   UNL     1      25.243  48.316  49.331  1.00  0.00     0.091 A 
HETATM   10  S   UNL     1      26.961  48.252  49.355  1.00  0.00    -0.095 SA
HETATM   11  C   UNL     1      27.106  49.734  48.525  1.00  0.00     0.051 A 
HETATM   12  C   UNL     1      25.878  50.302  48.275  1.00  0.00     0.021 A 
HETATM   13  C   UNL     1      24.790  49.500  48.760  1.00  0.00    -0.002 A 
BRANCH  13  14
HETATM   14  C   UNL     1      23.383  49.879  48.693  1.00  0.00    -0.024 A 
HETATM   15  C   UNL     1      22.843  50.737  49.658  1.00  0.00     0.012 A 
HETATM   16  C   UNL     1      21.489  51.080  49.616  1.00  0.00     0.001 A 
HETATM   17  C   UNL     1      20.670  50.566  48.612  1.00  0.00     0.000 A 
HETATM   18  C   UNL     1      21.199  49.705  47.652  1.00  0.00     0.001 A 
HETATM   19  C   UNL     1      22.550  49.356  47.694  1.00  0.00     0.012 A 
ENDBRANCH  13  14
ENDBRANCH   7   9
ENDBRANCH   6   7
ENDBRANCH   5   6
ENDBRANCH   2   5
BRANCH   1  20
HETATM   20  C   UNL     1      27.895  43.651  51.578  1.00  0.00     0.225 C 
BRANCH  20  21
HETATM   21  C   UNL     1      28.935  43.694  52.706  1.00  0.00     0.239 C 
HETATM   22  N   UNL     1      28.451  44.291  53.855  1.00  0.00    -0.323 N 
HETATM   23  H   UNL     1      27.460  44.502  53.911  1.00  0.00     0.169 HD
HETATM   24  O   UNL     1      30.018  43.126  52.596  1.00  0.00    -0.271 OA
BRANCH  22  25
HETATM   25  C   UNL     1      29.147  44.554  55.055  1.00  0.00     0.069 A 
HETATM   26  C   UNL     1      30.246  43.804  55.480  1.00  0.00     0.039 A 
HETATM   27  C   UNL     1      30.939  44.153  56.647  1.00  0.00    -0.060 A 
HETATM   28  C   UNL     1      32.114  43.337  57.098  1.00  0.00     0.048 C 
HETATM   29  C   UNL     1      30.494  45.240  57.406  1.00  0.00     0.009 A 
HETATM   30  C   UNL     1      29.391  45.991  56.994  1.00  0.00     0.039 A 
HETATM   31  C   UNL     1      28.713  45.657  55.820  1.00  0.00     0.095 A 
BRANCH  31  32
HETATM   32  O   UNL     1      27.618  46.328  55.322  1.00  0.00    -0.354 OA
HETATM   33  C   UNL     1      27.845  47.642  54.826  1.00  0.00     0.210 C 
ENDBRANCH  31  32
ENDBRANCH  22  25
ENDBRANCH  20  21
ENDBRANCH   1  20
TORSDOF 9
ENDMDL
MODEL 6
REMARK VINA RESULT:      -8.8      2.503      8.760
REMARK  9 active torsions:
REMARK  status: ('A' for Active; 'I' for Inactive)
REMARK    1  A    between atoms: C_4  and  N_5 
REMARK       I    between atoms: N_5  and  C_6 
REMARK    2  A    between atoms: C_6  and  C_7 
REMARK    3  A    between atoms: C_7  and  N_8 
REMARK       I    between atoms: N_8  and  C_9 
REMARK    4  A    between atoms: C_9  and  C_10 
REMARK    5  A    between atoms: C_10  and  O_11 
REMARK    6  A    between atoms: O_11  and  C_12 
REMARK    7  A    between atoms: C_12  and  C_13 
REMARK    8  A    between atoms: C_17  and  C_18 
REMARK    9  A    between atoms: C_27  and  O_28 
ROOT
HETATM    1  N   UNL     1      23.850  44.738  50.567  1.00  0.00    -0.350 N 
HETATM    2  C   UNL     1      22.968  44.240  49.630  1.00  0.00     0.242 C 
HETATM    3  O   UNL     1      22.421  43.146  49.728  1.00  0.00    -0.271 OA
HETATM    4  H   UNL     1      24.439  45.510  50.256  1.00  0.00     0.163 HD
ENDROOT
BRANCH   2   5
HETATM    5  C   UNL     1      22.717  45.174  48.443  1.00  0.00     0.281 C 
BRANCH   5   6
HETATM    6  O   UNL     1      21.939  46.320  48.779  1.00  0.00    -0.308 OA
BRANCH   6   7
HETATM    7  C   UNL     1      21.929  47.319  47.854  1.00  0.00     0.301 C 
HETATM    8  O   UNL     1      21.990  47.116  46.643  1.00  0.00    -0.259 OA
BRANCH   7   9
HETATM    9  C   UNL     1      21.800  48.606  48.507  1.00  0.00     0.091 A 
HETATM   10  S   UNL     1      20.218  49.264  48.654  1.00  0.00    -0.095 SA
HETATM   11  C   UNL     1      20.776  50.610  49.540  1.00  0.00     0.051 A 
HETATM   12  C   UNL     1      22.144  50.596  49.682  1.00  0.00     0.021 A 
HETATM   13  C   UNL     1      22.752  49.451  49.067  1.00  0.00    -0.002 A 
BRANCH  13  14
HETATM   14  C   UNL     1      24.188  49.204  49.003  1.00  0.00    -0.024 A 
HETATM   15  C   UNL     1      24.755  48.168  49.755  1.00  0.00     0.012 A 
HETATM   16  C   UNL     1      26.134  47.947  49.719  1.00  0.00     0.001 A 
HETATM   17  C   UNL     1      26.952  48.759  48.936  1.00  0.00     0.000 A 
HETATM   18  C   UNL     1      26.396  49.798  48.190  1.00  0.00     0.001 A 
HETATM   19  C   UNL     1      25.019  50.025  48.228  1.00  0.00     0.012 A 
ENDBRANCH  13  14
ENDBRANCH   7   9
ENDBRANCH   6   7
ENDBRANCH   5   6
ENDBRANCH   2   5
BRANCH   1  20
HETATM   20  C   UNL     1      24.336  43.898  51.651  1.00  0.00     0.225 C 
BRANCH  20  21
HETATM   21  C   UNL     1      25.819  44.154  51.948  1.00  0.00     0.239 C 
HETATM   22  N   UNL     1      26.222  43.614  53.156  1.00  0.00    -0.323 N 
HETATM   23  H   UNL     1      25.584  42.997  53.648  1.00  0.00     0.169 HD
HETATM   24  O   UNL     1      26.558  44.669  51.113  1.00  0.00    -0.271 OA
BRANCH  22  25
HETATM   25  C   UNL     1      27.490  43.712  53.770  1.00  0.00     0.069 A 
HETATM   26  C   UNL     1      27.874  44.798  54.561  1.00  0.00     0.039 A 
HETATM   27  C   UNL     1      29.121  44.808  55.199  1.00  0.00    -0.060 A 
HETATM   28  C   UNL     1      29.527  45.982  56.041  1.00  0.00     0.048 C 
HETATM   29  C   UNL     1      29.997  43.735  55.006  1.00  0.00     0.009 A 
HETATM   30  C   UNL     1      29.625  42.648  54.211  1.00  0.00     0.039 A 
HETATM   31  C   UNL     1      28.374  42.627  53.592  1.00  0.00     0.095 A 
BRANCH  31  32
HETATM   32  O   UNL     1      27.907  41.608  52.791  1.00  0.00    -0.354 OA
HETATM   33  C   UNL     1      28.862  40.647  52.358  1.00  0.00     0.210 C 
ENDBRANCH  31  32
ENDBRANCH  22  25
ENDBRANCH  20  21
ENDBRANCH   1  20
TORSDOF 9
ENDMDL
MODEL 7
REMARK VINA RESULT:      -8.7      2.609      8.595
REMARK  9 active torsions:
REMARK  status: ('A' for Active; 'I' for Inactive)
REMARK    1  A    between atoms: C_4  and  N_5 
REMARK       I    between atoms: N_5  and  C_6 
REMARK    2  A    between atoms: C_6  and  C_7 
REMARK    3  A    between atoms: C_7  and  N_8 
REMARK       I    between atoms: N_8  and  C_9 
REMARK    4  A    between atoms: C_9  and  C_10 
REMARK    5  A    between atoms: C_10  and  O_11 
REMARK    6  A    between atoms: O_11  and  C_12 
REMARK    7  A    between atoms: C_12  and  C_13 
REMARK    8  A    between atoms: C_17  and  C_18 
REMARK    9  A    between atoms: C_27  and  O_28 
ROOT
HETATM    1  N   UNL     1      24.307  43.901  49.985  1.00  0.00    -0.350 N 
HETATM    2  C   UNL     1      22.947  43.965  49.755  1.00  0.00     0.242 C 
HETATM    3  O   UNL     1      22.113  43.419  50.470  1.00  0.00    -0.271 OA
HETATM    4  H   UNL     1      24.903  44.150  49.196  1.00  0.00     0.163 HD
ENDROOT
BRANCH   2   5
HETATM    5  C   UNL     1      22.555  44.786  48.524  1.00  0.00     0.281 C 
BRANCH   5   6
HETATM    6  O   UNL     1      21.973  46.046  48.847  1.00  0.00    -0.308 OA
BRANCH   6   7
HETATM    7  C   UNL     1      22.065  47.003  47.882  1.00  0.00     0.301 C 
HETATM    8  O   UNL     1      22.265  46.747  46.696  1.00  0.00    -0.259 OA
BRANCH   7   9
HETATM    9  C   UNL     1      21.857  48.317  48.457  1.00  0.00     0.091 A 
HETATM   10  S   UNL     1      20.241  48.900  48.536  1.00  0.00    -0.095 SA
HETATM   11  C   UNL     1      20.711  50.320  49.353  1.00  0.00     0.051 A 
HETATM   12  C   UNL     1      22.075  50.385  49.522  1.00  0.00     0.021 A 
HETATM   13  C   UNL     1      22.753  49.240  48.985  1.00  0.00    -0.002 A 
BRANCH  13  14
HETATM   14  C   UNL     1      24.201  49.064  48.963  1.00  0.00    -0.024 A 
HETATM   15  C   UNL     1      24.794  48.044  49.715  1.00  0.00     0.012 A 
HETATM   16  C   UNL     1      26.183  47.890  49.720  1.00  0.00     0.001 A 
HETATM   17  C   UNL     1      26.984  48.755  48.977  1.00  0.00     0.000 A 
HETATM   18  C   UNL     1      26.401  49.779  48.231  1.00  0.00     0.001 A 
HETATM   19  C   UNL     1      25.014  49.939  48.228  1.00  0.00     0.012 A 
ENDBRANCH  13  14
ENDBRANCH   7   9
ENDBRANCH   6   7
ENDBRANCH   5   6
ENDBRANCH   2   5
BRANCH   1  20
HETATM   20  C   UNL     1      24.848  43.009  51.000  1.00  0.00     0.225 C 
BRANCH  20  21
HETATM   21  C   UNL     1      26.201  43.504  51.528  1.00  0.00     0.239 C 
HETATM   22  N   UNL     1      26.212  43.660  52.902  1.00  0.00    -0.323 N 
HETATM   23  H   UNL     1      25.423  43.309  53.436  1.00  0.00     0.169 HD
HETATM   24  O   UNL     1      27.176  43.606  50.789  1.00  0.00    -0.271 OA
BRANCH  22  25
HETATM   25  C   UNL     1      27.259  44.153  53.711  1.00  0.00     0.069 A 
HETATM   26  C   UNL     1      28.334  43.366  54.132  1.00  0.00     0.039 A 
HETATM   27  C   UNL     1      29.378  43.928  54.878  1.00  0.00    -0.060 A 
HETATM   28  C   UNL     1      30.525  43.073  55.331  1.00  0.00     0.048 C 
HETATM   29  C   UNL     1      29.316  45.279  55.232  1.00  0.00     0.009 A 
HETATM   30  C   UNL     1      28.241  46.072  54.823  1.00  0.00     0.039 A 
HETATM   31  C   UNL     1      27.210  45.519  54.061  1.00  0.00     0.095 A 
BRANCH  31  32
HETATM   32  O   UNL     1      26.108  46.208  53.605  1.00  0.00    -0.354 OA
HETATM   33  C   UNL     1      25.867  47.483  54.185  1.00  0.00     0.210 C 
ENDBRANCH  31  32
ENDBRANCH  22  25
ENDBRANCH  20  21
ENDBRANCH   1  20
TORSDOF 9
ENDMDL
MODEL 8
REMARK VINA RESULT:      -8.7      2.628     10.068
REMARK  9 active torsions:
REMARK  status: ('A' for Active; 'I' for Inactive)
REMARK    1  A    between atoms: C_4  and  N_5 
REMARK       I    between atoms: N_5  and  C_6 
REMARK    2  A    between atoms: C_6  and  C_7 
REMARK    3  A    between atoms: C_7  and  N_8 
REMARK       I    between atoms: N_8  and  C_9 
REMARK    4  A    between atoms: C_9  and  C_10 
REMARK    5  A    between atoms: C_10  and  O_11 
REMARK    6  A    between atoms: O_11  and  C_12 
REMARK    7  A    between atoms: C_12  and  C_13 
REMARK    8  A    between atoms: C_17  and  C_18 
REMARK    9  A    between atoms: C_27  and  O_28 
ROOT
HETATM    1  N   UNL     1      24.280  45.561  51.208  1.00  0.00    -0.350 N 
HETATM    2  C   UNL     1      24.244  45.830  49.855  1.00  0.00     0.242 C 
HETATM    3  O   UNL     1      24.409  44.976  48.990  1.00  0.00    -0.271 OA
HETATM    4  H   UNL     1      24.403  46.368  51.819  1.00  0.00     0.163 HD
ENDROOT
BRANCH   2   5
HETATM    5  C   UNL     1      23.974  47.297  49.512  1.00  0.00     0.281 C 
BRANCH   5   6
HETATM    6  O   UNL     1      22.607  47.563  49.206  1.00  0.00    -0.308 OA
BRANCH   6   7
HETATM    7  C   UNL     1      22.385  48.254  48.053  1.00  0.00     0.301 C 
HETATM    8  O   UNL     1      23.166  49.092  47.608  1.00  0.00    -0.259 OA
BRANCH   7   9
HETATM    9  C   UNL     1      21.142  47.824  47.443  1.00  0.00     0.091 A 
HETATM   10  S   UNL     1      21.195  46.434  46.433  1.00  0.00    -0.095 SA
HETATM   11  C   UNL     1      19.509  46.456  46.181  1.00  0.00     0.051 A 
HETATM   12  C   UNL     1      18.913  47.527  46.807  1.00  0.00     0.021 A 
HETATM   13  C   UNL     1      19.854  48.342  47.522  1.00  0.00    -0.002 A 
BRANCH  13  14
HETATM   14  C   UNL     1      19.520  49.575  48.225  1.00  0.00    -0.024 A 
HETATM   15  C   UNL     1      19.785  50.814  47.629  1.00  0.00     0.012 A 
HETATM   16  C   UNL     1      19.493  51.999  48.310  1.00  0.00     0.001 A 
HETATM   17  C   UNL     1      18.940  51.951  49.589  1.00  0.00     0.000 A 
HETATM   18  C   UNL     1      18.681  50.721  50.192  1.00  0.00     0.001 A 
HETATM   19  C   UNL     1      18.976  49.535  49.516  1.00  0.00     0.012 A 
ENDBRANCH  13  14
ENDBRANCH   7   9
ENDBRANCH   6   7
ENDBRANCH   5   6
ENDBRANCH   2   5
BRANCH   1  20
HETATM   20  C   UNL     1      24.712  44.259  51.697  1.00  0.00     0.225 C 
BRANCH  20  21
HETATM   21  C   UNL     1      25.449  44.372  53.038  1.00  0.00     0.239 C 
HETATM   22  N   UNL     1      26.743  44.839  52.897  1.00  0.00    -0.323 N 
HETATM   23  H   UNL     1      27.033  45.196  51.992  1.00  0.00     0.169 HD
HETATM   24  O   UNL     1      24.868  44.184  54.103  1.00  0.00    -0.271 OA
BRANCH  22  25
HETATM   25  C   UNL     1      27.719  45.005  53.903  1.00  0.00     0.069 A 
HETATM   26  C   UNL     1      28.652  44.018  54.232  1.00  0.00     0.039 A 
HETATM   27  C   UNL     1      29.640  44.265  55.194  1.00  0.00    -0.060 A 
HETATM   28  C   UNL     1      30.633  43.196  55.546  1.00  0.00     0.048 C 
HETATM   29  C   UNL     1      29.662  45.499  55.851  1.00  0.00     0.009 A 
HETATM   30  C   UNL     1      28.729  46.489  55.535  1.00  0.00     0.039 A 
HETATM   31  C   UNL     1      27.757  46.253  54.561  1.00  0.00     0.095 A 
BRANCH  31  32
HETATM   32  O   UNL     1      26.794  47.156  54.172  1.00  0.00    -0.354 OA
HETATM   33  C   UNL     1      26.299  48.036  55.174  1.00  0.00     0.210 C 
ENDBRANCH  31  32
ENDBRANCH  22  25
ENDBRANCH  20  21
ENDBRANCH   1  20
TORSDOF 9
ENDMDL
MODEL 9
REMARK VINA RESULT:      -8.7      2.496     10.037
REMARK  9 active torsions:
REMARK  status: ('A' for Active; 'I' for Inactive)
REMARK    1  A    between atoms: C_4  and  N_5 
REMARK       I    between atoms: N_5  and  C_6 
REMARK    2  A    between atoms: C_6  and  C_7 
REMARK    3  A    between atoms: C_7  and  N_8 
REMARK       I    between atoms: N_8  and  C_9 
REMARK    4  A    between atoms: C_9  and  C_10 
REMARK    5  A    between atoms: C_10  and  O_11 
REMARK    6  A    between atoms: O_11  and  C_12 
REMARK    7  A    between atoms: C_12  and  C_13 
REMARK    8  A    between atoms: C_17  and  C_18 
REMARK    9  A    between atoms: C_27  and  O_28 
ROOT
HETATM    1  N   UNL     1      24.399  45.662  51.151  1.00  0.00    -0.350 N 
HETATM    2  C   UNL     1      24.373  46.036  49.823  1.00  0.00     0.242 C 
HETATM    3  O   UNL     1      24.391  45.237  48.893  1.00  0.00    -0.271 OA
HETATM    4  H   UNL     1      24.653  46.394  51.815  1.00  0.00     0.163 HD
ENDROOT
BRANCH   2   5
HETATM    5  C   UNL     1      24.313  47.549  49.597  1.00  0.00     0.281 C 
BRANCH   5   6
HETATM    6  O   UNL     1      22.985  48.048  49.455  1.00  0.00    -0.308 OA
BRANCH   6   7
HETATM    7  C   UNL     1      22.678  48.570  48.235  1.00  0.00     0.301 C 
HETATM    8  O   UNL     1      23.373  49.411  47.668  1.00  0.00    -0.259 OA
BRANCH   7   9
HETATM    9  C   UNL     1      21.466  47.966  47.721  1.00  0.00     0.091 A 
HETATM   10  S   UNL     1      21.623  46.486  46.860  1.00  0.00    -0.095 SA
HETATM   11  C   UNL     1      19.936  46.326  46.672  1.00  0.00     0.051 A 
HETATM   12  C   UNL     1      19.259  47.398  47.204  1.00  0.00     0.021 A 
HETATM   13  C   UNL     1      20.137  48.368  47.795  1.00  0.00    -0.002 A 
BRANCH  13  14
HETATM   14  C   UNL     1      19.707  49.634  48.378  1.00  0.00    -0.024 A 
HETATM   15  C   UNL     1      19.012  49.646  49.592  1.00  0.00     0.012 A 
HETATM   16  C   UNL     1      18.573  50.854  50.141  1.00  0.00     0.001 A 
HETATM   17  C   UNL     1      18.824  52.053  49.477  1.00  0.00     0.000 A 
HETATM   18  C   UNL     1      19.509  52.050  48.263  1.00  0.00     0.001 A 
HETATM   19  C   UNL     1      19.945  50.844  47.710  1.00  0.00     0.012 A 
ENDBRANCH  13  14
ENDBRANCH   7   9
ENDBRANCH   6   7
ENDBRANCH   5   6
ENDBRANCH   2   5
BRANCH   1  20
HETATM   20  C   UNL     1      24.645  44.278  51.529  1.00  0.00     0.225 C 
BRANCH  20  21
HETATM   21  C   UNL     1      25.524  44.179  52.783  1.00  0.00     0.239 C 
HETATM   22  N   UNL     1      26.865  44.380  52.512  1.00  0.00    -0.323 N 
HETATM   23  H   UNL     1      27.128  44.709  51.589  1.00  0.00     0.169 HD
HETATM   24  O   UNL     1      25.029  44.067  53.901  1.00  0.00    -0.271 OA
BRANCH  22  25
HETATM   25  C   UNL     1      27.953  44.299  53.408  1.00  0.00     0.069 A 
HETATM   26  C   UNL     1      28.112  45.163  54.494  1.00  0.00     0.039 A 
HETATM   27  C   UNL     1      29.177  44.993  55.389  1.00  0.00    -0.060 A 
HETATM   28  C   UNL     1      29.344  45.931  56.548  1.00  0.00     0.048 C 
HETATM   29  C   UNL     1      30.103  43.970  55.163  1.00  0.00     0.009 A 
HETATM   30  C   UNL     1      29.956  43.106  54.076  1.00  0.00     0.039 A 
HETATM   31  C   UNL     1      28.884  43.261  53.195  1.00  0.00     0.095 A 
BRANCH  31  32
HETATM   32  O   UNL     1      28.644  42.467  52.096  1.00  0.00    -0.354 OA
HETATM   33  C   UNL     1      28.422  41.084  52.342  1.00  0.00     0.210 C 
ENDBRANCH  31  32
ENDBRANCH  22  25
ENDBRANCH  20  21
ENDBRANCH   1  20
TORSDOF 9
ENDMDL
MODEL 10
REMARK VINA RESULT:      -8.7      3.652      5.688
REMARK  9 active torsions:
REMARK  status: ('A' for Active; 'I' for Inactive)
REMARK    1  A    between atoms: C_4  and  N_5 
REMARK       I    between atoms: N_5  and  C_6 
REMARK    2  A    between atoms: C_6  and  C_7 
REMARK    3  A    between atoms: C_7  and  N_8 
REMARK       I    between atoms: N_8  and  C_9 
REMARK    4  A    between atoms: C_9  and  C_10 
REMARK    5  A    between atoms: C_10  and  O_11 
REMARK    6  A    between atoms: O_11  and  C_12 
REMARK    7  A    between atoms: C_12  and  C_13 
REMARK    8  A    between atoms: C_17  and  C_18 
REMARK    9  A    between atoms: C_27  and  O_28 
ROOT
HETATM    1  N   UNL     1      26.782  41.408  51.834  1.00  0.00    -0.350 N 
HETATM    2  C   UNL     1      28.033  40.846  51.992  1.00  0.00     0.242 C 
HETATM    3  O   UNL     1      28.646  40.291  51.085  1.00  0.00    -0.271 OA
HETATM    4  H   UNL     1      26.265  41.590  52.695  1.00  0.00     0.163 HD
ENDROOT
BRANCH   2   5
HETATM    5  C   UNL     1      28.608  40.976  53.404  1.00  0.00     0.281 C 
BRANCH   5   6
HETATM    6  O   UNL     1      28.353  42.244  54.004  1.00  0.00    -0.308 OA
BRANCH   6   7
HETATM    7  C   UNL     1      29.233  43.234  53.689  1.00  0.00     0.301 C 
HETATM    8  O   UNL     1      29.611  43.459  52.541  1.00  0.00    -0.259 OA
BRANCH   7   9
HETATM    9  C   UNL     1      29.605  43.972  54.879  1.00  0.00     0.091 A 
HETATM   10  S   UNL     1      30.857  43.318  55.859  1.00  0.00    -0.095 SA
HETATM   11  C   UNL     1      30.833  44.654  56.918  1.00  0.00     0.051 A 
HETATM   12  C   UNL     1      29.860  45.562  56.572  1.00  0.00     0.021 A 
HETATM   13  C   UNL     1      29.124  45.167  55.405  1.00  0.00    -0.002 A 
BRANCH  13  14
HETATM   14  C   UNL     1      27.994  45.900  54.845  1.00  0.00    -0.024 A 
HETATM   15  C   UNL     1      27.994  47.299  54.852  1.00  0.00     0.012 A 
HETATM   16  C   UNL     1      26.902  48.006  54.344  1.00  0.00     0.001 A 
HETATM   17  C   UNL     1      25.805  47.318  53.828  1.00  0.00     0.000 A 
HETATM   18  C   UNL     1      25.793  45.924  53.824  1.00  0.00     0.001 A 
HETATM   19  C   UNL     1      26.882  45.215  54.337  1.00  0.00     0.012 A 
ENDBRANCH  13  14
ENDBRANCH   7   9
ENDBRANCH   6   7
ENDBRANCH   5   6
ENDBRANCH   2   5
BRANCH   1  20
HETATM   20  C   UNL     1      26.023  41.203  50.609  1.00  0.00     0.225 C 
BRANCH  20  21
HETATM   21  C   UNL     1      25.735  42.527  49.891  1.00  0.00     0.239 C 
HETATM   22  N   UNL     1      25.938  43.629  50.702  1.00  0.00    -0.323 N 
HETATM   23  H   UNL     1      26.384  43.491  51.603  1.00  0.00     0.169 HD
HETATM   24  O   UNL     1      25.484  42.560  48.689  1.00  0.00    -0.271 OA
BRANCH  22  25
HETATM   25  C   UNL     1      25.712  44.987  50.392  1.00  0.00     0.069 A 
HETATM   26  C   UNL     1      26.733  45.867  50.023  1.00  0.00     0.039 A 
HETATM   27  C   UNL     1      26.438  47.189  49.663  1.00  0.00    -0.060 A 
HETATM   28  C   UNL     1      27.542  48.128  49.275  1.00  0.00     0.048 C 
HETATM   29  C   UNL     1      25.112  47.632  49.711  1.00  0.00     0.009 A 
HETATM   30  C   UNL     1      24.086  46.761  50.086  1.00  0.00     0.039 A 
HETATM   31  C   UNL     1      24.375  45.438  50.425  1.00  0.00     0.095 A 
BRANCH  31  32
HETATM   32  O   UNL     1      23.443  44.499  50.807  1.00  0.00    -0.354 OA
HETATM   33  C   UNL     1      22.490  44.110  49.825  1.00  0.00     0.210 C 
ENDBRANCH  31  32
ENDBRANCH  22  25
ENDBRANCH  20  21
ENDBRANCH   1  20
TORSDOF 9
ENDMDL
