MODEL 1
REMARK VINA RESULT:     -11.7      0.000      0.000
REMARK  6 active torsions:
REMARK  status: ('A' for Active; 'I' for Inactive)
REMARK    1  A    between atoms: O_2  and  C_3 
REMARK    2  A    between atoms: C_6  and  N_7 
REMARK    3  A    between atoms: C_14  and  C_15 
REMARK       I    between atoms: C_15  and  N_16 
REMARK    4  A    between atoms: N_16  and  C_17 
REMARK    5  A    between atoms: C_20  and  C_21 
REMARK    6  A    between atoms: C_34  and  O_35 
ROOT
HETATM    1  N   UNL     1      21.580  48.868  49.527  1.00  0.00    -0.336 N 
HETATM    2  H   UNL     1      22.229  48.913  50.327  1.00  0.00     0.168 HD
HETATM    3  C   UNL     1      21.775  47.905  48.698  1.00  0.00     0.164 A 
HETATM    4  O   UNL     1      20.829  47.745  47.720  1.00  0.00    -0.289 OA
HETATM    5  C   UNL     1      20.869  46.658  46.824  1.00  0.00     0.121 A 
HETATM    6  C   UNL     1      21.879  45.707  46.937  1.00  0.00     0.002 A 
HETATM    7  C   UNL     1      22.905  45.874  47.962  1.00  0.00     0.035 A 
HETATM    8  C   UNL     1      22.904  46.935  48.787  1.00  0.00     0.084 A 
HETATM    9  C   UNL     1      19.866  46.576  45.851  1.00  0.00     0.102 A 
HETATM   10  C   UNL     1      19.887  45.493  44.973  1.00  0.00     0.040 A 
HETATM   11  C   UNL     1      20.891  44.523  45.076  1.00  0.00     0.004 A 
HETATM   12  C   UNL     1      21.886  44.629  46.053  1.00  0.00     0.014 A 
ENDROOT
BRANCH   8  13
HETATM   13  C   UNL     1      23.954  47.148  49.850  1.00  0.00     0.260 C 
HETATM   14  N   UNL     1      24.359  46.045  50.558  1.00  0.00    -0.323 N 
HETATM   15  H   UNL     1      23.956  45.145  50.338  1.00  0.00     0.169 HD
HETATM   16  O   UNL     1      24.380  48.298  49.966  1.00  0.00    -0.267 OA
BRANCH  14  17
HETATM   17  C   UNL     1      25.296  45.987  51.614  1.00  0.00     0.035 A 
HETATM   18  C   UNL     1      25.369  46.901  52.664  1.00  0.00     0.030 A 
HETATM   19  C   UNL     1      26.333  46.747  53.677  1.00  0.00     0.017 A 
HETATM   20  C   UNL     1      27.226  45.670  53.658  1.00  0.00     0.010 A 
HETATM   21  C   UNL     1      27.143  44.756  52.603  1.00  0.00     0.017 A 
HETATM   22  C   UNL     1      26.199  44.918  51.587  1.00  0.00     0.030 A 
BRANCH  20  23
HETATM   23  C   UNL     1      28.220  45.446  54.708  1.00  0.00     0.139 A 
HETATM   24  N   UNL     1      28.279  46.100  55.854  1.00  0.00    -0.228 NA
HETATM   25  C   UNL     1      29.331  45.558  56.549  1.00  0.00     0.086 A 
HETATM   26  C   UNL     1      29.921  44.528  55.828  1.00  0.00     0.062 A 
HETATM   27  C   UNL     1      29.836  45.889  57.814  1.00  0.00     0.034 A 
HETATM   28  N   UNL     1      29.203  44.483  54.661  1.00  0.00    -0.338 N 
HETATM   29  C   UNL     1      31.000  43.781  56.304  1.00  0.00     0.032 A 
HETATM   30  H   UNL     1      29.346  43.825  53.910  1.00  0.00     0.167 HD
HETATM   31  C   UNL     1      31.489  44.122  57.571  1.00  0.00     0.002 A 
HETATM   32  C   UNL     1      30.921  45.160  58.315  1.00  0.00     0.002 A 
ENDBRANCH  20  23
ENDBRANCH  14  17
ENDBRANCH   8  13
BRANCH   1  33
HETATM   33  C   UNL     1      20.552  49.832  49.556  1.00  0.00     0.034 A 
HETATM   34  C   UNL     1      20.756  50.990  48.788  1.00  0.00     0.032 A 
HETATM   35  C   UNL     1      19.801  52.019  48.772  1.00  0.00     0.039 A 
HETATM   36  C   UNL     1      18.626  51.893  49.508  1.00  0.00     0.068 A 
HETATM   37  C   UNL     1      18.404  50.725  50.237  1.00  0.00     0.039 A 
HETATM   38  C   UNL     1      19.354  49.697  50.263  1.00  0.00     0.032 A 
BRANCH  36  39
HETATM   39  O   UNL     1      17.621  52.812  49.589  1.00  0.00    -0.356 OA
HETATM   40  C   UNL     1      16.307  52.324  49.841  1.00  0.00     0.210 C 
ENDBRANCH  36  39
ENDBRANCH   1  33
BRANCH   9  41
HETATM   41  O   UNL     1      18.945  47.588  45.854  1.00  0.00    -0.353 OA
HETATM   42  C   UNL     1      17.601  47.237  46.172  1.00  0.00     0.210 C 
ENDBRANCH   9  41
TORSDOF 6
ENDMDL
MODEL 2
REMARK VINA RESULT:     -10.8      1.699      4.943
REMARK  6 active torsions:
REMARK  status: ('A' for Active; 'I' for Inactive)
REMARK    1  A    between atoms: O_2  and  C_3 
REMARK    2  A    between atoms: C_6  and  N_7 
REMARK    3  A    between atoms: C_14  and  C_15 
REMARK       I    between atoms: C_15  and  N_16 
REMARK    4  A    between atoms: N_16  and  C_17 
REMARK    5  A    between atoms: C_20  and  C_21 
REMARK    6  A    between atoms: C_34  and  O_35 
ROOT
HETATM    1  N   UNL     1      22.768  46.104  48.025  1.00  0.00    -0.336 N 
HETATM    2  H   UNL     1      23.684  45.785  48.377  1.00  0.00     0.168 HD
HETATM    3  C   UNL     1      22.425  47.298  48.357  1.00  0.00     0.164 A 
HETATM    4  O   UNL     1      21.287  47.787  47.770  1.00  0.00    -0.289 OA
HETATM    5  C   UNL     1      20.871  49.119  47.964  1.00  0.00     0.121 A 
HETATM    6  C   UNL     1      21.636  49.975  48.751  1.00  0.00     0.002 A 
HETATM    7  C   UNL     1      22.841  49.464  49.397  1.00  0.00     0.035 A 
HETATM    8  C   UNL     1      23.218  48.181  49.261  1.00  0.00     0.084 A 
HETATM    9  C   UNL     1      19.691  49.533  47.333  1.00  0.00     0.102 A 
HETATM   10  C   UNL     1      19.282  50.855  47.502  1.00  0.00     0.040 A 
HETATM   11  C   UNL     1      20.043  51.732  48.285  1.00  0.00     0.004 A 
HETATM   12  C   UNL     1      21.215  51.294  48.909  1.00  0.00     0.014 A 
ENDROOT
BRANCH   8  13
HETATM   13  C   UNL     1      24.449  47.613  49.922  1.00  0.00     0.260 C 
HETATM   14  N   UNL     1      24.300  47.098  51.184  1.00  0.00    -0.323 N 
HETATM   15  H   UNL     1      23.384  47.107  51.613  1.00  0.00     0.169 HD
HETATM   16  O   UNL     1      25.481  47.634  49.249  1.00  0.00    -0.267 OA
BRANCH  14  17
HETATM   17  C   UNL     1      25.295  46.542  52.019  1.00  0.00     0.035 A 
HETATM   18  C   UNL     1      25.931  45.322  51.796  1.00  0.00     0.030 A 
HETATM   19  C   UNL     1      26.922  44.861  52.682  1.00  0.00     0.017 A 
HETATM   20  C   UNL     1      27.297  45.623  53.794  1.00  0.00     0.010 A 
HETATM   21  C   UNL     1      26.657  46.847  54.009  1.00  0.00     0.017 A 
HETATM   22  C   UNL     1      25.660  47.297  53.140  1.00  0.00     0.030 A 
BRANCH  20  23
HETATM   23  C   UNL     1      28.348  45.206  54.722  1.00  0.00     0.139 A 
HETATM   24  N   UNL     1      29.136  44.158  54.560  1.00  0.00    -0.228 NA
HETATM   25  C   UNL     1      29.990  44.152  55.634  1.00  0.00     0.086 A 
HETATM   26  C   UNL     1      29.740  45.233  56.469  1.00  0.00     0.062 A 
HETATM   27  C   UNL     1      31.016  43.254  55.960  1.00  0.00     0.034 A 
HETATM   28  N   UNL     1      28.689  45.881  55.872  1.00  0.00    -0.338 N 
HETATM   29  C   UNL     1      30.474  45.492  57.628  1.00  0.00     0.032 A 
HETATM   30  H   UNL     1      28.264  46.735  56.200  1.00  0.00     0.167 HD
HETATM   31  C   UNL     1      31.499  44.588  57.936  1.00  0.00     0.002 A 
HETATM   32  C   UNL     1      31.765  43.485  57.120  1.00  0.00     0.002 A 
ENDBRANCH  20  23
ENDBRANCH  14  17
ENDBRANCH   8  13
BRANCH   1  33
HETATM   33  C   UNL     1      22.118  45.187  47.176  1.00  0.00     0.034 A 
HETATM   34  C   UNL     1      22.810  44.809  46.014  1.00  0.00     0.032 A 
HETATM   35  C   UNL     1      22.235  43.919  45.092  1.00  0.00     0.039 A 
HETATM   36  C   UNL     1      20.973  43.383  45.333  1.00  0.00     0.068 A 
HETATM   37  C   UNL     1      20.303  43.726  46.508  1.00  0.00     0.039 A 
HETATM   38  C   UNL     1      20.868  44.617  47.428  1.00  0.00     0.032 A 
BRANCH  36  39
HETATM   39  O   UNL     1      20.295  42.518  44.525  1.00  0.00    -0.356 OA
HETATM   40  C   UNL     1      20.183  41.167  44.962  1.00  0.00     0.210 C 
ENDBRANCH  36  39
ENDBRANCH   1  33
BRANCH   9  41
HETATM   41  O   UNL     1      19.039  48.580  46.598  1.00  0.00    -0.353 OA
HETATM   42  C   UNL     1      17.843  48.043  47.155  1.00  0.00     0.210 C 
ENDBRANCH   9  41
TORSDOF 6
ENDMDL
MODEL 3
REMARK VINA RESULT:     -10.6      4.427     11.432
REMARK  6 active torsions:
REMARK  status: ('A' for Active; 'I' for Inactive)
REMARK    1  A    between atoms: O_2  and  C_3 
REMARK    2  A    between atoms: C_6  and  N_7 
REMARK    3  A    between atoms: C_14  and  C_15 
REMARK       I    between atoms: C_15  and  N_16 
REMARK    4  A    between atoms: N_16  and  C_17 
REMARK    5  A    between atoms: C_20  and  C_21 
REMARK    6  A    between atoms: C_34  and  O_35 
ROOT
HETATM    1  N   UNL     1      26.955  42.949  51.807  1.00  0.00    -0.336 N 
HETATM    2  H   UNL     1      26.358  43.790  51.779  1.00  0.00     0.168 HD
HETATM    3  C   UNL     1      26.652  42.017  50.975  1.00  0.00     0.164 A 
HETATM    4  O   UNL     1      27.527  40.966  50.896  1.00  0.00    -0.289 OA
HETATM    5  C   UNL     1      27.367  39.941  49.942  1.00  0.00     0.121 A 
HETATM    6  C   UNL     1      26.310  39.998  49.040  1.00  0.00     0.002 A 
HETATM    7  C   UNL     1      25.358  41.101  49.122  1.00  0.00     0.035 A 
HETATM    8  C   UNL     1      25.473  42.055  50.062  1.00  0.00     0.084 A 
HETATM    9  C   UNL     1      28.305  38.901  49.938  1.00  0.00     0.102 A 
HETATM   10  C   UNL     1      28.165  37.893  48.984  1.00  0.00     0.040 A 
HETATM   11  C   UNL     1      27.111  37.937  48.063  1.00  0.00     0.004 A 
HETATM   12  C   UNL     1      26.185  38.984  48.091  1.00  0.00     0.014 A 
ENDROOT
BRANCH   8  13
HETATM   13  C   UNL     1      24.503  43.205  50.187  1.00  0.00     0.260 C 
HETATM   14  N   UNL     1      24.600  44.207  49.256  1.00  0.00    -0.323 N 
HETATM   15  H   UNL     1      25.296  44.135  48.527  1.00  0.00     0.169 HD
HETATM   16  O   UNL     1      23.684  43.123  51.103  1.00  0.00    -0.267 OA
BRANCH  14  17
HETATM   17  C   UNL     1      23.836  45.393  49.175  1.00  0.00     0.035 A 
HETATM   18  C   UNL     1      24.270  46.650  49.593  1.00  0.00     0.030 A 
HETATM   19  C   UNL     1      23.436  47.774  49.457  1.00  0.00     0.017 A 
HETATM   20  C   UNL     1      22.163  47.656  48.887  1.00  0.00     0.010 A 
HETATM   21  C   UNL     1      21.737  46.393  48.466  1.00  0.00     0.017 A 
HETATM   22  C   UNL     1      22.557  45.273  48.618  1.00  0.00     0.030 A 
BRANCH  20  23
HETATM   23  C   UNL     1      21.275  48.802  48.688  1.00  0.00     0.139 A 
HETATM   24  N   UNL     1      20.617  49.072  47.575  1.00  0.00    -0.228 NA
HETATM   25  C   UNL     1      19.885  50.205  47.829  1.00  0.00     0.086 A 
HETATM   26  C   UNL     1      20.076  50.633  49.136  1.00  0.00     0.062 A 
HETATM   27  C   UNL     1      19.022  50.923  46.990  1.00  0.00     0.034 A 
HETATM   28  N   UNL     1      20.968  49.730  49.657  1.00  0.00    -0.338 N 
HETATM   29  C   UNL     1      19.436  51.749  49.678  1.00  0.00     0.032 A 
HETATM   30  H   UNL     1      21.310  49.724  50.605  1.00  0.00     0.167 HD
HETATM   31  C   UNL     1      18.574  52.452  48.828  1.00  0.00     0.002 A 
HETATM   32  C   UNL     1      18.371  52.051  47.504  1.00  0.00     0.002 A 
ENDBRANCH  20  23
ENDBRANCH  14  17
ENDBRANCH   8  13
BRANCH   1  33
HETATM   33  C   UNL     1      28.040  43.035  52.703  1.00  0.00     0.034 A 
HETATM   34  C   UNL     1      27.812  43.738  53.897  1.00  0.00     0.032 A 
HETATM   35  C   UNL     1      28.838  43.900  54.841  1.00  0.00     0.039 A 
HETATM   36  C   UNL     1      30.094  43.345  54.612  1.00  0.00     0.068 A 
HETATM   37  C   UNL     1      30.307  42.610  53.445  1.00  0.00     0.039 A 
HETATM   38  C   UNL     1      29.291  42.449  52.496  1.00  0.00     0.032 A 
BRANCH  36  39
HETATM   39  O   UNL     1      31.178  43.429  55.435  1.00  0.00    -0.356 OA
HETATM   40  C   UNL     1      31.048  44.224  56.609  1.00  0.00     0.210 C 
ENDBRANCH  36  39
ENDBRANCH   1  33
BRANCH   9  41
HETATM   41  O   UNL     1      29.284  38.973  50.890  1.00  0.00    -0.353 OA
HETATM   42  C   UNL     1      30.098  37.818  51.068  1.00  0.00     0.210 C 
ENDBRANCH   9  41
TORSDOF 6
ENDMDL
MODEL 4
REMARK VINA RESULT:     -10.1      7.045     11.325
REMARK  6 active torsions:
REMARK  status: ('A' for Active; 'I' for Inactive)
REMARK    1  A    between atoms: O_2  and  C_3 
REMARK    2  A    between atoms: C_6  and  N_7 
REMARK    3  A    between atoms: C_14  and  C_15 
REMARK       I    between atoms: C_15  and  N_16 
REMARK    4  A    between atoms: N_16  and  C_17 
REMARK    5  A    between atoms: C_20  and  C_21 
REMARK    6  A    between atoms: C_34  and  O_35 
ROOT
HETATM    1  N   UNL     1      26.835  43.983  50.959  1.00  0.00    -0.336 N 
HETATM    2  H   UNL     1      26.727  43.270  50.222  1.00  0.00     0.168 HD
HETATM    3  C   UNL     1      27.554  43.642  51.969  1.00  0.00     0.164 A 
HETATM    4  O   UNL     1      27.832  44.630  52.878  1.00  0.00    -0.289 OA
HETATM    5  C   UNL     1      28.702  44.411  53.963  1.00  0.00     0.121 A 
HETATM    6  C   UNL     1      29.317  43.172  54.116  1.00  0.00     0.002 A 
HETATM    7  C   UNL     1      29.018  42.105  53.168  1.00  0.00     0.035 A 
HETATM    8  C   UNL     1      28.149  42.288  52.159  1.00  0.00     0.084 A 
HETATM    9  C   UNL     1      28.923  45.474  54.848  1.00  0.00     0.102 A 
HETATM   10  C   UNL     1      29.799  45.272  55.914  1.00  0.00     0.040 A 
HETATM   11  C   UNL     1      30.432  44.035  56.080  1.00  0.00     0.004 A 
HETATM   12  C   UNL     1      30.192  42.987  55.186  1.00  0.00     0.014 A 
ENDROOT
BRANCH   8  13
HETATM   13  C   UNL     1      27.805  41.205  51.165  1.00  0.00     0.260 C 
HETATM   14  N   UNL     1      28.783  40.841  50.275  1.00  0.00    -0.323 N 
HETATM   15  H   UNL     1      29.685  41.295  50.323  1.00  0.00     0.169 HD
HETATM   16  O   UNL     1      26.678  40.719  51.266  1.00  0.00    -0.267 OA
BRANCH  14  17
HETATM   17  C   UNL     1      28.700  39.885  49.238  1.00  0.00     0.035 A 
HETATM   18  C   UNL     1      28.094  40.102  48.001  1.00  0.00     0.030 A 
HETATM   19  C   UNL     1      28.076  39.087  47.028  1.00  0.00     0.017 A 
HETATM   20  C   UNL     1      28.678  37.847  47.276  1.00  0.00     0.010 A 
HETATM   21  C   UNL     1      29.288  37.640  48.516  1.00  0.00     0.017 A 
HETATM   22  C   UNL     1      29.289  38.641  49.490  1.00  0.00     0.030 A 
BRANCH  20  23
HETATM   23  C   UNL     1      28.720  36.775  46.282  1.00  0.00     0.139 A 
HETATM   24  N   UNL     1      29.383  36.818  45.140  1.00  0.00    -0.228 NA
HETATM   25  C   UNL     1      29.180  35.604  44.534  1.00  0.00     0.086 A 
HETATM   26  C   UNL     1      28.393  34.781  45.328  1.00  0.00     0.062 A 
HETATM   27  C   UNL     1      29.648  35.128  43.301  1.00  0.00     0.034 A 
HETATM   28  N   UNL     1      28.108  35.550  46.427  1.00  0.00    -0.338 N 
HETATM   29  C   UNL     1      28.046  33.477  44.971  1.00  0.00     0.032 A 
HETATM   30  H   UNL     1      27.573  35.252  47.228  1.00  0.00     0.167 HD
HETATM   31  C   UNL     1      28.526  33.015  43.740  1.00  0.00     0.002 A 
HETATM   32  C   UNL     1      29.311  33.825  42.914  1.00  0.00     0.002 A 
ENDBRANCH  20  23
ENDBRANCH  14  17
ENDBRANCH   8  13
BRANCH   1  33
HETATM   33  C   UNL     1      26.235  45.224  50.663  1.00  0.00     0.034 A 
HETATM   34  C   UNL     1      26.995  46.118  49.891  1.00  0.00     0.032 A 
HETATM   35  C   UNL     1      26.495  47.389  49.565  1.00  0.00     0.039 A 
HETATM   36  C   UNL     1      25.224  47.770  49.988  1.00  0.00     0.068 A 
HETATM   37  C   UNL     1      24.453  46.865  50.718  1.00  0.00     0.039 A 
HETATM   38  C   UNL     1      24.948  45.599  51.053  1.00  0.00     0.032 A 
BRANCH  36  39
HETATM   39  O   UNL     1      24.618  48.968  49.750  1.00  0.00    -0.356 OA
HETATM   40  C   UNL     1      24.671  49.475  48.420  1.00  0.00     0.210 C 
ENDBRANCH  36  39
ENDBRANCH   1  33
BRANCH   9  41
HETATM   41  O   UNL     1      28.242  46.630  54.577  1.00  0.00    -0.353 OA
HETATM   42  C   UNL     1      27.540  47.234  55.659  1.00  0.00     0.210 C 
ENDBRANCH   9  41
TORSDOF 6
ENDMDL
MODEL 5
REMARK VINA RESULT:      -9.1      3.718     12.351
REMARK  6 active torsions:
REMARK  status: ('A' for Active; 'I' for Inactive)
REMARK    1  A    between atoms: O_2  and  C_3 
REMARK    2  A    between atoms: C_6  and  N_7 
REMARK    3  A    between atoms: C_14  and  C_15 
REMARK       I    between atoms: C_15  and  N_16 
REMARK    4  A    between atoms: N_16  and  C_17 
REMARK    5  A    between atoms: C_20  and  C_21 
REMARK    6  A    between atoms: C_34  and  O_35 
ROOT
HETATM    1  N   UNL     1      25.462  43.943  49.982  1.00  0.00    -0.336 N 
HETATM    2  H   UNL     1      24.686  44.163  49.339  1.00  0.00     0.168 HD
HETATM    3  C   UNL     1      25.732  44.839  50.863  1.00  0.00     0.164 A 
HETATM    4  O   UNL     1      26.654  44.494  51.817  1.00  0.00    -0.289 OA
HETATM    5  C   UNL     1      26.949  45.345  52.901  1.00  0.00     0.121 A 
HETATM    6  C   UNL     1      26.281  46.559  53.028  1.00  0.00     0.002 A 
HETATM    7  C   UNL     1      25.310  46.949  52.010  1.00  0.00     0.035 A 
HETATM    8  C   UNL     1      25.060  46.168  50.945  1.00  0.00     0.084 A 
HETATM    9  C   UNL     1      27.910  44.916  53.825  1.00  0.00     0.102 A 
HETATM   10  C   UNL     1      28.193  45.742  54.911  1.00  0.00     0.040 A 
HETATM   11  C   UNL     1      27.526  46.964  55.059  1.00  0.00     0.004 A 
HETATM   12  C   UNL     1      26.574  47.373  54.120  1.00  0.00     0.014 A 
ENDROOT
BRANCH   8  13
HETATM   13  C   UNL     1      24.073  46.542  49.867  1.00  0.00     0.260 C 
HETATM   14  N   UNL     1      23.374  47.710  50.038  1.00  0.00    -0.323 N 
HETATM   15  H   UNL     1      23.551  48.273  50.858  1.00  0.00     0.169 HD
HETATM   16  O   UNL     1      24.006  45.774  48.906  1.00  0.00    -0.267 OA
BRANCH  14  17
HETATM   17  C   UNL     1      22.382  48.260  49.195  1.00  0.00     0.035 A 
HETATM   18  C   UNL     1      21.345  47.535  48.608  1.00  0.00     0.030 A 
HETATM   19  C   UNL     1      20.397  48.179  47.794  1.00  0.00     0.017 A 
HETATM   20  C   UNL     1      20.467  49.559  47.568  1.00  0.00     0.010 A 
HETATM   21  C   UNL     1      21.507  50.279  48.163  1.00  0.00     0.017 A 
HETATM   22  C   UNL     1      22.460  49.637  48.958  1.00  0.00     0.030 A 
BRANCH  20  23
HETATM   23  C   UNL     1      19.483  50.280  46.760  1.00  0.00     0.139 A 
HETATM   24  N   UNL     1      19.329  50.155  45.454  1.00  0.00    -0.228 NA
HETATM   25  C   UNL     1      18.286  50.978  45.112  1.00  0.00     0.086 A 
HETATM   26  C   UNL     1      17.766  51.610  46.234  1.00  0.00     0.062 A 
HETATM   27  C   UNL     1      17.718  51.231  43.856  1.00  0.00     0.034 A 
HETATM   28  N   UNL     1      18.548  51.156  47.266  1.00  0.00    -0.338 N 
HETATM   29  C   UNL     1      16.681  52.487  46.186  1.00  0.00     0.032 A 
HETATM   30  H   UNL     1      18.431  51.393  48.238  1.00  0.00     0.167 HD
HETATM   31  C   UNL     1      16.122  52.724  44.925  1.00  0.00     0.002 A 
HETATM   32  C   UNL     1      16.632  52.111  43.776  1.00  0.00     0.002 A 
ENDBRANCH  20  23
ENDBRANCH  14  17
ENDBRANCH   8  13
BRANCH   1  33
HETATM   33  C   UNL     1      26.013  42.657  49.812  1.00  0.00     0.034 A 
HETATM   34  C   UNL     1      25.506  41.643  50.641  1.00  0.00     0.032 A 
HETATM   35  C   UNL     1      26.008  40.335  50.566  1.00  0.00     0.039 A 
HETATM   36  C   UNL     1      27.006  40.021  49.647  1.00  0.00     0.068 A 
HETATM   37  C   UNL     1      27.479  41.018  48.794  1.00  0.00     0.039 A 
HETATM   38  C   UNL     1      26.988  42.327  48.868  1.00  0.00     0.032 A 
BRANCH  36  39
HETATM   39  O   UNL     1      27.587  38.800  49.470  1.00  0.00    -0.356 OA
HETATM   40  C   UNL     1      28.889  38.611  50.014  1.00  0.00     0.210 C 
ENDBRANCH  36  39
ENDBRANCH   1  33
BRANCH   9  41
HETATM   41  O   UNL     1      28.491  43.704  53.566  1.00  0.00    -0.353 OA
HETATM   42  C   UNL     1      29.400  43.203  54.541  1.00  0.00     0.210 C 
ENDBRANCH   9  41
TORSDOF 6
ENDMDL
MODEL 6
REMARK VINA RESULT:      -9.1     14.375     18.992
REMARK  6 active torsions:
REMARK  status: ('A' for Active; 'I' for Inactive)
REMARK    1  A    between atoms: O_2  and  C_3 
REMARK    2  A    between atoms: C_6  and  N_7 
REMARK    3  A    between atoms: C_14  and  C_15 
REMARK       I    between atoms: C_15  and  N_16 
REMARK    4  A    between atoms: N_16  and  C_17 
REMARK    5  A    between atoms: C_20  and  C_21 
REMARK    6  A    between atoms: C_34  and  O_35 
ROOT
HETATM    1  N   UNL     1      38.228  49.932  43.720  1.00  0.00    -0.336 N 
HETATM    2  H   UNL     1      37.434  49.508  43.217  1.00  0.00     0.168 HD
HETATM    3  C   UNL     1      38.069  51.153  44.092  1.00  0.00     0.164 A 
HETATM    4  O   UNL     1      39.050  51.675  44.893  1.00  0.00    -0.289 OA
HETATM    5  C   UNL     1      38.935  52.961  45.459  1.00  0.00     0.121 A 
HETATM    6  C   UNL     1      37.792  53.719  45.222  1.00  0.00     0.002 A 
HETATM    7  C   UNL     1      36.746  53.184  44.357  1.00  0.00     0.035 A 
HETATM    8  C   UNL     1      36.871  51.980  43.770  1.00  0.00     0.084 A 
HETATM    9  C   UNL     1      39.989  53.419  46.258  1.00  0.00     0.102 A 
HETATM   10  C   UNL     1      39.874  54.682  46.839  1.00  0.00     0.040 A 
HETATM   11  C   UNL     1      38.729  55.456  46.618  1.00  0.00     0.004 A 
HETATM   12  C   UNL     1      37.692  54.979  45.811  1.00  0.00     0.014 A 
ENDROOT
BRANCH   8  13
HETATM   13  C   UNL     1      35.817  51.399  42.861  1.00  0.00     0.260 C 
HETATM   14  N   UNL     1      34.507  51.642  43.186  1.00  0.00    -0.323 N 
HETATM   15  H   UNL     1      34.299  52.202  44.002  1.00  0.00     0.169 HD
HETATM   16  O   UNL     1      36.232  50.779  41.881  1.00  0.00    -0.267 OA
BRANCH  14  17
HETATM   17  C   UNL     1      33.347  51.187  42.519  1.00  0.00     0.035 A 
HETATM   18  C   UNL     1      32.375  50.363  43.084  1.00  0.00     0.030 A 
HETATM   19  C   UNL     1      31.248  49.975  42.339  1.00  0.00     0.017 A 
HETATM   20  C   UNL     1      31.073  50.420  41.023  1.00  0.00     0.010 A 
HETATM   21  C   UNL     1      32.050  51.249  40.465  1.00  0.00     0.017 A 
HETATM   22  C   UNL     1      33.179  51.619  41.198  1.00  0.00     0.030 A 
BRANCH  20  23
HETATM   23  C   UNL     1      29.899  50.076  40.220  1.00  0.00     0.139 A 
HETATM   24  N   UNL     1      29.020  50.940  39.746  1.00  0.00    -0.228 NA
HETATM   25  C   UNL     1      28.108  50.205  39.030  1.00  0.00     0.086 A 
HETATM   26  C   UNL     1      28.443  48.858  39.042  1.00  0.00     0.062 A 
HETATM   27  C   UNL     1      26.968  50.625  38.331  1.00  0.00     0.034 A 
HETATM   28  N   UNL     1      29.578  48.801  39.810  1.00  0.00    -0.338 N 
HETATM   29  C   UNL     1      27.705  47.879  38.374  1.00  0.00     0.032 A 
HETATM   30  H   UNL     1      30.112  47.969  40.007  1.00  0.00     0.167 HD
HETATM   31  C   UNL     1      26.572  48.316  37.676  1.00  0.00     0.002 A 
HETATM   32  C   UNL     1      26.205  49.664  37.656  1.00  0.00     0.002 A 
ENDBRANCH  20  23
ENDBRANCH  14  17
ENDBRANCH   8  13
BRANCH   1  33
HETATM   33  C   UNL     1      39.298  49.050  43.971  1.00  0.00     0.034 A 
HETATM   34  C   UNL     1      39.021  47.949  44.797  1.00  0.00     0.032 A 
HETATM   35  C   UNL     1      40.027  47.027  45.127  1.00  0.00     0.039 A 
HETATM   36  C   UNL     1      41.313  47.185  44.617  1.00  0.00     0.068 A 
HETATM   37  C   UNL     1      41.577  48.254  43.761  1.00  0.00     0.039 A 
HETATM   38  C   UNL     1      40.580  49.181  43.434  1.00  0.00     0.032 A 
BRANCH  36  39
HETATM   39  O   UNL     1      42.383  46.374  44.858  1.00  0.00    -0.356 OA
HETATM   40  C   UNL     1      42.343  45.568  46.031  1.00  0.00     0.210 C 
ENDBRANCH  36  39
ENDBRANCH   1  33
BRANCH   9  41
HETATM   41  O   UNL     1      41.052  52.568  46.393  1.00  0.00    -0.353 OA
HETATM   42  C   UNL     1      42.303  53.149  46.747  1.00  0.00     0.210 C 
ENDBRANCH   9  41
TORSDOF 6
ENDMDL
MODEL 7
REMARK VINA RESULT:      -9.1      8.227      9.885
REMARK  6 active torsions:
REMARK  status: ('A' for Active; 'I' for Inactive)
REMARK    1  A    between atoms: O_2  and  C_3 
REMARK    2  A    between atoms: C_6  and  N_7 
REMARK    3  A    between atoms: C_14  and  C_15 
REMARK       I    between atoms: C_15  and  N_16 
REMARK    4  A    between atoms: N_16  and  C_17 
REMARK    5  A    between atoms: C_20  and  C_21 
REMARK    6  A    between atoms: C_34  and  O_35 
ROOT
HETATM    1  N   UNL     1      28.015  40.376  45.915  1.00  0.00    -0.336 N 
HETATM    2  H   UNL     1      28.392  41.053  46.596  1.00  0.00     0.168 HD
HETATM    3  C   UNL     1      27.425  39.348  46.414  1.00  0.00     0.164 A 
HETATM    4  O   UNL     1      26.788  38.523  45.524  1.00  0.00    -0.289 OA
HETATM    5  C   UNL     1      26.011  37.430  45.956  1.00  0.00     0.121 A 
HETATM    6  C   UNL     1      25.863  37.184  47.318  1.00  0.00     0.002 A 
HETATM    7  C   UNL     1      26.550  38.042  48.277  1.00  0.00     0.035 A 
HETATM    8  C   UNL     1      27.336  39.055  47.873  1.00  0.00     0.084 A 
HETATM    9  C   UNL     1      25.402  36.634  44.978  1.00  0.00     0.102 A 
HETATM   10  C   UNL     1      24.615  35.563  45.398  1.00  0.00     0.040 A 
HETATM   11  C   UNL     1      24.449  35.304  46.764  1.00  0.00     0.004 A 
HETATM   12  C   UNL     1      25.072  36.109  47.722  1.00  0.00     0.014 A 
ENDROOT
BRANCH   8  13
HETATM   13  C   UNL     1      28.071  39.957  48.834  1.00  0.00     0.260 C 
HETATM   14  N   UNL     1      27.425  40.291  49.997  1.00  0.00    -0.323 N 
HETATM   15  H   UNL     1      26.501  39.918  50.170  1.00  0.00     0.169 HD
HETATM   16  O   UNL     1      29.209  40.289  48.500  1.00  0.00    -0.267 OA
BRANCH  14  17
HETATM   17  C   UNL     1      27.882  41.135  51.033  1.00  0.00     0.035 A 
HETATM   18  C   UNL     1      27.617  42.501  51.123  1.00  0.00     0.030 A 
HETATM   19  C   UNL     1      28.108  43.254  52.204  1.00  0.00     0.017 A 
HETATM   20  C   UNL     1      28.860  42.645  53.217  1.00  0.00     0.010 A 
HETATM   21  C   UNL     1      29.118  41.275  53.122  1.00  0.00     0.017 A 
HETATM   22  C   UNL     1      28.646  40.530  52.038  1.00  0.00     0.030 A 
BRANCH  20  23
HETATM   23  C   UNL     1      29.360  43.377  54.381  1.00  0.00     0.139 A 
HETATM   24  N   UNL     1      28.857  44.507  54.844  1.00  0.00    -0.228 NA
HETATM   25  C   UNL     1      29.597  44.827  55.955  1.00  0.00     0.086 A 
HETATM   26  C   UNL     1      30.564  43.860  56.199  1.00  0.00     0.062 A 
HETATM   27  C   UNL     1      29.492  45.928  56.816  1.00  0.00     0.034 A 
HETATM   28  N   UNL     1      30.397  42.956  55.182  1.00  0.00    -0.338 N 
HETATM   29  C   UNL     1      31.446  43.915  57.281  1.00  0.00     0.032 A 
HETATM   30  H   UNL     1      30.921  42.103  55.065  1.00  0.00     0.167 HD
HETATM   31  C   UNL     1      31.324  45.019  58.133  1.00  0.00     0.002 A 
HETATM   32  C   UNL     1      30.367  46.012  57.906  1.00  0.00     0.002 A 
ENDBRANCH  20  23
ENDBRANCH  14  17
ENDBRANCH   8  13
BRANCH   1  33
HETATM   33  C   UNL     1      28.153  40.765  44.567  1.00  0.00     0.034 A 
HETATM   34  C   UNL     1      29.279  40.276  43.886  1.00  0.00     0.032 A 
HETATM   35  C   UNL     1      29.518  40.628  42.548  1.00  0.00     0.039 A 
HETATM   36  C   UNL     1      28.625  41.456  41.873  1.00  0.00     0.068 A 
HETATM   37  C   UNL     1      27.485  41.908  42.537  1.00  0.00     0.039 A 
HETATM   38  C   UNL     1      27.243  41.565  43.873  1.00  0.00     0.032 A 
BRANCH  36  39
HETATM   39  O   UNL     1      28.736  41.882  40.582  1.00  0.00    -0.356 OA
HETATM   40  C   UNL     1      27.741  42.780  40.102  1.00  0.00     0.210 C 
ENDBRANCH  36  39
ENDBRANCH   1  33
BRANCH   9  41
HETATM   41  O   UNL     1      25.644  36.991  43.680  1.00  0.00    -0.353 OA
HETATM   42  C   UNL     1      25.642  35.946  42.712  1.00  0.00     0.210 C 
ENDBRANCH   9  41
TORSDOF 6
ENDMDL
MODEL 8
REMARK VINA RESULT:      -8.8      2.224      5.463
REMARK  6 active torsions:
REMARK  status: ('A' for Active; 'I' for Inactive)
REMARK    1  A    between atoms: O_2  and  C_3 
REMARK    2  A    between atoms: C_6  and  N_7 
REMARK    3  A    between atoms: C_14  and  C_15 
REMARK       I    between atoms: C_15  and  N_16 
REMARK    4  A    between atoms: N_16  and  C_17 
REMARK    5  A    between atoms: C_20  and  C_21 
REMARK    6  A    between atoms: C_34  and  O_35 
ROOT
HETATM    1  N   UNL     1      22.744  44.078  47.258  1.00  0.00    -0.336 N 
HETATM    2  H   UNL     1      23.580  43.735  47.755  1.00  0.00     0.168 HD
HETATM    3  C   UNL     1      22.318  45.239  47.611  1.00  0.00     0.164 A 
HETATM    4  O   UNL     1      21.306  45.770  46.855  1.00  0.00    -0.289 OA
HETATM    5  C   UNL     1      20.833  47.079  47.069  1.00  0.00     0.121 A 
HETATM    6  C   UNL     1      21.413  47.870  48.057  1.00  0.00     0.002 A 
HETATM    7  C   UNL     1      22.479  47.313  48.883  1.00  0.00     0.035 A 
HETATM    8  C   UNL     1      22.902  46.047  48.721  1.00  0.00     0.084 A 
HETATM    9  C   UNL     1      19.790  47.539  46.255  1.00  0.00     0.102 A 
HETATM   10  C   UNL     1      19.330  48.841  46.447  1.00  0.00     0.040 A 
HETATM   11  C   UNL     1      19.906  49.653  47.431  1.00  0.00     0.004 A 
HETATM   12  C   UNL     1      20.942  49.170  48.236  1.00  0.00     0.014 A 
ENDROOT
BRANCH   8  13
HETATM   13  C   UNL     1      23.993  45.432  49.562  1.00  0.00     0.260 C 
HETATM   14  N   UNL     1      24.391  46.128  50.674  1.00  0.00    -0.323 N 
HETATM   15  H   UNL     1      23.940  47.006  50.892  1.00  0.00     0.169 HD
HETATM   16  O   UNL     1      24.408  44.334  49.188  1.00  0.00    -0.267 OA
BRANCH  14  17
HETATM   17  C   UNL     1      25.404  45.783  51.598  1.00  0.00     0.035 A 
HETATM   18  C   UNL     1      26.347  44.774  51.406  1.00  0.00     0.030 A 
HETATM   19  C   UNL     1      27.325  44.518  52.383  1.00  0.00     0.017 A 
HETATM   20  C   UNL     1      27.380  45.277  53.558  1.00  0.00     0.010 A 
HETATM   21  C   UNL     1      26.434  46.289  53.741  1.00  0.00     0.017 A 
HETATM   22  C   UNL     1      25.450  46.533  52.779  1.00  0.00     0.030 A 
BRANCH  20  23
HETATM   23  C   UNL     1      28.402  45.074  54.585  1.00  0.00     0.139 A 
HETATM   24  N   UNL     1      28.553  45.816  55.667  1.00  0.00    -0.228 NA
HETATM   25  C   UNL     1      29.596  45.264  56.367  1.00  0.00     0.086 A 
HETATM   26  C   UNL     1      30.086  44.139  55.716  1.00  0.00     0.062 A 
HETATM   27  C   UNL     1      30.176  45.664  57.578  1.00  0.00     0.034 A 
HETATM   28  N   UNL     1      29.317  44.045  54.585  1.00  0.00    -0.338 N 
HETATM   29  C   UNL     1      31.134  43.361  56.214  1.00  0.00     0.032 A 
HETATM   30  H   UNL     1      29.384  43.318  53.889  1.00  0.00     0.167 HD
HETATM   31  C   UNL     1      31.698  43.773  57.427  1.00  0.00     0.002 A 
HETATM   32  C   UNL     1      31.232  44.907  58.099  1.00  0.00     0.002 A 
ENDBRANCH  20  23
ENDBRANCH  14  17
ENDBRANCH   8  13
BRANCH   1  33
HETATM   33  C   UNL     1      22.290  43.231  46.227  1.00  0.00     0.034 A 
HETATM   34  C   UNL     1      22.944  43.344  44.989  1.00  0.00     0.032 A 
HETATM   35  C   UNL     1      22.547  42.562  43.893  1.00  0.00     0.039 A 
HETATM   36  C   UNL     1      21.508  41.645  44.029  1.00  0.00     0.068 A 
HETATM   37  C   UNL     1      20.887  41.502  45.270  1.00  0.00     0.039 A 
HETATM   38  C   UNL     1      21.273  42.284  46.365  1.00  0.00     0.032 A 
BRANCH  36  39
HETATM   39  O   UNL     1      21.018  40.829  43.052  1.00  0.00    -0.356 OA
HETATM   40  C   UNL     1      19.691  40.339  43.214  1.00  0.00     0.210 C 
ENDBRANCH  36  39
ENDBRANCH   1  33
BRANCH   9  41
HETATM   41  O   UNL     1      19.313  46.647  45.333  1.00  0.00    -0.353 OA
HETATM   42  C   UNL     1      18.597  47.184  44.226  1.00  0.00     0.210 C 
ENDBRANCH   9  41
TORSDOF 6
ENDMDL
MODEL 9
REMARK VINA RESULT:      -8.8      4.089     12.242
REMARK  6 active torsions:
REMARK  status: ('A' for Active; 'I' for Inactive)
REMARK    1  A    between atoms: O_2  and  C_3 
REMARK    2  A    between atoms: C_6  and  N_7 
REMARK    3  A    between atoms: C_14  and  C_15 
REMARK       I    between atoms: C_15  and  N_16 
REMARK    4  A    between atoms: N_16  and  C_17 
REMARK    5  A    between atoms: C_20  and  C_21 
REMARK    6  A    between atoms: C_34  and  O_35 
ROOT
HETATM    1  N   UNL     1      26.071  42.696  50.353  1.00  0.00    -0.336 N 
HETATM    2  H   UNL     1      25.145  42.960  49.981  1.00  0.00     0.168 HD
HETATM    3  C   UNL     1      26.521  43.426  51.311  1.00  0.00     0.164 A 
HETATM    4  O   UNL     1      27.673  42.994  51.913  1.00  0.00    -0.289 OA
HETATM    5  C   UNL     1      28.202  43.643  53.046  1.00  0.00     0.121 A 
HETATM    6  C   UNL     1      27.536  44.739  53.588  1.00  0.00     0.002 A 
HETATM    7  C   UNL     1      26.318  45.223  52.947  1.00  0.00     0.035 A 
HETATM    8  C   UNL     1      25.834  44.642  51.835  1.00  0.00     0.084 A 
HETATM    9  C   UNL     1      29.388  43.138  53.594  1.00  0.00     0.102 A 
HETATM   10  C   UNL     1      29.908  43.763  54.727  1.00  0.00     0.040 A 
HETATM   11  C   UNL     1      29.248  44.862  55.290  1.00  0.00     0.004 A 
HETATM   12  C   UNL     1      28.068  45.351  54.722  1.00  0.00     0.014 A 
ENDROOT
BRANCH   8  13
HETATM   13  C   UNL     1      24.585  45.121  51.137  1.00  0.00     0.260 C 
HETATM   14  N   UNL     1      24.692  46.254  50.372  1.00  0.00    -0.323 N 
HETATM   15  H   UNL     1      25.589  46.713  50.296  1.00  0.00     0.169 HD
HETATM   16  O   UNL     1      23.580  44.425  51.292  1.00  0.00    -0.267 OA
BRANCH  14  17
HETATM   17  C   UNL     1      23.672  46.914  49.651  1.00  0.00     0.035 A 
HETATM   18  C   UNL     1      23.519  48.298  49.574  1.00  0.00     0.030 A 
HETATM   19  C   UNL     1      22.475  48.859  48.816  1.00  0.00     0.017 A 
HETATM   20  C   UNL     1      21.580  48.042  48.116  1.00  0.00     0.010 A 
HETATM   21  C   UNL     1      21.743  46.656  48.195  1.00  0.00     0.017 A 
HETATM   22  C   UNL     1      22.768  46.097  48.962  1.00  0.00     0.030 A 
BRANCH  20  23
HETATM   23  C   UNL     1      20.503  48.578  47.283  1.00  0.00     0.139 A 
HETATM   24  N   UNL     1      19.749  47.870  46.462  1.00  0.00    -0.228 NA
HETATM   25  C   UNL     1      18.853  48.750  45.910  1.00  0.00     0.086 A 
HETATM   26  C   UNL     1      19.040  50.029  46.419  1.00  0.00     0.062 A 
HETATM   27  C   UNL     1      17.838  48.526  44.970  1.00  0.00     0.034 A 
HETATM   28  N   UNL     1      20.098  49.894  47.282  1.00  0.00    -0.338 N 
HETATM   29  C   UNL     1      18.253  51.122  46.053  1.00  0.00     0.032 A 
HETATM   30  H   UNL     1      20.487  50.629  47.851  1.00  0.00     0.167 HD
HETATM   31  C   UNL     1      17.240  50.879  45.117  1.00  0.00     0.002 A 
HETATM   32  C   UNL     1      17.036  49.605  44.580  1.00  0.00     0.002 A 
ENDBRANCH  20  23
ENDBRANCH  14  17
ENDBRANCH   8  13
BRANCH   1  33
HETATM   33  C   UNL     1      26.615  41.527  49.784  1.00  0.00     0.034 A 
HETATM   34  C   UNL     1      26.170  40.306  50.317  1.00  0.00     0.032 A 
HETATM   35  C   UNL     1      26.673  39.087  49.835  1.00  0.00     0.039 A 
HETATM   36  C   UNL     1      27.607  39.075  48.802  1.00  0.00     0.068 A 
HETATM   37  C   UNL     1      28.016  40.287  48.244  1.00  0.00     0.039 A 
HETATM   38  C   UNL     1      27.524  41.506  48.724  1.00  0.00     0.032 A 
BRANCH  36  39
HETATM   39  O   UNL     1      28.181  37.971  48.244  1.00  0.00    -0.356 OA
HETATM   40  C   UNL     1      27.531  37.397  47.114  1.00  0.00     0.210 C 
ENDBRANCH  36  39
ENDBRANCH   1  33
BRANCH   9  41
HETATM   41  O   UNL     1      29.935  42.063  52.949  1.00  0.00    -0.353 OA
HETATM   42  C   UNL     1      29.142  40.881  52.879  1.00  0.00     0.210 C 
ENDBRANCH   9  41
TORSDOF 6
ENDMDL
