MODEL 1
REMARK VINA RESULT:      -8.4      0.000      0.000
REMARK  4 active torsions:
REMARK  status: ('A' for Active; 'I' for Inactive)
REMARK    1  A    between atoms: O_2  and  C_3 
REMARK    2  A    between atoms: C_5  and  N_6 
REMARK    3  A    between atoms: C_10  and  C_11 
REMARK    4  A    between atoms: C_22  and  O_23 
ROOT
HETATM    1  N   UNL     1      25.321  45.084  52.033  1.00  0.00    -0.315 N 
HETATM    2  C   UNL     1      25.957  46.264  51.635  1.00  0.00     0.225 C 
HETATM    3  O   UNL     1      26.242  46.635  50.506  1.00  0.00    -0.273 OA
HETATM    4  C   UNL     1      26.105  47.146  52.852  1.00  0.00     0.117 C 
HETATM    5  C   UNL     1      25.964  46.176  54.022  1.00  0.00     0.082 C 
HETATM    6  C   UNL     1      25.064  45.083  53.454  1.00  0.00     0.145 C 
ENDROOT
BRANCH   1   7
HETATM    7  C   UNL     1      24.970  44.002  51.179  1.00  0.00     0.073 A 
HETATM    8  C   UNL     1      23.742  44.030  50.498  1.00  0.00     0.069 A 
HETATM    9  C   UNL     1      23.380  43.028  49.589  1.00  0.00     0.070 A 
HETATM   10  C   UNL     1      24.232  41.947  49.385  1.00  0.00     0.039 A 
HETATM   11  C   UNL     1      25.446  41.882  50.068  1.00  0.00     0.042 A 
HETATM   12  C   UNL     1      25.815  42.892  50.968  1.00  0.00     0.095 A 
BRANCH   9  13
HETATM   13  O   UNL     1      22.179  43.220  48.962  1.00  0.00    -0.356 OA
HETATM   14  C   UNL     1      21.762  44.567  48.786  1.00  0.00     0.210 C 
ENDBRANCH   9  13
BRANCH  12  15
HETATM   15  O   UNL     1      27.003  42.801  51.653  1.00  0.00    -0.354 OA
HETATM   16  C   UNL     1      27.458  41.456  51.811  1.00  0.00     0.210 C 
ENDBRANCH  12  15
ENDBRANCH   1   7
BRANCH   5  17
HETATM   17  C   UNL     1      27.308  45.678  54.460  1.00  0.00     0.111 A 
HETATM   18  N   UNL     1      28.112  46.245  55.337  1.00  0.00    -0.233 NA
HETATM   19  C   UNL     1      29.137  45.354  55.538  1.00  0.00     0.085 A 
HETATM   20  C   UNL     1      28.975  44.227  54.743  1.00  0.00     0.062 A 
HETATM   21  C   UNL     1      30.236  45.430  56.406  1.00  0.00     0.034 A 
HETATM   22  N   UNL     1      27.820  44.470  54.046  1.00  0.00    -0.342 N 
HETATM   23  C   UNL     1      29.858  43.143  54.758  1.00  0.00     0.032 A 
HETATM   24  H   UNL     1      27.389  43.837  53.387  1.00  0.00     0.167 HD
HETATM   25  C   UNL     1      30.944  43.233  55.637  1.00  0.00     0.002 A 
HETATM   26  C   UNL     1      31.133  44.355  56.449  1.00  0.00     0.002 A 
ENDBRANCH   5  17
TORSDOF 4
ENDMDL
MODEL 2
REMARK VINA RESULT:      -8.0      3.215      7.400
REMARK  4 active torsions:
REMARK  status: ('A' for Active; 'I' for Inactive)
REMARK    1  A    between atoms: O_2  and  C_3 
REMARK    2  A    between atoms: C_5  and  N_6 
REMARK    3  A    between atoms: C_10  and  C_11 
REMARK    4  A    between atoms: C_22  and  O_23 
ROOT
HETATM    1  N   UNL     1      25.935  45.178  51.540  1.00  0.00    -0.315 N 
HETATM    2  C   UNL     1      26.482  44.992  50.267  1.00  0.00     0.225 C 
HETATM    3  O   UNL     1      27.659  44.942  49.940  1.00  0.00    -0.273 OA
HETATM    4  C   UNL     1      25.350  44.680  49.316  1.00  0.00     0.117 C 
HETATM    5  C   UNL     1      24.112  45.194  50.044  1.00  0.00     0.082 C 
HETATM    6  C   UNL     1      24.496  45.056  51.514  1.00  0.00     0.145 C 
ENDROOT
BRANCH   1   7
HETATM    7  C   UNL     1      26.670  45.463  52.725  1.00  0.00     0.073 A 
HETATM    8  C   UNL     1      26.638  46.761  53.261  1.00  0.00     0.069 A 
HETATM    9  C   UNL     1      27.281  47.078  54.464  1.00  0.00     0.070 A 
HETATM   10  C   UNL     1      28.015  46.100  55.127  1.00  0.00     0.039 A 
HETATM   11  C   UNL     1      28.084  44.809  54.603  1.00  0.00     0.042 A 
HETATM   12  C   UNL     1      27.428  44.488  53.405  1.00  0.00     0.095 A 
BRANCH   9  13
HETATM   13  O   UNL     1      27.116  48.369  54.887  1.00  0.00    -0.356 OA
HETATM   14  C   UNL     1      26.286  48.562  56.025  1.00  0.00     0.210 C 
ENDBRANCH   9  13
BRANCH  12  15
HETATM   15  O   UNL     1      27.526  43.219  52.888  1.00  0.00    -0.354 OA
HETATM   16  C   UNL     1      27.827  42.231  53.876  1.00  0.00     0.210 C 
ENDBRANCH  12  15
ENDBRANCH   1   7
BRANCH   5  17
HETATM   17  C   UNL     1      23.807  46.603  49.635  1.00  0.00     0.111 A 
HETATM   18  N   UNL     1      24.661  47.602  49.550  1.00  0.00    -0.233 NA
HETATM   19  C   UNL     1      23.969  48.642  48.980  1.00  0.00     0.085 A 
HETATM   20  C   UNL     1      22.649  48.283  48.739  1.00  0.00     0.062 A 
HETATM   21  C   UNL     1      24.410  49.923  48.617  1.00  0.00     0.034 A 
HETATM   22  N   UNL     1      22.564  46.991  49.190  1.00  0.00    -0.342 N 
HETATM   23  C   UNL     1      21.718  49.138  48.143  1.00  0.00     0.032 A 
HETATM   24  H   UNL     1      21.741  46.408  49.144  1.00  0.00     0.167 HD
HETATM   25  C   UNL     1      22.178  50.410  47.780  1.00  0.00     0.002 A 
HETATM   26  C   UNL     1      23.500  50.800  48.011  1.00  0.00     0.002 A 
ENDBRANCH   5  17
TORSDOF 4
ENDMDL
MODEL 3
REMARK VINA RESULT:      -8.0      0.850      2.712
REMARK  4 active torsions:
REMARK  status: ('A' for Active; 'I' for Inactive)
REMARK    1  A    between atoms: O_2  and  C_3 
REMARK    2  A    between atoms: C_5  and  N_6 
REMARK    3  A    between atoms: C_10  and  C_11 
REMARK    4  A    between atoms: C_22  and  O_23 
ROOT
HETATM    1  N   UNL     1      25.543  44.703  51.813  1.00  0.00    -0.315 N 
HETATM    2  C   UNL     1      26.132  45.908  51.418  1.00  0.00     0.225 C 
HETATM    3  O   UNL     1      26.474  46.262  50.299  1.00  0.00    -0.273 OA
HETATM    4  C   UNL     1      26.137  46.835  52.611  1.00  0.00     0.117 C 
HETATM    5  C   UNL     1      25.972  45.896  53.802  1.00  0.00     0.082 C 
HETATM    6  C   UNL     1      25.185  44.730  53.212  1.00  0.00     0.145 C 
ENDROOT
BRANCH   1   7
HETATM    7  C   UNL     1      25.322  43.574  50.976  1.00  0.00     0.073 A 
HETATM    8  C   UNL     1      26.250  42.520  50.980  1.00  0.00     0.069 A 
HETATM    9  C   UNL     1      26.045  41.354  50.232  1.00  0.00     0.070 A 
HETATM   10  C   UNL     1      24.919  41.249  49.423  1.00  0.00     0.039 A 
HETATM   11  C   UNL     1      23.994  42.291  49.381  1.00  0.00     0.042 A 
HETATM   12  C   UNL     1      24.193  43.453  50.141  1.00  0.00     0.095 A 
BRANCH   9  13
HETATM   13  O   UNL     1      27.008  40.393  50.379  1.00  0.00    -0.356 OA
HETATM   14  C   UNL     1      28.176  40.769  51.098  1.00  0.00     0.210 C 
ENDBRANCH   9  13
BRANCH  12  15
HETATM   15  O   UNL     1      23.286  44.483  50.069  1.00  0.00    -0.354 OA
HETATM   16  C   UNL     1      22.210  44.224  49.165  1.00  0.00     0.210 C 
ENDBRANCH  12  15
ENDBRANCH   1   7
BRANCH   5  17
HETATM   17  C   UNL     1      27.310  45.500  54.350  1.00  0.00     0.111 A 
HETATM   18  N   UNL     1      28.005  46.135  55.271  1.00  0.00    -0.233 NA
HETATM   19  C   UNL     1      29.070  45.321  55.568  1.00  0.00     0.085 A 
HETATM   20  C   UNL     1      29.045  44.172  54.789  1.00  0.00     0.062 A 
HETATM   21  C   UNL     1      30.092  45.488  56.514  1.00  0.00     0.034 A 
HETATM   22  N   UNL     1      27.932  44.323  54.002  1.00  0.00    -0.342 N 
HETATM   23  C   UNL     1      29.995  43.152  54.895  1.00  0.00     0.032 A 
HETATM   24  H   UNL     1      27.597  43.650  53.327  1.00  0.00     0.167 HD
HETATM   25  C   UNL     1      31.003  43.332  55.850  1.00  0.00     0.002 A 
HETATM   26  C   UNL     1      31.054  44.478  56.647  1.00  0.00     0.002 A 
ENDBRANCH   5  17
TORSDOF 4
ENDMDL
MODEL 4
REMARK VINA RESULT:      -7.9      1.731      3.360
REMARK  4 active torsions:
REMARK  status: ('A' for Active; 'I' for Inactive)
REMARK    1  A    between atoms: O_2  and  C_3 
REMARK    2  A    between atoms: C_5  and  N_6 
REMARK    3  A    between atoms: C_10  and  C_11 
REMARK    4  A    between atoms: C_22  and  O_23 
ROOT
HETATM    1  N   UNL     1      26.248  43.614  51.005  1.00  0.00    -0.315 N 
HETATM    2  C   UNL     1      26.724  44.845  50.543  1.00  0.00     0.225 C 
HETATM    3  O   UNL     1      27.217  45.116  49.458  1.00  0.00    -0.273 OA
HETATM    4  C   UNL     1      26.375  45.894  51.572  1.00  0.00     0.117 C 
HETATM    5  C   UNL     1      26.123  45.087  52.842  1.00  0.00     0.082 C 
HETATM    6  C   UNL     1      25.633  43.746  52.305  1.00  0.00     0.145 C 
ENDROOT
BRANCH   1   7
HETATM    7  C   UNL     1      26.350  42.373  50.316  1.00  0.00     0.073 A 
HETATM    8  C   UNL     1      27.441  41.528  50.575  1.00  0.00     0.069 A 
HETATM    9  C   UNL     1      27.553  40.265  49.980  1.00  0.00     0.070 A 
HETATM   10  C   UNL     1      26.587  39.848  49.070  1.00  0.00     0.039 A 
HETATM   11  C   UNL     1      25.506  40.679  48.776  1.00  0.00     0.042 A 
HETATM   12  C   UNL     1      25.387  41.938  49.382  1.00  0.00     0.095 A 
BRANCH   9  13
HETATM   13  O   UNL     1      28.642  39.534  50.371  1.00  0.00    -0.356 OA
HETATM   14  C   UNL     1      28.737  38.212  49.856  1.00  0.00     0.210 C 
ENDBRANCH   9  13
BRANCH  12  15
HETATM   15  O   UNL     1      24.330  42.756  49.063  1.00  0.00    -0.354 OA
HETATM   16  C   UNL     1      23.094  42.052  48.932  1.00  0.00     0.210 C 
ENDBRANCH  12  15
ENDBRANCH   1   7
BRANCH   5  17
HETATM   17  C   UNL     1      27.376  44.984  53.659  1.00  0.00     0.111 A 
HETATM   18  N   UNL     1      27.796  45.837  54.570  1.00  0.00    -0.233 NA
HETATM   19  C   UNL     1      28.886  45.249  55.163  1.00  0.00     0.085 A 
HETATM   20  C   UNL     1      29.160  44.019  54.580  1.00  0.00     0.062 A 
HETATM   21  C   UNL     1      29.683  45.699  56.225  1.00  0.00     0.034 A 
HETATM   22  N   UNL     1      28.203  43.885  53.608  1.00  0.00    -0.342 N 
HETATM   23  C   UNL     1      30.201  43.186  55.000  1.00  0.00     0.032 A 
HETATM   24  H   UNL     1      28.092  43.086  53.001  1.00  0.00     0.167 HD
HETATM   25  C   UNL     1      30.981  43.647  56.068  1.00  0.00     0.002 A 
HETATM   26  C   UNL     1      30.730  44.882  56.673  1.00  0.00     0.002 A 
ENDBRANCH   5  17
TORSDOF 4
ENDMDL
MODEL 5
REMARK VINA RESULT:      -7.7      2.585      6.988
REMARK  4 active torsions:
REMARK  status: ('A' for Active; 'I' for Inactive)
REMARK    1  A    between atoms: O_2  and  C_3 
REMARK    2  A    between atoms: C_5  and  N_6 
REMARK    3  A    between atoms: C_10  and  C_11 
REMARK    4  A    between atoms: C_22  and  O_23 
ROOT
HETATM    1  N   UNL     1      26.882  44.504  52.899  1.00  0.00    -0.315 N 
HETATM    2  C   UNL     1      25.568  44.057  53.069  1.00  0.00     0.225 C 
HETATM    3  O   UNL     1      24.918  43.969  54.101  1.00  0.00    -0.273 OA
HETATM    4  C   UNL     1      24.970  43.837  51.700  1.00  0.00     0.117 C 
HETATM    5  C   UNL     1      26.187  43.714  50.788  1.00  0.00     0.082 C 
HETATM    6  C   UNL     1      27.237  44.562  51.500  1.00  0.00     0.145 C 
ENDROOT
BRANCH   1   7
HETATM    7  C   UNL     1      27.782  44.851  53.944  1.00  0.00     0.073 A 
HETATM    8  C   UNL     1      28.778  43.939  54.329  1.00  0.00     0.069 A 
HETATM    9  C   UNL     1      29.736  44.258  55.300  1.00  0.00     0.070 A 
HETATM   10  C   UNL     1      29.676  45.492  55.941  1.00  0.00     0.039 A 
HETATM   11  C   UNL     1      28.682  46.407  55.595  1.00  0.00     0.042 A 
HETATM   12  C   UNL     1      27.732  46.092  54.613  1.00  0.00     0.095 A 
BRANCH   9  13
HETATM   13  O   UNL     1      30.674  43.290  55.530  1.00  0.00    -0.356 OA
HETATM   14  C   UNL     1      31.407  43.392  56.744  1.00  0.00     0.210 C 
ENDBRANCH   9  13
BRANCH  12  15
HETATM   15  O   UNL     1      26.742  46.993  54.301  1.00  0.00    -0.354 OA
HETATM   16  C   UNL     1      26.569  48.003  55.297  1.00  0.00     0.210 C 
ENDBRANCH  12  15
ENDBRANCH   1   7
BRANCH   5  17
HETATM   17  C   UNL     1      26.585  42.277  50.630  1.00  0.00     0.111 A 
HETATM   18  N   UNL     1      25.894  41.329  50.031  1.00  0.00    -0.233 NA
HETATM   19  C   UNL     1      26.719  40.233  49.986  1.00  0.00     0.085 A 
HETATM   20  C   UNL     1      27.935  40.505  50.600  1.00  0.00     0.062 A 
HETATM   21  C   UNL     1      26.506  38.970  49.414  1.00  0.00     0.034 A 
HETATM   22  N   UNL     1      27.814  41.802  51.026  1.00  0.00    -0.342 N 
HETATM   23  C   UNL     1      28.978  39.579  50.680  1.00  0.00     0.032 A 
HETATM   24  H   UNL     1      28.533  42.334  51.496  1.00  0.00     0.167 HD
HETATM   25  C   UNL     1      28.751  38.327  50.097  1.00  0.00     0.002 A 
HETATM   26  C   UNL     1      27.537  38.023  49.474  1.00  0.00     0.002 A 
ENDBRANCH   5  17
TORSDOF 4
ENDMDL
MODEL 6
REMARK VINA RESULT:      -7.7      1.982      3.887
REMARK  4 active torsions:
REMARK  status: ('A' for Active; 'I' for Inactive)
REMARK    1  A    between atoms: O_2  and  C_3 
REMARK    2  A    between atoms: C_5  and  N_6 
REMARK    3  A    between atoms: C_10  and  C_11 
REMARK    4  A    between atoms: C_22  and  O_23 
ROOT
HETATM    1  N   UNL     1      25.284  44.038  50.043  1.00  0.00    -0.315 N 
HETATM    2  C   UNL     1      24.698  42.964  50.721  1.00  0.00     0.225 C 
HETATM    3  O   UNL     1      23.555  42.857  51.141  1.00  0.00    -0.273 OA
HETATM    4  C   UNL     1      25.685  41.821  50.721  1.00  0.00     0.117 C 
HETATM    5  C   UNL     1      27.024  42.496  50.440  1.00  0.00     0.082 C 
HETATM    6  C   UNL     1      26.626  43.717  49.616  1.00  0.00     0.145 C 
ENDROOT
BRANCH   1   7
HETATM    7  C   UNL     1      24.671  45.299  49.799  1.00  0.00     0.073 A 
HETATM    8  C   UNL     1      23.665  45.400  48.824  1.00  0.00     0.069 A 
HETATM    9  C   UNL     1      22.978  46.598  48.595  1.00  0.00     0.070 A 
HETATM   10  C   UNL     1      23.328  47.737  49.315  1.00  0.00     0.039 A 
HETATM   11  C   UNL     1      24.340  47.669  50.272  1.00  0.00     0.042 A 
HETATM   12  C   UNL     1      25.019  46.465  50.510  1.00  0.00     0.095 A 
BRANCH   9  13
HETATM   13  O   UNL     1      21.989  46.529  47.653  1.00  0.00    -0.356 OA
HETATM   14  C   UNL     1      20.882  47.404  47.829  1.00  0.00     0.210 C 
ENDBRANCH   9  13
BRANCH  12  15
HETATM   15  O   UNL     1      26.032  46.421  51.438  1.00  0.00    -0.354 OA
HETATM   16  C   UNL     1      25.681  47.027  52.683  1.00  0.00     0.210 C 
ENDBRANCH  12  15
ENDBRANCH   1   7
BRANCH   5  17
HETATM   17  C   UNL     1      27.720  42.839  51.722  1.00  0.00     0.111 A 
HETATM   18  N   UNL     1      28.799  42.264  52.213  1.00  0.00    -0.233 NA
HETATM   19  C   UNL     1      29.163  43.013  53.304  1.00  0.00     0.085 A 
HETATM   20  C   UNL     1      28.268  44.055  53.507  1.00  0.00     0.062 A 
HETATM   21  C   UNL     1      30.264  42.876  54.162  1.00  0.00     0.034 A 
HETATM   22  N   UNL     1      27.344  43.907  52.505  1.00  0.00    -0.342 N 
HETATM   23  C   UNL     1      28.404  44.995  54.533  1.00  0.00     0.032 A 
HETATM   24  H   UNL     1      26.557  44.517  52.338  1.00  0.00     0.167 HD
HETATM   25  C   UNL     1      29.513  44.847  55.374  1.00  0.00     0.002 A 
HETATM   26  C   UNL     1      30.430  43.807  55.195  1.00  0.00     0.002 A 
ENDBRANCH   5  17
TORSDOF 4
ENDMDL
MODEL 7
REMARK VINA RESULT:      -7.7      2.664      6.745
REMARK  4 active torsions:
REMARK  status: ('A' for Active; 'I' for Inactive)
REMARK    1  A    between atoms: O_2  and  C_3 
REMARK    2  A    between atoms: C_5  and  N_6 
REMARK    3  A    between atoms: C_10  and  C_11 
REMARK    4  A    between atoms: C_22  and  O_23 
ROOT
HETATM    1  N   UNL     1      26.383  43.895  52.112  1.00  0.00    -0.315 N 
HETATM    2  C   UNL     1      26.386  43.408  50.802  1.00  0.00     0.225 C 
HETATM    3  O   UNL     1      27.239  42.739  50.236  1.00  0.00    -0.273 OA
HETATM    4  C   UNL     1      25.035  43.701  50.194  1.00  0.00     0.117 C 
HETATM    5  C   UNL     1      24.472  44.810  51.077  1.00  0.00     0.082 C 
HETATM    6  C   UNL     1      25.131  44.542  52.427  1.00  0.00     0.145 C 
ENDROOT
BRANCH   1   7
HETATM    7  C   UNL     1      27.460  43.794  53.037  1.00  0.00     0.073 A 
HETATM    8  C   UNL     1      27.899  44.944  53.714  1.00  0.00     0.069 A 
HETATM    9  C   UNL     1      28.903  44.889  54.688  1.00  0.00     0.070 A 
HETATM   10  C   UNL     1      29.524  43.674  54.963  1.00  0.00     0.039 A 
HETATM   11  C   UNL     1      29.124  42.522  54.288  1.00  0.00     0.042 A 
HETATM   12  C   UNL     1      28.109  42.575  53.322  1.00  0.00     0.095 A 
BRANCH   9  13
HETATM   13  O   UNL     1      29.186  46.080  55.299  1.00  0.00    -0.356 OA
HETATM   14  C   UNL     1      29.532  46.020  56.676  1.00  0.00     0.210 C 
ENDBRANCH   9  13
BRANCH  12  15
HETATM   15  O   UNL     1      27.744  41.435  52.646  1.00  0.00    -0.354 OA
HETATM   16  C   UNL     1      28.838  40.548  52.410  1.00  0.00     0.210 C 
ENDBRANCH  12  15
ENDBRANCH   1   7
BRANCH   5  17
HETATM   17  C   UNL     1      24.803  46.157  50.507  1.00  0.00     0.111 A 
HETATM   18  N   UNL     1      26.004  46.679  50.361  1.00  0.00    -0.233 NA
HETATM   19  C   UNL     1      25.826  47.840  49.651  1.00  0.00     0.085 A 
HETATM   20  C   UNL     1      24.481  48.053  49.382  1.00  0.00     0.062 A 
HETATM   21  C   UNL     1      26.775  48.759  49.179  1.00  0.00     0.034 A 
HETATM   22  N   UNL     1      23.848  46.983  49.961  1.00  0.00    -0.342 N 
HETATM   23  C   UNL     1      24.008  49.147  48.652  1.00  0.00     0.032 A 
HETATM   24  H   UNL     1      22.854  46.806  49.933  1.00  0.00     0.167 HD
HETATM   25  C   UNL     1      24.970  50.049  48.181  1.00  0.00     0.002 A 
HETATM   26  C   UNL     1      26.331  49.862  48.438  1.00  0.00     0.002 A 
ENDBRANCH   5  17
TORSDOF 4
ENDMDL
MODEL 8
REMARK VINA RESULT:      -7.5      2.977      7.253
REMARK  4 active torsions:
REMARK  status: ('A' for Active; 'I' for Inactive)
REMARK    1  A    between atoms: O_2  and  C_3 
REMARK    2  A    between atoms: C_5  and  N_6 
REMARK    3  A    between atoms: C_10  and  C_11 
REMARK    4  A    between atoms: C_22  and  O_23 
ROOT
HETATM    1  N   UNL     1      25.652  44.297  51.163  1.00  0.00    -0.315 N 
HETATM    2  C   UNL     1      26.063  44.112  49.839  1.00  0.00     0.225 C 
HETATM    3  O   UNL     1      27.182  43.863  49.413  1.00  0.00    -0.273 OA
HETATM    4  C   UNL     1      24.830  44.100  48.967  1.00  0.00     0.117 C 
HETATM    5  C   UNL     1      23.771  44.782  49.826  1.00  0.00     0.082 C 
HETATM    6  C   UNL     1      24.219  44.456  51.248  1.00  0.00     0.145 C 
ENDROOT
BRANCH   1   7
HETATM    7  C   UNL     1      26.508  44.340  52.299  1.00  0.00     0.073 A 
HETATM    8  C   UNL     1      27.252  43.201  52.647  1.00  0.00     0.069 A 
HETATM    9  C   UNL     1      28.164  43.211  53.709  1.00  0.00     0.070 A 
HETATM   10  C   UNL     1      28.307  44.363  54.477  1.00  0.00     0.039 A 
HETATM   11  C   UNL     1      27.563  45.500  54.168  1.00  0.00     0.042 A 
HETATM   12  C   UNL     1      26.659  45.494  53.095  1.00  0.00     0.095 A 
BRANCH   9  13
HETATM   13  O   UNL     1      28.854  42.044  53.893  1.00  0.00    -0.356 OA
HETATM   14  C   UNL     1      28.755  41.078  52.856  1.00  0.00     0.210 C 
ENDBRANCH   9  13
BRANCH  12  15
HETATM   15  O   UNL     1      25.913  46.614  52.820  1.00  0.00    -0.354 OA
HETATM   16  C   UNL     1      25.869  47.541  53.906  1.00  0.00     0.210 C 
ENDBRANCH  12  15
ENDBRANCH   1   7
BRANCH   5  17
HETATM   17  C   UNL     1      23.723  46.252  49.536  1.00  0.00     0.111 A 
HETATM   18  N   UNL     1      24.741  47.089  49.532  1.00  0.00    -0.233 NA
HETATM   19  C   UNL     1      24.249  48.278  49.053  1.00  0.00     0.085 A 
HETATM   20  C   UNL     1      22.890  48.178  48.785  1.00  0.00     0.062 A 
HETATM   21  C   UNL     1      24.913  49.486  48.796  1.00  0.00     0.034 A 
HETATM   22  N   UNL     1      22.573  46.889  49.128  1.00  0.00    -0.342 N 
HETATM   23  C   UNL     1      22.131  49.230  48.264  1.00  0.00     0.032 A 
HETATM   24  H   UNL     1      21.661  46.465  49.034  1.00  0.00     0.167 HD
HETATM   25  C   UNL     1      22.812  50.426  48.007  1.00  0.00     0.002 A 
HETATM   26  C   UNL     1      24.179  50.556  48.267  1.00  0.00     0.002 A 
ENDBRANCH   5  17
TORSDOF 4
ENDMDL
MODEL 9
REMARK VINA RESULT:      -7.4     12.672     15.655
REMARK  4 active torsions:
REMARK  status: ('A' for Active; 'I' for Inactive)
REMARK    1  A    between atoms: O_2  and  C_3 
REMARK    2  A    between atoms: C_5  and  N_6 
REMARK    3  A    between atoms: C_10  and  C_11 
REMARK    4  A    between atoms: C_22  and  O_23 
ROOT
HETATM    1  N   UNL     1      30.199  51.561  39.761  1.00  0.00    -0.315 N 
HETATM    2  C   UNL     1      29.319  52.648  39.757  1.00  0.00     0.225 C 
HETATM    3  O   UNL     1      29.212  53.549  40.576  1.00  0.00    -0.273 OA
HETATM    4  C   UNL     1      28.584  52.645  38.437  1.00  0.00     0.117 C 
HETATM    5  C   UNL     1      28.754  51.216  37.930  1.00  0.00     0.082 C 
HETATM    6  C   UNL     1      30.082  50.788  38.547  1.00  0.00     0.145 C 
ENDROOT
BRANCH   1   7
HETATM    7  C   UNL     1      31.096  51.224  40.813  1.00  0.00     0.073 A 
HETATM    8  C   UNL     1      32.422  51.684  40.763  1.00  0.00     0.069 A 
HETATM    9  C   UNL     1      33.326  51.445  41.806  1.00  0.00     0.070 A 
HETATM   10  C   UNL     1      32.921  50.691  42.903  1.00  0.00     0.039 A 
HETATM   11  C   UNL     1      31.617  50.202  42.967  1.00  0.00     0.042 A 
HETATM   12  C   UNL     1      30.708  50.453  41.928  1.00  0.00     0.095 A 
BRANCH   9  13
HETATM   13  O   UNL     1      34.565  52.001  41.639  1.00  0.00    -0.356 OA
HETATM   14  C   UNL     1      35.554  51.645  42.596  1.00  0.00     0.210 C 
ENDBRANCH   9  13
BRANCH  12  15
HETATM   15  O   UNL     1      29.434  49.942  41.993  1.00  0.00    -0.354 OA
HETATM   16  C   UNL     1      29.405  48.522  42.150  1.00  0.00     0.210 C 
ENDBRANCH  12  15
ENDBRANCH   1   7
BRANCH   5  17
HETATM   17  C   UNL     1      27.595  50.364  38.354  1.00  0.00     0.111 A 
HETATM   18  N   UNL     1      27.636  49.317  39.152  1.00  0.00    -0.233 NA
HETATM   19  C   UNL     1      26.329  48.969  39.384  1.00  0.00     0.085 A 
HETATM   20  C   UNL     1      25.465  49.803  38.686  1.00  0.00     0.062 A 
HETATM   21  C   UNL     1      25.799  47.959  40.201  1.00  0.00     0.034 A 
HETATM   22  N   UNL     1      26.295  50.664  38.017  1.00  0.00    -0.342 N 
HETATM   23  C   UNL     1      24.073  49.695  38.754  1.00  0.00     0.032 A 
HETATM   24  H   UNL     1      25.995  51.426  37.427  1.00  0.00     0.167 HD
HETATM   25  C   UNL     1      23.562  48.687  39.581  1.00  0.00     0.002 A 
HETATM   26  C   UNL     1      24.407  47.832  40.293  1.00  0.00     0.002 A 
ENDBRANCH   5  17
TORSDOF 4
ENDMDL
MODEL 10
REMARK VINA RESULT:      -7.4     16.270     17.975
REMARK  4 active torsions:
REMARK  status: ('A' for Active; 'I' for Inactive)
REMARK    1  A    between atoms: O_2  and  C_3 
REMARK    2  A    between atoms: C_5  and  N_6 
REMARK    3  A    between atoms: C_10  and  C_11 
REMARK    4  A    between atoms: C_22  and  O_23 
ROOT
HETATM    1  N   UNL     1      36.957  46.427  65.701  1.00  0.00    -0.315 N 
HETATM    2  C   UNL     1      36.745  45.762  66.913  1.00  0.00     0.225 C 
HETATM    3  O   UNL     1      37.166  46.046  68.025  1.00  0.00    -0.273 OA
HETATM    4  C   UNL     1      35.728  44.671  66.673  1.00  0.00     0.117 C 
HETATM    5  C   UNL     1      35.772  44.460  65.162  1.00  0.00     0.082 C 
HETATM    6  C   UNL     1      36.183  45.832  64.636  1.00  0.00     0.145 C 
ENDROOT
BRANCH   1   7
HETATM    7  C   UNL     1      37.824  47.538  65.505  1.00  0.00     0.073 A 
HETATM    8  C   UNL     1      37.357  48.834  65.776  1.00  0.00     0.069 A 
HETATM    9  C   UNL     1      38.189  49.955  65.672  1.00  0.00     0.070 A 
HETATM   10  C   UNL     1      39.502  49.795  65.240  1.00  0.00     0.039 A 
HETATM   11  C   UNL     1      39.984  48.522  64.940  1.00  0.00     0.042 A 
HETATM   12  C   UNL     1      39.154  47.397  65.058  1.00  0.00     0.095 A 
BRANCH   9  13
HETATM   13  O   UNL     1      37.609  51.144  66.021  1.00  0.00    -0.356 OA
HETATM   14  C   UNL     1      37.516  51.421  67.412  1.00  0.00     0.210 C 
ENDBRANCH   9  13
BRANCH  12  15
HETATM   15  O   UNL     1      39.636  46.152  64.734  1.00  0.00    -0.354 OA
HETATM   16  C   UNL     1      41.012  46.163  64.352  1.00  0.00     0.210 C 
ENDBRANCH  12  15
ENDBRANCH   1   7
BRANCH   5  17
HETATM   17  C   UNL     1      36.737  43.369  64.810  1.00  0.00     0.111 A 
HETATM   18  N   UNL     1      36.995  42.286  65.514  1.00  0.00    -0.233 NA
HETATM   19  C   UNL     1      37.807  41.508  64.726  1.00  0.00     0.085 A 
HETATM   20  C   UNL     1      38.079  42.143  63.521  1.00  0.00     0.062 A 
HETATM   21  C   UNL     1      38.336  40.232  64.965  1.00  0.00     0.034 A 
HETATM   22  N   UNL     1      37.410  43.336  63.610  1.00  0.00    -0.342 N 
HETATM   23  C   UNL     1      38.861  41.572  62.513  1.00  0.00     0.032 A 
HETATM   24  H   UNL     1      37.372  44.041  62.888  1.00  0.00     0.167 HD
HETATM   25  C   UNL     1      39.374  40.294  62.766  1.00  0.00     0.002 A 
HETATM   26  C   UNL     1      39.118  39.632  63.969  1.00  0.00     0.002 A 
ENDBRANCH   5  17
TORSDOF 4
ENDMDL
