MODEL 1
REMARK VINA RESULT:      -9.1      0.000      0.000
REMARK  3 active torsions:
REMARK  status: ('A' for Active; 'I' for Inactive)
REMARK       I    between atoms: C_2  and  N_3 
REMARK    1  A    between atoms: N_3  and  N_4 
REMARK       I    between atoms: N_4  and  C_5 
REMARK    2  A    between atoms: C_5  and  C_6 
REMARK    3  A    between atoms: C_11  and  C_12 
ROOT
HETATM    1  C   UNL     1      26.985  44.882  53.737  1.00  0.00     0.115 A 
HETATM    2  N   UNL     1      27.295  45.798  54.723  1.00  0.00    -0.350 N 
HETATM    3  H   UNL     1      26.769  46.642  54.906  1.00  0.00     0.166 HD
HETATM    4  C   UNL     1      28.442  45.453  55.392  1.00  0.00     0.044 A 
HETATM    5  C   UNL     1      28.909  44.275  54.815  1.00  0.00     0.006 A 
HETATM    6  C   UNL     1      27.996  43.925  53.764  1.00  0.00     0.019 A 
HETATM    7  C   UNL     1      29.096  46.096  56.450  1.00  0.00     0.032 A 
HETATM    8  C   UNL     1      30.265  45.507  56.939  1.00  0.00     0.026 A 
HETATM    9  C   UNL     1      30.751  44.324  56.388  1.00  0.00     0.035 A 
HETATM   10 CL   UNL     1      32.194  43.626  57.016  1.00  0.00    -0.084 Cl
HETATM   11  C   UNL     1      30.087  43.695  55.331  1.00  0.00     0.038 A 
ENDROOT
BRANCH   1  12
HETATM   12  C   UNL     1      25.842  45.018  52.856  1.00  0.00     0.287 C 
HETATM   13  N   UNL     1      25.985  46.002  51.889  1.00  0.00    -0.262 N 
HETATM   14  H   UNL     1      26.643  46.770  52.009  1.00  0.00     0.190 HD
HETATM   15  O   UNL     1      24.812  44.351  52.924  1.00  0.00    -0.264 OA
BRANCH  13  16
HETATM   16  N   UNL     1      24.873  46.301  51.083  1.00  0.00    -0.268 N 
HETATM   17  C   UNL     1      24.932  47.452  50.329  1.00  0.00     0.232 C 
HETATM   18  C   UNL     1      23.660  47.792  49.606  1.00  0.00     0.119 C 
HETATM   19  O   UNL     1      25.953  48.130  50.238  1.00  0.00    -0.272 OA
HETATM   20  H   UNL     1      23.992  45.869  51.365  1.00  0.00     0.190 HD
ENDBRANCH  13  16
ENDBRANCH   1  12
BRANCH   6  21
HETATM   21  C   UNL     1      28.076  42.777  52.872  1.00  0.00    -0.023 A 
HETATM   22  C   UNL     1      28.532  41.537  53.334  1.00  0.00     0.012 A 
HETATM   23  C   UNL     1      28.635  40.454  52.458  1.00  0.00     0.001 A 
HETATM   24  C   UNL     1      28.294  40.607  51.115  1.00  0.00     0.000 A 
HETATM   25  C   UNL     1      27.845  41.840  50.645  1.00  0.00     0.001 A 
HETATM   26  C   UNL     1      27.737  42.922  51.521  1.00  0.00     0.012 A 
ENDBRANCH   6  21
TORSDOF 3
ENDMDL
MODEL 2
REMARK VINA RESULT:      -8.8      3.754      5.743
REMARK  3 active torsions:
REMARK  status: ('A' for Active; 'I' for Inactive)
REMARK       I    between atoms: C_2  and  N_3 
REMARK    1  A    between atoms: N_3  and  N_4 
REMARK       I    between atoms: N_4  and  C_5 
REMARK    2  A    between atoms: C_5  and  C_6 
REMARK    3  A    between atoms: C_11  and  C_12 
ROOT
HETATM    1  C   UNL     1      28.264  41.690  51.717  1.00  0.00     0.115 A 
HETATM    2  N   UNL     1      29.241  41.417  52.656  1.00  0.00    -0.350 N 
HETATM    3  H   UNL     1      29.748  40.544  52.716  1.00  0.00     0.166 HD
HETATM    4  C   UNL     1      29.400  42.457  53.536  1.00  0.00     0.044 A 
HETATM    5  C   UNL     1      28.487  43.442  53.171  1.00  0.00     0.006 A 
HETATM    6  C   UNL     1      27.764  42.950  52.033  1.00  0.00     0.019 A 
HETATM    7  C   UNL     1      30.274  42.591  54.622  1.00  0.00     0.032 A 
HETATM    8  C   UNL     1      30.215  43.780  55.355  1.00  0.00     0.026 A 
HETATM    9  C   UNL     1      29.318  44.786  55.007  1.00  0.00     0.035 A 
HETATM   10 CL   UNL     1      29.273  46.238  55.931  1.00  0.00    -0.084 Cl
HETATM   11  C   UNL     1      28.451  44.637  53.921  1.00  0.00     0.038 A 
ENDROOT
BRANCH   1  12
HETATM   12  C   UNL     1      27.868  40.751  50.686  1.00  0.00     0.287 C 
HETATM   13  N   UNL     1      28.904  40.347  49.858  1.00  0.00    -0.262 N 
HETATM   14  H   UNL     1      29.747  40.909  49.752  1.00  0.00     0.190 HD
HETATM   15  O   UNL     1      26.727  40.327  50.516  1.00  0.00    -0.264 OA
BRANCH  13  16
HETATM   16  N   UNL     1      28.585  39.551  48.745  1.00  0.00    -0.268 N 
HETATM   17  C   UNL     1      29.208  38.326  48.647  1.00  0.00     0.232 C 
HETATM   18  C   UNL     1      28.940  37.588  47.366  1.00  0.00     0.119 C 
HETATM   19  O   UNL     1      29.907  37.866  49.548  1.00  0.00    -0.272 OA
HETATM   20  H   UNL     1      28.214  40.049  47.935  1.00  0.00     0.190 HD
ENDBRANCH  13  16
ENDBRANCH   1  12
BRANCH   6  21
HETATM   21  C   UNL     1      26.698  43.625  51.306  1.00  0.00    -0.023 A 
HETATM   22  C   UNL     1      26.971  44.363  50.149  1.00  0.00     0.012 A 
HETATM   23  C   UNL     1      25.942  45.033  49.482  1.00  0.00     0.001 A 
HETATM   24  C   UNL     1      24.639  44.978  49.974  1.00  0.00     0.000 A 
HETATM   25  C   UNL     1      24.359  44.251  51.129  1.00  0.00     0.001 A 
HETATM   26  C   UNL     1      25.386  43.577  51.794  1.00  0.00     0.012 A 
ENDBRANCH   6  21
TORSDOF 3
ENDMDL
MODEL 3
REMARK VINA RESULT:      -8.5      1.673      2.494
REMARK  3 active torsions:
REMARK  status: ('A' for Active; 'I' for Inactive)
REMARK       I    between atoms: C_2  and  N_3 
REMARK    1  A    between atoms: N_3  and  N_4 
REMARK       I    between atoms: N_4  and  C_5 
REMARK    2  A    between atoms: C_5  and  C_6 
REMARK    3  A    between atoms: C_11  and  C_12 
ROOT
HETATM    1  C   UNL     1      25.555  44.790  51.988  1.00  0.00     0.115 A 
HETATM    2  N   UNL     1      25.881  45.637  53.029  1.00  0.00    -0.350 N 
HETATM    3  H   UNL     1      25.374  46.481  53.260  1.00  0.00     0.166 HD
HETATM    4  C   UNL     1      27.015  45.224  53.681  1.00  0.00     0.044 A 
HETATM    5  C   UNL     1      27.457  44.071  53.036  1.00  0.00     0.006 A 
HETATM    6  C   UNL     1      26.542  43.808  51.963  1.00  0.00     0.019 A 
HETATM    7  C   UNL     1      27.678  45.786  54.779  1.00  0.00     0.032 A 
HETATM    8  C   UNL     1      28.830  45.140  55.237  1.00  0.00     0.026 A 
HETATM    9  C   UNL     1      29.289  43.981  54.618  1.00  0.00     0.035 A 
HETATM   10 CL   UNL     1      30.711  43.210  55.209  1.00  0.00    -0.084 Cl
HETATM   11  C   UNL     1      28.617  43.433  53.522  1.00  0.00     0.038 A 
ENDROOT
BRANCH   1  12
HETATM   12  C   UNL     1      24.420  45.007  51.112  1.00  0.00     0.287 C 
HETATM   13  N   UNL     1      24.457  46.211  50.424  1.00  0.00    -0.262 N 
HETATM   14  H   UNL     1      25.011  46.996  50.762  1.00  0.00     0.190 HD
HETATM   15  O   UNL     1      23.481  44.228  50.963  1.00  0.00    -0.264 OA
BRANCH  13  16
HETATM   16  N   UNL     1      23.332  46.569  49.663  1.00  0.00    -0.268 N 
HETATM   17  C   UNL     1      23.159  47.907  49.384  1.00  0.00     0.232 C 
HETATM   18  C   UNL     1      21.867  48.242  48.695  1.00  0.00     0.119 C 
HETATM   19  O   UNL     1      24.009  48.754  49.656  1.00  0.00    -0.272 OA
HETATM   20  H   UNL     1      22.560  45.902  49.671  1.00  0.00     0.190 HD
ENDBRANCH  13  16
ENDBRANCH   1  12
BRANCH   6  21
HETATM   21  C   UNL     1      26.599  42.714  51.003  1.00  0.00    -0.023 A 
HETATM   22  C   UNL     1      26.909  42.951  49.659  1.00  0.00     0.012 A 
HETATM   23  C   UNL     1      26.927  41.896  48.744  1.00  0.00     0.001 A 
HETATM   24  C   UNL     1      26.624  40.602  49.164  1.00  0.00     0.000 A 
HETATM   25  C   UNL     1      26.308  40.358  50.500  1.00  0.00     0.001 A 
HETATM   26  C   UNL     1      26.295  41.411  51.417  1.00  0.00     0.012 A 
ENDBRANCH   6  21
TORSDOF 3
ENDMDL
MODEL 4
REMARK VINA RESULT:      -8.4      3.958      6.078
REMARK  3 active torsions:
REMARK  status: ('A' for Active; 'I' for Inactive)
REMARK       I    between atoms: C_2  and  N_3 
REMARK    1  A    between atoms: N_3  and  N_4 
REMARK       I    between atoms: N_4  and  C_5 
REMARK    2  A    between atoms: C_5  and  C_6 
REMARK    3  A    between atoms: C_11  and  C_12 
ROOT
HETATM    1  C   UNL     1      24.295  45.607  50.299  1.00  0.00     0.115 A 
HETATM    2  N   UNL     1      24.230  44.789  51.410  1.00  0.00    -0.350 N 
HETATM    3  H   UNL     1      23.667  43.951  51.472  1.00  0.00     0.166 HD
HETATM    4  C   UNL     1      24.982  45.283  52.446  1.00  0.00     0.044 A 
HETATM    5  C   UNL     1      25.550  46.475  52.003  1.00  0.00     0.006 A 
HETATM    6  C   UNL     1      25.105  46.682  50.655  1.00  0.00     0.019 A 
HETATM    7  C   UNL     1      25.192  44.769  53.732  1.00  0.00     0.032 A 
HETATM    8  C   UNL     1      26.019  45.498  54.591  1.00  0.00     0.026 A 
HETATM    9  C   UNL     1      26.608  46.688  54.172  1.00  0.00     0.035 A 
HETATM   10 CL   UNL     1      27.622  47.559  55.257  1.00  0.00    -0.084 Cl
HETATM   11  C   UNL     1      26.388  47.189  52.886  1.00  0.00     0.038 A 
ENDROOT
BRANCH   1  12
HETATM   12  C   UNL     1      23.570  45.340  49.072  1.00  0.00     0.287 C 
HETATM   13  N   UNL     1      22.298  45.891  49.034  1.00  0.00    -0.262 N 
HETATM   14  H   UNL     1      21.801  46.134  49.889  1.00  0.00     0.190 HD
HETATM   15  O   UNL     1      23.998  44.684  48.125  1.00  0.00    -0.264 OA
BRANCH  13  16
HETATM   16  N   UNL     1      21.471  45.565  47.946  1.00  0.00    -0.268 N 
HETATM   17  C   UNL     1      21.263  46.541  46.997  1.00  0.00     0.232 C 
HETATM   18  C   UNL     1      20.258  46.184  45.939  1.00  0.00     0.119 C 
HETATM   19  O   UNL     1      21.872  47.610  47.003  1.00  0.00    -0.272 OA
HETATM   20  H   UNL     1      20.818  44.795  48.099  1.00  0.00     0.190 HD
ENDBRANCH  13  16
ENDBRANCH   1  12
BRANCH   6  21
HETATM   21  C   UNL     1      25.429  47.801  49.782  1.00  0.00    -0.023 A 
HETATM   22  C   UNL     1      26.758  48.109  49.470  1.00  0.00     0.012 A 
HETATM   23  C   UNL     1      27.055  49.207  48.658  1.00  0.00     0.001 A 
HETATM   24  C   UNL     1      26.027  50.008  48.162  1.00  0.00     0.000 A 
HETATM   25  C   UNL     1      24.701  49.711  48.473  1.00  0.00     0.001 A 
HETATM   26  C   UNL     1      24.402  48.612  49.281  1.00  0.00     0.012 A 
ENDBRANCH   6  21
TORSDOF 3
ENDMDL
MODEL 5
REMARK VINA RESULT:      -8.3      3.965      6.326
REMARK  3 active torsions:
REMARK  status: ('A' for Active; 'I' for Inactive)
REMARK       I    between atoms: C_2  and  N_3 
REMARK    1  A    between atoms: N_3  and  N_4 
REMARK       I    between atoms: N_4  and  C_5 
REMARK    2  A    between atoms: C_5  and  C_6 
REMARK    3  A    between atoms: C_11  and  C_12 
ROOT
HETATM    1  C   UNL     1      24.421  45.528  50.183  1.00  0.00     0.115 A 
HETATM    2  N   UNL     1      24.364  44.694  51.282  1.00  0.00    -0.350 N 
HETATM    3  H   UNL     1      23.855  43.820  51.312  1.00  0.00     0.166 HD
HETATM    4  C   UNL     1      25.038  45.223  52.354  1.00  0.00     0.044 A 
HETATM    5  C   UNL     1      25.544  46.454  51.948  1.00  0.00     0.006 A 
HETATM    6  C   UNL     1      25.143  46.649  50.584  1.00  0.00     0.019 A 
HETATM    7  C   UNL     1      25.226  44.707  53.642  1.00  0.00     0.032 A 
HETATM    8  C   UNL     1      25.967  45.478  54.543  1.00  0.00     0.026 A 
HETATM    9  C   UNL     1      26.493  46.709  54.161  1.00  0.00     0.035 A 
HETATM   10 CL   UNL     1      27.402  47.631  55.297  1.00  0.00    -0.084 Cl
HETATM   11  C   UNL     1      26.295  47.210  52.872  1.00  0.00     0.038 A 
ENDROOT
BRANCH   1  12
HETATM   12  C   UNL     1      23.767  45.230  48.923  1.00  0.00     0.287 C 
HETATM   13  N   UNL     1      24.261  44.105  48.280  1.00  0.00    -0.262 N 
HETATM   14  H   UNL     1      25.195  43.750  48.477  1.00  0.00     0.190 HD
HETATM   15  O   UNL     1      22.857  45.889  48.425  1.00  0.00    -0.264 OA
BRANCH  13  16
HETATM   16  N   UNL     1      23.786  43.823  46.989  1.00  0.00    -0.268 N 
HETATM   17  C   UNL     1      22.834  42.835  46.869  1.00  0.00     0.232 C 
HETATM   18  C   UNL     1      22.474  42.479  45.454  1.00  0.00     0.119 C 
HETATM   19  O   UNL     1      22.305  42.305  47.844  1.00  0.00    -0.272 OA
HETATM   20  H   UNL     1      24.400  44.095  46.220  1.00  0.00     0.190 HD
ENDBRANCH  13  16
ENDBRANCH   1  12
BRANCH   6  21
HETATM   21  C   UNL     1      25.429  47.798  49.736  1.00  0.00    -0.023 A 
HETATM   22  C   UNL     1      26.747  48.147  49.417  1.00  0.00     0.012 A 
HETATM   23  C   UNL     1      27.007  49.272  48.631  1.00  0.00     0.001 A 
HETATM   24  C   UNL     1      25.953  50.059  48.167  1.00  0.00     0.000 A 
HETATM   25  C   UNL     1      24.639  49.722  48.485  1.00  0.00     0.001 A 
HETATM   26  C   UNL     1      24.377  48.595  49.267  1.00  0.00     0.012 A 
ENDBRANCH   6  21
TORSDOF 3
ENDMDL
MODEL 6
REMARK VINA RESULT:      -8.1      1.772      2.325
REMARK  3 active torsions:
REMARK  status: ('A' for Active; 'I' for Inactive)
REMARK       I    between atoms: C_2  and  N_3 
REMARK    1  A    between atoms: N_3  and  N_4 
REMARK       I    between atoms: N_4  and  C_5 
REMARK    2  A    between atoms: C_5  and  C_6 
REMARK    3  A    between atoms: C_11  and  C_12 
ROOT
HETATM    1  C   UNL     1      26.291  45.734  52.758  1.00  0.00     0.115 A 
HETATM    2  N   UNL     1      26.692  46.533  53.811  1.00  0.00    -0.350 N 
HETATM    3  H   UNL     1      26.291  47.435  54.030  1.00  0.00     0.166 HD
HETATM    4  C   UNL     1      27.745  45.978  54.494  1.00  0.00     0.044 A 
HETATM    5  C   UNL     1      28.055  44.779  53.858  1.00  0.00     0.006 A 
HETATM    6  C   UNL     1      27.146  44.634  52.757  1.00  0.00     0.019 A 
HETATM    7  C   UNL     1      28.442  46.452  55.612  1.00  0.00     0.032 A 
HETATM    8  C   UNL     1      29.488  45.664  56.101  1.00  0.00     0.026 A 
HETATM    9  C   UNL     1      29.814  44.456  55.491  1.00  0.00     0.035 A 
HETATM   10 CL   UNL     1      31.108  43.511  56.121  1.00  0.00    -0.084 Cl
HETATM   11  C   UNL     1      29.110  43.998  54.375  1.00  0.00     0.038 A 
ENDROOT
BRANCH   1  12
HETATM   12  C   UNL     1      25.220  46.094  51.849  1.00  0.00     0.287 C 
HETATM   13  N   UNL     1      24.412  45.030  51.476  1.00  0.00    -0.262 N 
HETATM   14  H   UNL     1      24.742  44.069  51.534  1.00  0.00     0.190 HD
HETATM   15  O   UNL     1      25.010  47.224  51.416  1.00  0.00    -0.264 OA
BRANCH  13  16
HETATM   16  N   UNL     1      23.438  45.258  50.489  1.00  0.00    -0.268 N 
HETATM   17  C   UNL     1      22.740  44.164  50.027  1.00  0.00     0.232 C 
HETATM   18  C   UNL     1      21.821  44.449  48.873  1.00  0.00     0.119 C 
HETATM   19  O   UNL     1      22.845  43.050  50.537  1.00  0.00    -0.272 OA
HETATM   20  H   UNL     1      23.553  46.113  49.942  1.00  0.00     0.190 HD
ENDBRANCH  13  16
ENDBRANCH   1  12
BRANCH   6  21
HETATM   21  C   UNL     1      27.091  43.542  51.796  1.00  0.00    -0.023 A 
HETATM   22  C   UNL     1      27.015  42.211  52.223  1.00  0.00     0.012 A 
HETATM   23  C   UNL     1      26.997  41.172  51.290  1.00  0.00     0.001 A 
HETATM   24  C   UNL     1      27.067  41.456  49.926  1.00  0.00     0.000 A 
HETATM   25  C   UNL     1      27.149  42.778  49.493  1.00  0.00     0.001 A 
HETATM   26  C   UNL     1      27.162  43.818  50.425  1.00  0.00     0.012 A 
ENDBRANCH   6  21
TORSDOF 3
ENDMDL
MODEL 7
REMARK VINA RESULT:      -8.0     14.539     17.176
REMARK  3 active torsions:
REMARK  status: ('A' for Active; 'I' for Inactive)
REMARK       I    between atoms: C_2  and  N_3 
REMARK    1  A    between atoms: N_3  and  N_4 
REMARK       I    between atoms: N_4  and  C_5 
REMARK    2  A    between atoms: C_5  and  C_6 
REMARK    3  A    between atoms: C_11  and  C_12 
ROOT
HETATM    1  C   UNL     1      38.535  45.632  64.430  1.00  0.00     0.115 A 
HETATM    2  N   UNL     1      39.481  44.755  63.935  1.00  0.00    -0.350 N 
HETATM    3  H   UNL     1      39.267  43.867  63.503  1.00  0.00     0.166 HD
HETATM    4  C   UNL     1      40.757  45.213  64.153  1.00  0.00     0.044 A 
HETATM    5  C   UNL     1      40.643  46.426  64.827  1.00  0.00     0.006 A 
HETATM    6  C   UNL     1      39.243  46.681  65.011  1.00  0.00     0.019 A 
HETATM    7  C   UNL     1      41.988  44.642  63.811  1.00  0.00     0.032 A 
HETATM    8  C   UNL     1      43.145  45.343  64.165  1.00  0.00     0.026 A 
HETATM    9  C   UNL     1      43.062  46.562  64.831  1.00  0.00     0.035 A 
HETATM   10 CL   UNL     1      44.507  47.399  65.251  1.00  0.00    -0.084 Cl
HETATM   11  C   UNL     1      41.825  47.119  65.166  1.00  0.00     0.038 A 
ENDROOT
BRANCH   1  12
HETATM   12  C   UNL     1      37.108  45.382  64.365  1.00  0.00     0.287 C 
HETATM   13  N   UNL     1      36.703  44.231  65.024  1.00  0.00    -0.262 N 
HETATM   14  H   UNL     1      37.356  43.472  65.212  1.00  0.00     0.190 HD
HETATM   15  O   UNL     1      36.291  46.092  63.783  1.00  0.00    -0.264 OA
BRANCH  13  16
HETATM   16  N   UNL     1      35.362  43.834  64.892  1.00  0.00    -0.268 N 
HETATM   17  C   UNL     1      34.700  43.460  66.041  1.00  0.00     0.232 C 
HETATM   18  C   UNL     1      33.320  42.908  65.817  1.00  0.00     0.119 C 
HETATM   19  O   UNL     1      35.191  43.591  67.160  1.00  0.00    -0.272 OA
HETATM   20  H   UNL     1      35.083  43.515  63.964  1.00  0.00     0.190 HD
ENDBRANCH  13  16
ENDBRANCH   1  12
BRANCH   6  21
HETATM   21  C   UNL     1      38.635  47.825  65.674  1.00  0.00    -0.023 A 
HETATM   22  C   UNL     1      38.477  49.045  65.006  1.00  0.00     0.012 A 
HETATM   23  C   UNL     1      37.923  50.144  65.666  1.00  0.00     0.001 A 
HETATM   24  C   UNL     1      37.533  50.033  67.001  1.00  0.00     0.000 A 
HETATM   25  C   UNL     1      37.692  48.824  67.676  1.00  0.00     0.001 A 
HETATM   26  C   UNL     1      38.242  47.723  67.015  1.00  0.00     0.012 A 
ENDBRANCH   6  21
TORSDOF 3
ENDMDL
MODEL 8
REMARK VINA RESULT:      -8.0      2.416      3.163
REMARK  3 active torsions:
REMARK  status: ('A' for Active; 'I' for Inactive)
REMARK       I    between atoms: C_2  and  N_3 
REMARK    1  A    between atoms: N_3  and  N_4 
REMARK       I    between atoms: N_4  and  C_5 
REMARK    2  A    between atoms: C_5  and  C_6 
REMARK    3  A    between atoms: C_11  and  C_12 
ROOT
HETATM    1  C   UNL     1      26.265  45.640  52.000  1.00  0.00     0.115 A 
HETATM    2  N   UNL     1      25.969  46.834  52.629  1.00  0.00    -0.350 N 
HETATM    3  H   UNL     1      25.430  47.581  52.213  1.00  0.00     0.166 HD
HETATM    4  C   UNL     1      26.548  46.908  53.871  1.00  0.00     0.044 A 
HETATM    5  C   UNL     1      27.259  45.726  54.058  1.00  0.00     0.006 A 
HETATM    6  C   UNL     1      27.089  44.935  52.873  1.00  0.00     0.019 A 
HETATM    7  C   UNL     1      26.499  47.929  54.828  1.00  0.00     0.032 A 
HETATM    8  C   UNL     1      27.196  47.728  56.022  1.00  0.00     0.026 A 
HETATM    9  C   UNL     1      27.908  46.552  56.241  1.00  0.00     0.035 A 
HETATM   10 CL   UNL     1      28.755  46.337  57.725  1.00  0.00    -0.084 Cl
HETATM   11  C   UNL     1      27.949  45.543  55.276  1.00  0.00     0.038 A 
ENDROOT
BRANCH   1  12
HETATM   12  C   UNL     1      25.808  45.311  50.664  1.00  0.00     0.287 C 
HETATM   13  N   UNL     1      24.440  45.104  50.567  1.00  0.00    -0.262 N 
HETATM   14  H   UNL     1      23.884  44.854  51.382  1.00  0.00     0.190 HD
HETATM   15  O   UNL     1      26.531  45.205  49.675  1.00  0.00    -0.264 OA
BRANCH  13  16
HETATM   16  N   UNL     1      23.930  44.642  49.342  1.00  0.00    -0.268 N 
HETATM   17  C   UNL     1      23.104  43.540  49.379  1.00  0.00     0.232 C 
HETATM   18  C   UNL     1      22.711  43.006  48.030  1.00  0.00     0.119 C 
HETATM   19  O   UNL     1      22.703  43.049  50.433  1.00  0.00    -0.272 OA
HETATM   20  H   UNL     1      24.460  44.907  48.511  1.00  0.00     0.190 HD
ENDBRANCH  13  16
ENDBRANCH   1  12
BRANCH   6  21
HETATM   21  C   UNL     1      27.655  43.621  52.601  1.00  0.00    -0.023 A 
HETATM   22  C   UNL     1      26.855  42.578  52.120  1.00  0.00     0.012 A 
HETATM   23  C   UNL     1      27.406  41.314  51.895  1.00  0.00     0.001 A 
HETATM   24  C   UNL     1      28.755  41.083  52.160  1.00  0.00     0.000 A 
HETATM   25  C   UNL     1      29.557  42.114  52.645  1.00  0.00     0.001 A 
HETATM   26  C   UNL     1      29.009  43.379  52.865  1.00  0.00     0.012 A 
ENDBRANCH   6  21
TORSDOF 3
ENDMDL
MODEL 9
REMARK VINA RESULT:      -7.9     14.519     16.534
REMARK  3 active torsions:
REMARK  status: ('A' for Active; 'I' for Inactive)
REMARK       I    between atoms: C_2  and  N_3 
REMARK    1  A    between atoms: N_3  and  N_4 
REMARK       I    between atoms: N_4  and  C_5 
REMARK    2  A    between atoms: C_5  and  C_6 
REMARK    3  A    between atoms: C_11  and  C_12 
ROOT
HETATM    1  C   UNL     1      38.734  45.002  64.418  1.00  0.00     0.115 A 
HETATM    2  N   UNL     1      39.308  46.244  64.611  1.00  0.00    -0.350 N 
HETATM    3  H   UNL     1      38.797  47.116  64.613  1.00  0.00     0.166 HD
HETATM    4  C   UNL     1      40.671  46.155  64.744  1.00  0.00     0.044 A 
HETATM    5  C   UNL     1      41.004  44.809  64.619  1.00  0.00     0.006 A 
HETATM    6  C   UNL     1      39.783  44.088  64.401  1.00  0.00     0.019 A 
HETATM    7  C   UNL     1      41.622  47.161  64.955  1.00  0.00     0.032 A 
HETATM    8  C   UNL     1      42.961  46.773  65.051  1.00  0.00     0.026 A 
HETATM    9  C   UNL     1      43.323  45.433  64.940  1.00  0.00     0.035 A 
HETATM   10 CL   UNL     1      44.982  44.990  65.064  1.00  0.00    -0.084 Cl
HETATM   11  C   UNL     1      42.362  44.441  64.727  1.00  0.00     0.038 A 
ENDROOT
BRANCH   1  12
HETATM   12  C   UNL     1      37.311  44.807  64.216  1.00  0.00     0.287 C 
HETATM   13  N   UNL     1      36.708  44.002  65.171  1.00  0.00    -0.262 N 
HETATM   14  H   UNL     1      37.250  43.341  65.724  1.00  0.00     0.190 HD
HETATM   15  O   UNL     1      36.655  45.284  63.292  1.00  0.00    -0.264 OA
BRANCH  13  16
HETATM   16  N   UNL     1      35.364  43.643  64.975  1.00  0.00    -0.268 N 
HETATM   17  C   UNL     1      34.611  43.382  66.098  1.00  0.00     0.232 C 
HETATM   18  C   UNL     1      33.229  42.862  65.820  1.00  0.00     0.119 C 
HETATM   19  O   UNL     1      35.031  43.584  67.237  1.00  0.00    -0.272 OA
HETATM   20  H   UNL     1      35.136  43.261  64.056  1.00  0.00     0.190 HD
ENDBRANCH  13  16
ENDBRANCH   1  12
BRANCH   6  21
HETATM   21  C   UNL     1      39.630  42.653  64.203  1.00  0.00    -0.023 A 
HETATM   22  C   UNL     1      39.394  42.124  62.930  1.00  0.00     0.012 A 
HETATM   23  C   UNL     1      39.215  40.748  62.761  1.00  0.00     0.001 A 
HETATM   24  C   UNL     1      39.261  39.897  63.864  1.00  0.00     0.000 A 
HETATM   25  C   UNL     1      39.490  40.417  65.137  1.00  0.00     0.001 A 
HETATM   26  C   UNL     1      39.673  41.791  65.307  1.00  0.00     0.012 A 
ENDBRANCH   6  21
TORSDOF 3
ENDMDL
MODEL 10
REMARK VINA RESULT:      -7.9     13.739     15.081
REMARK  3 active torsions:
REMARK  status: ('A' for Active; 'I' for Inactive)
REMARK       I    between atoms: C_2  and  N_3 
REMARK    1  A    between atoms: N_3  and  N_4 
REMARK       I    between atoms: N_4  and  C_5 
REMARK    2  A    between atoms: C_5  and  C_6 
REMARK    3  A    between atoms: C_11  and  C_12 
ROOT
HETATM    1  C   UNL     1      27.343  50.475  38.748  1.00  0.00     0.115 A 
HETATM    2  N   UNL     1      27.652  51.821  38.802  1.00  0.00    -0.350 N 
HETATM    3  H   UNL     1      27.194  52.535  38.253  1.00  0.00     0.166 HD
HETATM    4  C   UNL     1      28.699  52.065  39.656  1.00  0.00     0.044 A 
HETATM    5  C   UNL     1      29.100  50.834  40.168  1.00  0.00     0.006 A 
HETATM    6  C   UNL     1      28.253  49.834  39.584  1.00  0.00     0.019 A 
HETATM    7  C   UNL     1      29.316  53.273  40.000  1.00  0.00     0.032 A 
HETATM    8  C   UNL     1      30.377  53.219  40.908  1.00  0.00     0.026 A 
HETATM    9  C   UNL     1      30.794  52.004  41.444  1.00  0.00     0.035 A 
HETATM   10 CL   UNL     1      32.104  51.975  42.561  1.00  0.00    -0.084 Cl
HETATM   11  C   UNL     1      30.168  50.806  41.089  1.00  0.00     0.038 A 
ENDROOT
BRANCH   1  12
HETATM   12  C   UNL     1      26.299  49.933  37.900  1.00  0.00     0.287 C 
HETATM   13  N   UNL     1      25.013  50.180  38.357  1.00  0.00    -0.262 N 
HETATM   14  H   UNL     1      24.830  50.389  39.337  1.00  0.00     0.190 HD
HETATM   15  O   UNL     1      26.486  49.298  36.864  1.00  0.00    -0.264 OA
BRANCH  13  16
HETATM   16  N   UNL     1      23.945  49.570  37.677  1.00  0.00    -0.268 N 
HETATM   17  C   UNL     1      22.672  49.988  37.999  1.00  0.00     0.232 C 
HETATM   18  C   UNL     1      21.571  49.199  37.349  1.00  0.00     0.119 C 
HETATM   19  O   UNL     1      22.459  50.945  38.741  1.00  0.00    -0.272 OA
HETATM   20  H   UNL     1      24.140  48.653  37.274  1.00  0.00     0.190 HD
ENDBRANCH  13  16
ENDBRANCH   1  12
BRANCH   6  21
HETATM   21  C   UNL     1      28.301  48.396  39.810  1.00  0.00    -0.023 A 
HETATM   22  C   UNL     1      29.259  47.599  39.173  1.00  0.00     0.012 A 
HETATM   23  C   UNL     1      29.270  46.216  39.374  1.00  0.00     0.001 A 
HETATM   24  C   UNL     1      28.319  45.622  40.202  1.00  0.00     0.000 A 
HETATM   25  C   UNL     1      27.357  46.408  40.835  1.00  0.00     0.001 A 
HETATM   26  C   UNL     1      27.347  47.791  40.639  1.00  0.00     0.012 A 
ENDBRANCH   6  21
TORSDOF 3
ENDMDL
