MODEL 1
REMARK VINA RESULT:      -9.2      0.000      0.000
REMARK  4 active torsions:
REMARK  status: ('A' for Active; 'I' for Inactive)
REMARK    1  A    between atoms: C_9  and  C_10 
REMARK    2  A    between atoms: C_18  and  C_19 
REMARK       I    between atoms: C_19  and  N_20 
REMARK    3  A    between atoms: N_20  and  C_21 
REMARK    4  A    between atoms: C_24  and  O_25 
ROOT
HETATM    1  C   UNL     1      25.730  47.211  52.144  1.00  0.00     0.070 C 
HETATM    2  C   UNL     1      25.257  45.927  51.508  1.00  0.00     0.037 C 
HETATM    3  N   UNL     1      24.406  46.080  50.416  1.00  0.00    -0.192 N 
HETATM    4  C   UNL     1      23.661  45.069  49.924  1.00  0.00     0.725 A 
HETATM    5  N   UNL     1      23.878  43.796  50.374  1.00  0.00    -0.084 N 
HETATM    6  N   UNL     1      22.999  42.926  49.835  1.00  0.00    -0.149 NA
HETATM    7  C   UNL     1      22.298  43.746  49.041  1.00  0.00     0.275 A 
HETATM    8  N   UNL     1      22.678  45.065  49.061  1.00  0.00    -0.054 NA
HETATM    9  C   UNL     1      24.920  43.435  51.342  1.00  0.00     0.202 C 
HETATM   10  C   UNL     1      25.537  44.682  51.971  1.00  0.00     0.062 C 
HETATM   11  H   UNL     1      24.138  47.027  50.160  1.00  0.00     0.184 HD
ENDROOT
BRANCH  10  12
HETATM   12  C   UNL     1      26.328  44.396  53.198  1.00  0.00     0.256 C 
HETATM   13  N   UNL     1      27.685  44.571  53.050  1.00  0.00    -0.323 N 
HETATM   14  H   UNL     1      28.022  44.826  52.132  1.00  0.00     0.169 HD
HETATM   15  O   UNL     1      25.732  43.988  54.188  1.00  0.00    -0.267 OA
BRANCH  13  16
HETATM   16  C   UNL     1      28.669  44.448  54.055  1.00  0.00     0.035 A 
HETATM   17  C   UNL     1      28.859  45.376  55.079  1.00  0.00     0.032 A 
HETATM   18  C   UNL     1      29.871  45.187  56.029  1.00  0.00     0.039 A 
HETATM   19  C   UNL     1      30.705  44.072  55.975  1.00  0.00     0.068 A 
HETATM   20  C   UNL     1      30.529  43.146  54.949  1.00  0.00     0.039 A 
HETATM   21  C   UNL     1      29.515  43.332  53.998  1.00  0.00     0.032 A 
BRANCH  19  22
HETATM   22  O   UNL     1      31.647  44.013  56.963  1.00  0.00    -0.356 OA
HETATM   23  C   UNL     1      31.322  44.637  58.198  1.00  0.00     0.210 C 
ENDBRANCH  19  22
ENDBRANCH  13  16
ENDBRANCH  10  12
BRANCH   9  24
HETATM   24  C   UNL     1      25.977  42.548  50.680  1.00  0.00    -0.026 A 
HETATM   25  C   UNL     1      26.870  41.816  51.484  1.00  0.00     0.035 A 
HETATM   26  C   UNL     1      27.845  40.991  50.909  1.00  0.00     0.056 A 
HETATM   27 CL   UNL     1      28.894  40.122  51.972  1.00  0.00    -0.083 Cl
HETATM   28  C   UNL     1      27.943  40.894  49.518  1.00  0.00     0.055 A 
HETATM   29 CL   UNL     1      29.112  39.892  48.734  1.00  0.00    -0.083 Cl
HETATM   30  C   UNL     1      27.073  41.629  48.709  1.00  0.00     0.026 A 
HETATM   31  C   UNL     1      26.103  42.455  49.284  1.00  0.00     0.011 A 
ENDBRANCH   9  24
TORSDOF 4
ENDMDL
MODEL 2
REMARK VINA RESULT:      -9.1      0.935      1.741
REMARK  4 active torsions:
REMARK  status: ('A' for Active; 'I' for Inactive)
REMARK    1  A    between atoms: C_9  and  C_10 
REMARK    2  A    between atoms: C_18  and  C_19 
REMARK       I    between atoms: C_19  and  N_20 
REMARK    3  A    between atoms: N_20  and  C_21 
REMARK    4  A    between atoms: C_24  and  O_25 
ROOT
HETATM    1  C   UNL     1      26.132  46.849  51.267  1.00  0.00     0.070 C 
HETATM    2  C   UNL     1      25.652  45.515  50.749  1.00  0.00     0.037 C 
HETATM    3  N   UNL     1      24.905  45.564  49.575  1.00  0.00    -0.192 N 
HETATM    4  C   UNL     1      24.156  44.529  49.143  1.00  0.00     0.725 A 
HETATM    5  N   UNL     1      24.272  43.314  49.759  1.00  0.00    -0.084 N 
HETATM    6  N   UNL     1      23.401  42.419  49.251  1.00  0.00    -0.149 NA
HETATM    7  C   UNL     1      22.810  43.160  48.306  1.00  0.00     0.275 A 
HETATM    8  N   UNL     1      23.251  44.456  48.202  1.00  0.00    -0.054 NA
HETATM    9  C   UNL     1      25.210  43.036  50.853  1.00  0.00     0.202 C 
HETATM   10  C   UNL     1      25.832  44.327  51.381  1.00  0.00     0.062 C 
HETATM   11  H   UNL     1      24.705  46.482  49.185  1.00  0.00     0.184 HD
ENDROOT
BRANCH  10  12
HETATM   12  C   UNL     1      26.502  44.165  52.699  1.00  0.00     0.256 C 
HETATM   13  N   UNL     1      27.876  44.221  52.646  1.00  0.00    -0.323 N 
HETATM   14  H   UNL     1      28.302  44.319  51.735  1.00  0.00     0.169 HD
HETATM   15  O   UNL     1      25.802  43.945  53.681  1.00  0.00    -0.267 OA
BRANCH  13  16
HETATM   16  C   UNL     1      28.768  44.175  53.740  1.00  0.00     0.035 A 
HETATM   17  C   UNL     1      29.708  43.163  53.939  1.00  0.00     0.032 A 
HETATM   18  C   UNL     1      30.545  43.183  55.061  1.00  0.00     0.039 A 
HETATM   19  C   UNL     1      30.462  44.211  55.999  1.00  0.00     0.068 A 
HETATM   20  C   UNL     1      29.520  45.220  55.813  1.00  0.00     0.039 A 
HETATM   21  C   UNL     1      28.681  45.202  54.689  1.00  0.00     0.032 A 
BRANCH  19  22
HETATM   22  O   UNL     1      31.339  44.107  57.042  1.00  0.00    -0.356 OA
HETATM   23  C   UNL     1      31.056  44.884  58.198  1.00  0.00     0.210 C 
ENDBRANCH  19  22
ENDBRANCH  13  16
ENDBRANCH  10  12
BRANCH   9  24
HETATM   24  C   UNL     1      26.276  42.035  50.399  1.00  0.00    -0.026 A 
HETATM   25  C   UNL     1      26.665  42.001  49.047  1.00  0.00     0.035 A 
HETATM   26  C   UNL     1      27.641  41.101  48.602  1.00  0.00     0.056 A 
HETATM   27 CL   UNL     1      28.063  41.135  46.927  1.00  0.00    -0.083 Cl
HETATM   28  C   UNL     1      28.237  40.216  49.505  1.00  0.00     0.055 A 
HETATM   29 CL   UNL     1      29.454  39.084  49.035  1.00  0.00    -0.083 Cl
HETATM   30  C   UNL     1      27.847  40.229  50.847  1.00  0.00     0.026 A 
HETATM   31  C   UNL     1      26.869  41.124  51.290  1.00  0.00     0.011 A 
ENDBRANCH   9  24
TORSDOF 4
ENDMDL
MODEL 3
REMARK VINA RESULT:      -8.6      3.099      6.463
REMARK  4 active torsions:
REMARK  status: ('A' for Active; 'I' for Inactive)
REMARK    1  A    between atoms: C_9  and  C_10 
REMARK    2  A    between atoms: C_18  and  C_19 
REMARK       I    between atoms: C_19  and  N_20 
REMARK    3  A    between atoms: N_20  and  C_21 
REMARK    4  A    between atoms: C_24  and  O_25 
ROOT
HETATM    1  C   UNL     1      22.765  43.161  49.664  1.00  0.00     0.070 C 
HETATM    2  C   UNL     1      23.902  44.122  49.909  1.00  0.00     0.037 C 
HETATM    3  N   UNL     1      23.548  45.468  49.947  1.00  0.00    -0.192 N 
HETATM    4  C   UNL     1      24.453  46.464  49.855  1.00  0.00     0.725 A 
HETATM    5  N   UNL     1      25.786  46.167  49.920  1.00  0.00    -0.084 N 
HETATM    6  N   UNL     1      26.545  47.266  49.736  1.00  0.00    -0.149 NA
HETATM    7  C   UNL     1      25.597  48.199  49.595  1.00  0.00     0.275 A 
HETATM    8  N   UNL     1      24.301  47.750  49.670  1.00  0.00    -0.054 NA
HETATM    9  C   UNL     1      26.315  44.815  50.137  1.00  0.00     0.202 C 
HETATM   10  C   UNL     1      25.209  43.769  50.011  1.00  0.00     0.062 C 
HETATM   11  H   UNL     1      22.574  45.702  49.767  1.00  0.00     0.184 HD
ENDROOT
BRANCH  10  12
HETATM   12  C   UNL     1      25.723  42.381  49.861  1.00  0.00     0.256 C 
HETATM   13  N   UNL     1      26.482  42.178  48.731  1.00  0.00    -0.323 N 
HETATM   14  H   UNL     1      26.584  42.956  48.094  1.00  0.00     0.169 HD
HETATM   15  O   UNL     1      25.391  41.548  50.696  1.00  0.00    -0.267 OA
BRANCH  13  16
HETATM   16  C   UNL     1      27.157  40.992  48.366  1.00  0.00     0.035 A 
HETATM   17  C   UNL     1      28.247  40.469  49.063  1.00  0.00     0.032 A 
HETATM   18  C   UNL     1      28.871  39.294  48.625  1.00  0.00     0.039 A 
HETATM   19  C   UNL     1      28.418  38.623  47.490  1.00  0.00     0.068 A 
HETATM   20  C   UNL     1      27.338  39.145  46.783  1.00  0.00     0.039 A 
HETATM   21  C   UNL     1      26.710  40.320  47.222  1.00  0.00     0.032 A 
BRANCH  19  22
HETATM   22  O   UNL     1      29.118  37.491  47.177  1.00  0.00    -0.356 OA
HETATM   23  C   UNL     1      28.580  36.667  46.151  1.00  0.00     0.210 C 
ENDBRANCH  19  22
ENDBRANCH  13  16
ENDBRANCH  10  12
BRANCH   9  24
HETATM   24  C   UNL     1      27.025  44.732  51.490  1.00  0.00    -0.026 A 
HETATM   25  C   UNL     1      28.152  43.902  51.632  1.00  0.00     0.035 A 
HETATM   26  C   UNL     1      28.827  43.809  52.856  1.00  0.00     0.056 A 
HETATM   27 CL   UNL     1      30.206  42.772  52.938  1.00  0.00    -0.083 Cl
HETATM   28  C   UNL     1      28.376  44.542  53.958  1.00  0.00     0.055 A 
HETATM   29 CL   UNL     1      29.160  44.487  55.497  1.00  0.00    -0.083 Cl
HETATM   30  C   UNL     1      27.248  45.356  53.833  1.00  0.00     0.026 A 
HETATM   31  C   UNL     1      26.573  45.445  52.613  1.00  0.00     0.011 A 
ENDBRANCH   9  24
TORSDOF 4
ENDMDL
MODEL 4
REMARK VINA RESULT:      -8.2      3.732      5.338
REMARK  4 active torsions:
REMARK  status: ('A' for Active; 'I' for Inactive)
REMARK    1  A    between atoms: C_9  and  C_10 
REMARK    2  A    between atoms: C_18  and  C_19 
REMARK       I    between atoms: C_19  and  N_20 
REMARK    3  A    between atoms: N_20  and  C_21 
REMARK    4  A    between atoms: C_24  and  O_25 
ROOT
HETATM    1  C   UNL     1      26.265  49.945  48.268  1.00  0.00     0.070 C 
HETATM    2  C   UNL     1      24.881  49.371  48.445  1.00  0.00     0.037 C 
HETATM    3  N   UNL     1      23.849  50.119  47.884  1.00  0.00    -0.192 N 
HETATM    4  C   UNL     1      22.552  49.923  48.197  1.00  0.00     0.725 A 
HETATM    5  N   UNL     1      22.199  48.831  48.941  1.00  0.00    -0.084 N 
HETATM    6  N   UNL     1      20.881  48.832  49.224  1.00  0.00    -0.149 NA
HETATM    7  C   UNL     1      20.494  49.945  48.589  1.00  0.00     0.275 A 
HETATM    8  N   UNL     1      21.486  50.638  47.941  1.00  0.00    -0.054 NA
HETATM    9  C   UNL     1      23.148  47.806  49.393  1.00  0.00     0.202 C 
HETATM   10  C   UNL     1      24.589  48.254  49.159  1.00  0.00     0.062 C 
HETATM   11  H   UNL     1      24.096  51.002  47.443  1.00  0.00     0.184 HD
ENDROOT
BRANCH  10  12
HETATM   12  C   UNL     1      25.589  47.445  49.906  1.00  0.00     0.256 C 
HETATM   13  N   UNL     1      25.342  47.346  51.257  1.00  0.00    -0.323 N 
HETATM   14  H   UNL     1      24.550  47.857  51.622  1.00  0.00     0.169 HD
HETATM   15  O   UNL     1      26.547  46.996  49.288  1.00  0.00    -0.267 OA
BRANCH  13  16
HETATM   16  C   UNL     1      26.071  46.587  52.198  1.00  0.00     0.035 A 
HETATM   17  C   UNL     1      26.400  45.242  52.029  1.00  0.00     0.032 A 
HETATM   18  C   UNL     1      27.114  44.557  53.020  1.00  0.00     0.039 A 
HETATM   19  C   UNL     1      27.512  45.201  54.191  1.00  0.00     0.068 A 
HETATM   20  C   UNL     1      27.178  46.540  54.372  1.00  0.00     0.039 A 
HETATM   21  C   UNL     1      26.465  47.229  53.379  1.00  0.00     0.032 A 
BRANCH  19  22
HETATM   22  O   UNL     1      28.202  44.414  55.070  1.00  0.00    -0.356 OA
HETATM   23  C   UNL     1      29.323  43.707  54.557  1.00  0.00     0.210 C 
ENDBRANCH  19  22
ENDBRANCH  13  16
ENDBRANCH  10  12
BRANCH   9  24
HETATM   24  C   UNL     1      22.850  46.468  48.712  1.00  0.00    -0.026 A 
HETATM   25  C   UNL     1      23.089  45.268  49.406  1.00  0.00     0.035 A 
HETATM   26  C   UNL     1      22.821  44.028  48.813  1.00  0.00     0.056 A 
HETATM   27 CL   UNL     1      23.136  42.606  49.742  1.00  0.00    -0.083 Cl
HETATM   28  C   UNL     1      22.317  43.973  47.510  1.00  0.00     0.055 A 
HETATM   29 CL   UNL     1      21.955  42.483  46.714  1.00  0.00    -0.083 Cl
HETATM   30  C   UNL     1      22.093  45.158  46.804  1.00  0.00     0.026 A 
HETATM   31  C   UNL     1      22.364  46.395  47.395  1.00  0.00     0.011 A 
ENDBRANCH   9  24
TORSDOF 4
ENDMDL
MODEL 5
REMARK VINA RESULT:      -8.1      6.081      8.546
REMARK  4 active torsions:
REMARK  status: ('A' for Active; 'I' for Inactive)
REMARK    1  A    between atoms: C_9  and  C_10 
REMARK    2  A    between atoms: C_18  and  C_19 
REMARK       I    between atoms: C_19  and  N_20 
REMARK    3  A    between atoms: N_20  and  C_21 
REMARK    4  A    between atoms: C_24  and  O_25 
ROOT
HETATM    1  C   UNL     1      23.419  50.814  47.913  1.00  0.00     0.070 C 
HETATM    2  C   UNL     1      22.028  50.367  48.291  1.00  0.00     0.037 C 
HETATM    3  N   UNL     1      21.080  51.382  48.385  1.00  0.00    -0.192 N 
HETATM    4  C   UNL     1      19.888  51.213  48.992  1.00  0.00     0.725 A 
HETATM    5  N   UNL     1      19.497  49.957  49.364  1.00  0.00    -0.084 N 
HETATM    6  N   UNL     1      18.320  49.981  50.022  1.00  0.00    -0.149 NA
HETATM    7  C   UNL     1      18.043  51.290  49.981  1.00  0.00     0.275 A 
HETATM    8  N   UNL     1      18.974  52.078  49.351  1.00  0.00    -0.054 NA
HETATM    9  C   UNL     1      20.279  48.743  49.102  1.00  0.00     0.202 C 
HETATM   10  C   UNL     1      21.682  49.094  48.611  1.00  0.00     0.062 C 
HETATM   11  H   UNL     1      21.399  52.337  48.236  1.00  0.00     0.184 HD
ENDROOT
BRANCH  10  12
HETATM   12  C   UNL     1      22.633  47.950  48.669  1.00  0.00     0.256 C 
HETATM   13  N   UNL     1      23.337  47.861  49.848  1.00  0.00    -0.323 N 
HETATM   14  H   UNL     1      23.187  48.586  50.535  1.00  0.00     0.169 HD
HETATM   15  O   UNL     1      22.746  47.241  47.676  1.00  0.00    -0.267 OA
BRANCH  13  16
HETATM   16  C   UNL     1      24.247  46.844  50.216  1.00  0.00     0.035 A 
HETATM   17  C   UNL     1      24.107  45.504  49.856  1.00  0.00     0.032 A 
HETATM   18  C   UNL     1      25.047  44.555  50.276  1.00  0.00     0.039 A 
HETATM   19  C   UNL     1      26.140  44.926  51.057  1.00  0.00     0.068 A 
HETATM   20  C   UNL     1      26.281  46.261  51.430  1.00  0.00     0.039 A 
HETATM   21  C   UNL     1      25.341  47.213  51.008  1.00  0.00     0.032 A 
BRANCH  19  22
HETATM   22  O   UNL     1      26.977  43.901  51.395  1.00  0.00    -0.356 OA
HETATM   23  C   UNL     1      27.638  43.997  52.650  1.00  0.00     0.210 C 
ENDBRANCH  19  22
ENDBRANCH  13  16
ENDBRANCH  10  12
BRANCH   9  24
HETATM   24  C   UNL     1      19.541  47.837  48.114  1.00  0.00    -0.026 A 
HETATM   25  C   UNL     1      19.297  48.290  46.805  1.00  0.00     0.035 A 
HETATM   26  C   UNL     1      18.629  47.482  45.876  1.00  0.00     0.056 A 
HETATM   27 CL   UNL     1      18.380  48.117  44.289  1.00  0.00    -0.083 Cl
HETATM   28  C   UNL     1      18.189  46.208  46.250  1.00  0.00     0.055 A 
HETATM   29 CL   UNL     1      17.367  45.150  45.159  1.00  0.00    -0.083 Cl
HETATM   30  C   UNL     1      18.411  45.754  47.552  1.00  0.00     0.026 A 
HETATM   31  C   UNL     1      19.074  46.563  48.480  1.00  0.00     0.011 A 
ENDBRANCH   9  24
TORSDOF 4
ENDMDL
MODEL 6
REMARK VINA RESULT:      -8.0     17.221     19.241
REMARK  4 active torsions:
REMARK  status: ('A' for Active; 'I' for Inactive)
REMARK    1  A    between atoms: C_9  and  C_10 
REMARK    2  A    between atoms: C_18  and  C_19 
REMARK       I    between atoms: C_19  and  N_20 
REMARK    3  A    between atoms: N_20  and  C_21 
REMARK    4  A    between atoms: C_24  and  O_25 
ROOT
HETATM    1  C   UNL     1      35.435  47.106  67.002  1.00  0.00     0.070 C 
HETATM    2  C   UNL     1      36.603  48.016  66.710  1.00  0.00     0.037 C 
HETATM    3  N   UNL     1      36.670  49.169  67.487  1.00  0.00    -0.192 N 
HETATM    4  C   UNL     1      37.453  50.220  67.168  1.00  0.00     0.725 A 
HETATM    5  N   UNL     1      38.365  50.093  66.158  1.00  0.00    -0.084 N 
HETATM    6  N   UNL     1      39.006  51.257  65.924  1.00  0.00    -0.149 NA
HETATM    7  C   UNL     1      38.447  52.037  66.857  1.00  0.00     0.275 A 
HETATM    8  N   UNL     1      37.497  51.437  67.646  1.00  0.00    -0.054 NA
HETATM    9  C   UNL     1      38.593  48.852  65.409  1.00  0.00     0.202 C 
HETATM   10  C   UNL     1      37.510  47.821  65.718  1.00  0.00     0.062 C 
HETATM   11  H   UNL     1      35.916  49.331  68.152  1.00  0.00     0.184 HD
ENDROOT
BRANCH  10  12
HETATM   12  C   UNL     1      37.468  46.696  64.746  1.00  0.00     0.256 C 
HETATM   13  N   UNL     1      38.294  45.642  65.064  1.00  0.00    -0.323 N 
HETATM   14  H   UNL     1      38.876  45.741  65.884  1.00  0.00     0.169 HD
HETATM   15  O   UNL     1      36.769  46.821  63.747  1.00  0.00    -0.267 OA
BRANCH  13  16
HETATM   16  C   UNL     1      38.407  44.416  64.373  1.00  0.00     0.035 A 
HETATM   17  C   UNL     1      37.546  43.334  64.557  1.00  0.00     0.032 A 
HETATM   18  C   UNL     1      37.738  42.145  63.842  1.00  0.00     0.039 A 
HETATM   19  C   UNL     1      38.786  42.018  62.932  1.00  0.00     0.068 A 
HETATM   20  C   UNL     1      39.657  43.090  62.750  1.00  0.00     0.039 A 
HETATM   21  C   UNL     1      39.465  44.282  63.464  1.00  0.00     0.032 A 
BRANCH  19  22
HETATM   22  O   UNL     1      38.855  40.806  62.304  1.00  0.00    -0.356 OA
HETATM   23  C   UNL     1      39.529  39.762  62.995  1.00  0.00     0.210 C 
ENDBRANCH  19  22
ENDBRANCH  13  16
ENDBRANCH  10  12
BRANCH   9  24
HETATM   24  C   UNL     1      39.994  48.307  65.694  1.00  0.00    -0.026 A 
HETATM   25  C   UNL     1      40.543  48.444  66.982  1.00  0.00     0.035 A 
HETATM   26  C   UNL     1      41.821  47.951  67.276  1.00  0.00     0.056 A 
HETATM   27 CL   UNL     1      42.411  48.155  68.887  1.00  0.00    -0.083 Cl
HETATM   28  C   UNL     1      42.570  47.319  66.279  1.00  0.00     0.055 A 
HETATM   29 CL   UNL     1      44.148  46.678  66.567  1.00  0.00    -0.083 Cl
HETATM   30  C   UNL     1      42.043  47.193  64.992  1.00  0.00     0.026 A 
HETATM   31  C   UNL     1      40.770  47.689  64.698  1.00  0.00     0.011 A 
ENDBRANCH   9  24
TORSDOF 4
ENDMDL
MODEL 7
REMARK VINA RESULT:      -7.8      6.340      8.928
REMARK  4 active torsions:
REMARK  status: ('A' for Active; 'I' for Inactive)
REMARK    1  A    between atoms: C_9  and  C_10 
REMARK    2  A    between atoms: C_18  and  C_19 
REMARK       I    between atoms: C_19  and  N_20 
REMARK    3  A    between atoms: N_20  and  C_21 
REMARK    4  A    between atoms: C_24  and  O_25 
ROOT
HETATM    1  C   UNL     1      23.144  51.241  48.316  1.00  0.00     0.070 C 
HETATM    2  C   UNL     1      21.731  50.731  48.456  1.00  0.00     0.037 C 
HETATM    3  N   UNL     1      20.763  51.708  48.677  1.00  0.00    -0.192 N 
HETATM    4  C   UNL     1      19.522  51.419  49.117  1.00  0.00     0.725 A 
HETATM    5  N   UNL     1      19.116  50.114  49.171  1.00  0.00    -0.084 N 
HETATM    6  N   UNL     1      17.882  50.003  49.704  1.00  0.00    -0.149 NA
HETATM    7  C   UNL     1      17.592  51.291  49.921  1.00  0.00     0.275 A 
HETATM    8  N   UNL     1      18.566  52.191  49.567  1.00  0.00    -0.054 NA
HETATM    9  C   UNL     1      19.937  48.981  48.728  1.00  0.00     0.202 C 
HETATM   10  C   UNL     1      21.375  49.421  48.459  1.00  0.00     0.062 C 
HETATM   11  H   UNL     1      21.081  52.670  48.769  1.00  0.00     0.184 HD
ENDROOT
BRANCH  10  12
HETATM   12  C   UNL     1      22.332  48.286  48.359  1.00  0.00     0.256 C 
HETATM   13  N   UNL     1      22.992  47.998  49.531  1.00  0.00    -0.323 N 
HETATM   14  H   UNL     1      22.810  48.596  50.325  1.00  0.00     0.169 HD
HETATM   15  O   UNL     1      22.489  47.758  47.264  1.00  0.00    -0.267 OA
BRANCH  13  16
HETATM   16  C   UNL     1      23.896  46.936  49.755  1.00  0.00     0.035 A 
HETATM   17  C   UNL     1      25.125  47.080  50.399  1.00  0.00     0.032 A 
HETATM   18  C   UNL     1      25.971  45.977  50.567  1.00  0.00     0.039 A 
HETATM   19  C   UNL     1      25.605  44.716  50.098  1.00  0.00     0.068 A 
HETATM   20  C   UNL     1      24.385  44.566  49.445  1.00  0.00     0.039 A 
HETATM   21  C   UNL     1      23.535  45.670  49.278  1.00  0.00     0.032 A 
BRANCH  19  22
HETATM   22  O   UNL     1      26.523  43.730  50.330  1.00  0.00    -0.356 OA
HETATM   23  C   UNL     1      26.551  43.173  51.637  1.00  0.00     0.210 C 
ENDBRANCH  19  22
ENDBRANCH  13  16
ENDBRANCH  10  12
BRANCH   9  24
HETATM   24  C   UNL     1      19.308  48.314  47.503  1.00  0.00    -0.026 A 
HETATM   25  C   UNL     1      18.997  46.943  47.542  1.00  0.00     0.035 A 
HETATM   26  C   UNL     1      18.415  46.305  46.439  1.00  0.00     0.056 A 
HETATM   27 CL   UNL     1      18.059  44.620  46.580  1.00  0.00    -0.083 Cl
HETATM   28  C   UNL     1      18.142  47.033  45.277  1.00  0.00     0.055 A 
HETATM   29 CL   UNL     1      17.418  46.319  43.880  1.00  0.00    -0.083 Cl
HETATM   30  C   UNL     1      18.462  48.391  45.220  1.00  0.00     0.026 A 
HETATM   31  C   UNL     1      19.047  49.026  46.319  1.00  0.00     0.011 A 
ENDBRANCH   9  24
TORSDOF 4
ENDMDL
MODEL 8
REMARK VINA RESULT:      -7.6      7.578     11.733
REMARK  4 active torsions:
REMARK  status: ('A' for Active; 'I' for Inactive)
REMARK    1  A    between atoms: C_9  and  C_10 
REMARK    2  A    between atoms: C_18  and  C_19 
REMARK       I    between atoms: C_19  and  N_20 
REMARK    3  A    between atoms: N_20  and  C_21 
REMARK    4  A    between atoms: C_24  and  O_25 
ROOT
HETATM    1  C   UNL     1      18.854  49.602  50.770  1.00  0.00     0.070 C 
HETATM    2  C   UNL     1      20.011  49.384  49.827  1.00  0.00     0.037 C 
HETATM    3  N   UNL     1      21.193  50.036  50.172  1.00  0.00    -0.192 N 
HETATM    4  C   UNL     1      22.216  50.198  49.308  1.00  0.00     0.725 A 
HETATM    5  N   UNL     1      22.192  49.540  48.110  1.00  0.00    -0.084 N 
HETATM    6  N   UNL     1      23.250  49.874  47.343  1.00  0.00    -0.149 NA
HETATM    7  C   UNL     1      23.889  50.719  48.162  1.00  0.00     0.275 A 
HETATM    8  N   UNL     1      23.293  50.937  49.378  1.00  0.00    -0.054 NA
HETATM    9  C   UNL     1      21.131  48.610  47.706  1.00  0.00     0.202 C 
HETATM   10  C   UNL     1      19.946  48.683  48.666  1.00  0.00     0.062 C 
HETATM   11  H   UNL     1      21.175  50.633  50.995  1.00  0.00     0.184 HD
ENDROOT
BRANCH  10  12
HETATM   12  C   UNL     1      18.710  48.051  48.131  1.00  0.00     0.256 C 
HETATM   13  N   UNL     1      17.976  48.862  47.296  1.00  0.00    -0.323 N 
HETATM   14  H   UNL     1      18.306  49.807  47.160  1.00  0.00     0.169 HD
HETATM   15  O   UNL     1      18.429  46.919  48.509  1.00  0.00    -0.267 OA
BRANCH  13  16
HETATM   16  C   UNL     1      16.807  48.510  46.587  1.00  0.00     0.035 A 
HETATM   17  C   UNL     1      15.512  48.764  47.041  1.00  0.00     0.032 A 
HETATM   18  C   UNL     1      14.404  48.367  46.283  1.00  0.00     0.039 A 
HETATM   19  C   UNL     1      14.568  47.715  45.061  1.00  0.00     0.068 A 
HETATM   20  C   UNL     1      15.857  47.448  44.606  1.00  0.00     0.039 A 
HETATM   21  C   UNL     1      16.968  47.848  45.363  1.00  0.00     0.032 A 
BRANCH  19  22
HETATM   22  O   UNL     1      13.403  47.386  44.427  1.00  0.00    -0.356 OA
HETATM   23  C   UNL     1      13.305  46.066  43.909  1.00  0.00     0.210 C 
ENDBRANCH  19  22
ENDBRANCH  13  16
ENDBRANCH  10  12
BRANCH   9  24
HETATM   24  C   UNL     1      21.684  47.188  47.591  1.00  0.00    -0.026 A 
HETATM   25  C   UNL     1      22.401  46.634  48.667  1.00  0.00     0.035 A 
HETATM   26  C   UNL     1      22.915  45.333  48.595  1.00  0.00     0.056 A 
HETATM   27 CL   UNL     1      23.776  44.730  49.967  1.00  0.00    -0.083 Cl
HETATM   28  C   UNL     1      22.723  44.570  47.439  1.00  0.00     0.055 A 
HETATM   29 CL   UNL     1      23.318  42.956  47.279  1.00  0.00    -0.083 Cl
HETATM   30  C   UNL     1      22.027  45.116  46.358  1.00  0.00     0.026 A 
HETATM   31  C   UNL     1      21.518  46.416  46.429  1.00  0.00     0.011 A 
ENDBRANCH   9  24
TORSDOF 4
ENDMDL
MODEL 9
REMARK VINA RESULT:      -7.6     10.105     13.835
REMARK  4 active torsions:
REMARK  status: ('A' for Active; 'I' for Inactive)
REMARK    1  A    between atoms: C_9  and  C_10 
REMARK    2  A    between atoms: C_18  and  C_19 
REMARK       I    between atoms: C_19  and  N_20 
REMARK    3  A    between atoms: N_20  and  C_21 
REMARK    4  A    between atoms: C_24  and  O_25 
ROOT
HETATM    1  C   UNL     1      18.335  48.554  51.132  1.00  0.00     0.070 C 
HETATM    2  C   UNL     1      19.108  49.012  49.920  1.00  0.00     0.037 C 
HETATM    3  N   UNL     1      20.450  48.639  49.892  1.00  0.00    -0.192 N 
HETATM    4  C   UNL     1      21.347  49.203  49.057  1.00  0.00     0.725 A 
HETATM    5  N   UNL     1      20.908  50.032  48.063  1.00  0.00    -0.084 N 
HETATM    6  N   UNL     1      21.938  50.564  47.374  1.00  0.00    -0.149 NA
HETATM    7  C   UNL     1      22.973  49.983  47.993  1.00  0.00     0.275 A 
HETATM    8  N   UNL     1      22.653  49.136  49.024  1.00  0.00    -0.054 NA
HETATM    9  C   UNL     1      19.493  50.322  47.801  1.00  0.00     0.202 C 
HETATM   10  C   UNL     1      18.611  49.802  48.934  1.00  0.00     0.062 C 
HETATM   11  H   UNL     1      20.812  48.133  50.697  1.00  0.00     0.184 HD
ENDROOT
BRANCH  10  12
HETATM   12  C   UNL     1      17.234  50.365  48.918  1.00  0.00     0.256 C 
HETATM   13  N   UNL     1      17.141  51.646  49.414  1.00  0.00    -0.323 N 
HETATM   14  H   UNL     1      17.986  52.064  49.779  1.00  0.00     0.169 HD
HETATM   15  O   UNL     1      16.319  49.647  48.532  1.00  0.00    -0.267 OA
BRANCH  13  16
HETATM   16  C   UNL     1      15.986  52.457  49.454  1.00  0.00     0.035 A 
HETATM   17  C   UNL     1      15.269  52.738  50.618  1.00  0.00     0.032 A 
HETATM   18  C   UNL     1      14.123  53.540  50.568  1.00  0.00     0.039 A 
HETATM   19  C   UNL     1      13.673  54.074  49.361  1.00  0.00     0.068 A 
HETATM   20  C   UNL     1      14.376  53.789  48.194  1.00  0.00     0.039 A 
HETATM   21  C   UNL     1      15.527  52.988  48.242  1.00  0.00     0.032 A 
BRANCH  19  22
HETATM   22  O   UNL     1      12.544  54.837  49.458  1.00  0.00    -0.356 OA
HETATM   23  C   UNL     1      12.202  55.317  50.752  1.00  0.00     0.210 C 
ENDBRANCH  19  22
ENDBRANCH  13  16
ENDBRANCH  10  12
BRANCH   9  24
HETATM   24  C   UNL     1      19.074  49.751  46.445  1.00  0.00    -0.026 A 
HETATM   25  C   UNL     1      18.721  50.627  45.402  1.00  0.00     0.035 A 
HETATM   26  C   UNL     1      18.338  50.136  44.148  1.00  0.00     0.056 A 
HETATM   27 CL   UNL     1      17.930  51.284  42.924  1.00  0.00    -0.083 Cl
HETATM   28  C   UNL     1      18.297  48.756  43.923  1.00  0.00     0.055 A 
HETATM   29 CL   UNL     1      17.845  48.074  42.401  1.00  0.00    -0.083 Cl
HETATM   30  C   UNL     1      18.629  47.876  44.956  1.00  0.00     0.026 A 
HETATM   31  C   UNL     1      19.007  48.368  46.208  1.00  0.00     0.011 A 
ENDBRANCH   9  24
TORSDOF 4
ENDMDL
MODEL 10
REMARK VINA RESULT:      -7.5      7.071      9.661
REMARK  4 active torsions:
REMARK  status: ('A' for Active; 'I' for Inactive)
REMARK    1  A    between atoms: C_9  and  C_10 
REMARK    2  A    between atoms: C_18  and  C_19 
REMARK       I    between atoms: C_19  and  N_20 
REMARK    3  A    between atoms: N_20  and  C_21 
REMARK    4  A    between atoms: C_24  and  O_25 
ROOT
HETATM    1  C   UNL     1      19.318  52.132  48.107  1.00  0.00     0.070 C 
HETATM    2  C   UNL     1      18.572  50.871  47.744  1.00  0.00     0.037 C 
HETATM    3  N   UNL     1      17.325  51.065  47.154  1.00  0.00    -0.192 N 
HETATM    4  C   UNL     1      16.409  50.082  47.043  1.00  0.00     0.725 A 
HETATM    5  N   UNL     1      16.768  48.796  47.339  1.00  0.00    -0.084 N 
HETATM    6  N   UNL     1      15.715  47.957  47.248  1.00  0.00    -0.149 NA
HETATM    7  C   UNL     1      14.757  48.808  46.861  1.00  0.00     0.275 A 
HETATM    8  N   UNL     1      15.143  50.117  46.716  1.00  0.00    -0.054 NA
HETATM    9  C   UNL     1      18.123  48.391  47.730  1.00  0.00     0.202 C 
HETATM   10  C   UNL     1      18.994  49.612  48.022  1.00  0.00     0.062 C 
HETATM   11  H   UNL     1      16.999  52.024  47.053  1.00  0.00     0.184 HD
ENDROOT
BRANCH  10  12
HETATM   12  C   UNL     1      20.244  49.284  48.759  1.00  0.00     0.256 C 
HETATM   13  N   UNL     1      21.376  49.274  47.976  1.00  0.00    -0.323 N 
HETATM   14  H   UNL     1      21.257  49.440  46.987  1.00  0.00     0.169 HD
HETATM   15  O   UNL     1      20.157  49.003  49.949  1.00  0.00    -0.267 OA
BRANCH  13  16
HETATM   16  C   UNL     1      22.704  49.072  48.411  1.00  0.00     0.035 A 
HETATM   17  C   UNL     1      23.761  49.935  48.119  1.00  0.00     0.032 A 
HETATM   18  C   UNL     1      25.054  49.653  48.577  1.00  0.00     0.039 A 
HETATM   19  C   UNL     1      25.314  48.510  49.332  1.00  0.00     0.068 A 
HETATM   20  C   UNL     1      24.266  47.638  49.618  1.00  0.00     0.039 A 
HETATM   21  C   UNL     1      22.970  47.920  49.163  1.00  0.00     0.032 A 
BRANCH  19  22
HETATM   22  O   UNL     1      26.617  48.359  49.712  1.00  0.00    -0.356 OA
HETATM   23  C   UNL     1      27.582  49.146  49.026  1.00  0.00     0.210 C 
ENDBRANCH  19  22
ENDBRANCH  13  16
ENDBRANCH  10  12
BRANCH   9  24
HETATM   24  C   UNL     1      18.742  47.494  46.657  1.00  0.00    -0.026 A 
HETATM   25  C   UNL     1      19.358  46.286  47.033  1.00  0.00     0.035 A 
HETATM   26  C   UNL     1      19.929  45.440  46.074  1.00  0.00     0.056 A 
HETATM   27 CL   UNL     1      20.656  43.973  46.625  1.00  0.00    -0.083 Cl
HETATM   28  C   UNL     1      19.896  45.797  44.722  1.00  0.00     0.055 A 
HETATM   29 CL   UNL     1      20.570  44.803  43.480  1.00  0.00    -0.083 Cl
HETATM   30  C   UNL     1      19.303  47.002  44.339  1.00  0.00     0.026 A 
HETATM   31  C   UNL     1      18.737  47.847  45.297  1.00  0.00     0.011 A 
ENDBRANCH   9  24
TORSDOF 4
ENDMDL
