MODEL 1
REMARK VINA RESULT:     -10.4      0.000      0.000
REMARK  6 active torsions:
REMARK  status: ('A' for Active; 'I' for Inactive)
REMARK    1  A    between atoms: C_9  and  C_10 
REMARK       I    between atoms: C_10  and  N_11 
REMARK    2  A    between atoms: N_11  and  N_12 
REMARK       I    between atoms: N_12  and  C_13 
REMARK       I    between atoms: C_13  and  N_14 
REMARK    3  A    between atoms: N_14  and  C_15 
REMARK    4  A    between atoms: C_15  and  C_16 
REMARK    5  A    between atoms: C_16  and  C_17 
REMARK    6  A    between atoms: C_16  and  C_27 
ROOT
HETATM    1  N   UNL     1      24.492  46.962  51.415  1.00  0.00    -0.249 N 
HETATM    2  C   UNL     1      24.525  47.528  50.161  1.00  0.00     0.334 C 
HETATM    3  N   UNL     1      23.293  48.008  49.795  1.00  0.00    -0.341 N 
HETATM    4  O   UNL     1      25.528  47.574  49.460  1.00  0.00    -0.246 OA
HETATM    5  H   UNL     1      23.783  47.254  52.079  1.00  0.00     0.192 HD
HETATM    6  H   UNL     1      22.510  47.512  50.199  1.00  0.00     0.164 HD
ENDROOT
BRANCH   1   7
HETATM    7  N   UNL     1      25.685  46.472  51.963  1.00  0.00    -0.261 N 
HETATM    8  C   UNL     1      25.639  45.248  52.600  1.00  0.00     0.291 C 
HETATM    9  O   UNL     1      24.605  44.687  52.932  1.00  0.00    -0.264 OA
HETATM   10  H   UNL     1      26.555  46.760  51.505  1.00  0.00     0.190 HD
BRANCH   8  11
HETATM   11  C   UNL     1      27.021  44.620  52.820  1.00  0.00     0.157 A 
HETATM   12  C   UNL     1      27.852  44.959  54.000  1.00  0.00     0.016 A 
HETATM   13  C   UNL     1      27.522  45.935  54.947  1.00  0.00     0.015 A 
HETATM   14  C   UNL     1      29.040  44.243  54.159  1.00  0.00     0.046 A 
HETATM   15  C   UNL     1      28.351  46.160  56.052  1.00  0.00     0.001 A 
HETATM   16  C   UNL     1      29.520  45.420  56.217  1.00  0.00     0.001 A 
HETATM   17  C   UNL     1      29.871  44.464  55.266  1.00  0.00     0.018 A 
HETATM   18  C   UNL     1      29.435  43.259  53.138  1.00  0.00     0.272 A 
HETATM   19  O   UNL     1      30.471  42.610  53.237  1.00  0.00    -0.266 OA
HETATM   20  N   UNL     1      28.584  43.125  52.068  1.00  0.00    -0.242 N 
HETATM   21  N   UNL     1      27.391  43.759  51.911  1.00  0.00    -0.166 NA
HETATM   22  H   UNL     1      28.841  42.447  51.356  1.00  0.00     0.192 HD
ENDBRANCH   8  11
ENDBRANCH   1   7
BRANCH   3  23
HETATM   23  C   UNL     1      23.078  48.542  48.458  1.00  0.00     0.139 C 
BRANCH  23  24
HETATM   24  C   UNL     1      21.735  48.155  47.794  1.00  0.00     0.079 C 
BRANCH  24  25
HETATM   25  C   UNL     1      20.519  48.542  48.610  1.00  0.00    -0.020 A 
HETATM   26  C   UNL     1      19.981  49.870  48.746  1.00  0.00    -0.001 A 
HETATM   27  C   UNL     1      18.868  49.792  49.583  1.00  0.00     0.042 A 
HETATM   28  C   UNL     1      20.339  51.136  48.233  1.00  0.00     0.014 A 
HETATM   29  C   UNL     1      18.098  50.907  49.934  1.00  0.00     0.030 A 
HETATM   30  N   UNL     1      18.726  48.474  49.945  1.00  0.00    -0.365 N 
HETATM   31  C   UNL     1      18.475  52.146  49.411  1.00  0.00     0.002 A 
HETATM   32  C   UNL     1      19.579  52.262  48.572  1.00  0.00     0.001 A 
HETATM   33  H   UNL     1      17.998  48.123  50.551  1.00  0.00     0.165 HD
HETATM   34  C   UNL     1      19.709  47.717  49.370  1.00  0.00     0.097 A 
ENDBRANCH  24  25
BRANCH  24  35
HETATM   35  C   UNL     1      21.667  46.719  47.282  1.00  0.00    -0.007 A 
HETATM   36  S   UNL     1      20.794  46.270  45.873  1.00  0.00    -0.106 SA
HETATM   37  C   UNL     1      21.236  44.628  46.029  1.00  0.00     0.050 A 
HETATM   38  C   UNL     1      22.037  44.411  47.126  1.00  0.00     0.008 A 
HETATM   39  C   UNL     1      22.288  45.614  47.845  1.00  0.00     0.016 A 
ENDBRANCH  24  35
ENDBRANCH  23  24
ENDBRANCH   3  23
TORSDOF 6
ENDMDL
MODEL 2
REMARK VINA RESULT:     -10.3      1.749      2.426
REMARK  6 active torsions:
REMARK  status: ('A' for Active; 'I' for Inactive)
REMARK    1  A    between atoms: C_9  and  C_10 
REMARK       I    between atoms: C_10  and  N_11 
REMARK    2  A    between atoms: N_11  and  N_12 
REMARK       I    between atoms: N_12  and  C_13 
REMARK       I    between atoms: C_13  and  N_14 
REMARK    3  A    between atoms: N_14  and  C_15 
REMARK    4  A    between atoms: C_15  and  C_16 
REMARK    5  A    between atoms: C_16  and  C_17 
REMARK    6  A    between atoms: C_16  and  C_27 
ROOT
HETATM    1  N   UNL     1      24.553  46.291  51.286  1.00  0.00    -0.249 N 
HETATM    2  C   UNL     1      24.545  47.328  50.382  1.00  0.00     0.334 C 
HETATM    3  N   UNL     1      23.510  47.207  49.488  1.00  0.00    -0.341 N 
HETATM    4  O   UNL     1      25.373  48.231  50.371  1.00  0.00    -0.246 OA
HETATM    5  H   UNL     1      23.693  45.793  51.488  1.00  0.00     0.192 HD
HETATM    6  H   UNL     1      23.228  46.255  49.298  1.00  0.00     0.164 HD
ENDROOT
BRANCH   1   7
HETATM    7  N   UNL     1      25.517  46.295  52.304  1.00  0.00    -0.261 N 
HETATM    8  C   UNL     1      25.552  45.206  53.152  1.00  0.00     0.291 C 
HETATM    9  O   UNL     1      24.663  44.370  53.233  1.00  0.00    -0.264 OA
HETATM   10  H   UNL     1      26.384  46.805  52.115  1.00  0.00     0.190 HD
BRANCH   8  11
HETATM   11  C   UNL     1      26.848  45.107  53.967  1.00  0.00     0.157 A 
HETATM   12  C   UNL     1      27.903  44.120  53.637  1.00  0.00     0.016 A 
HETATM   13  C   UNL     1      27.784  43.134  52.649  1.00  0.00     0.015 A 
HETATM   14  C   UNL     1      29.088  44.195  54.371  1.00  0.00     0.046 A 
HETATM   15  C   UNL     1      28.850  42.268  52.382  1.00  0.00     0.001 A 
HETATM   16  C   UNL     1      30.039  42.370  53.101  1.00  0.00     0.001 A 
HETATM   17  C   UNL     1      30.158  43.330  54.103  1.00  0.00     0.018 A 
HETATM   18  C   UNL     1      29.205  45.182  55.457  1.00  0.00     0.272 A 
HETATM   19  O   UNL     1      30.226  45.281  56.128  1.00  0.00    -0.266 OA
HETATM   20  N   UNL     1      28.101  45.969  55.678  1.00  0.00    -0.242 N 
HETATM   21  N   UNL     1      26.956  45.966  54.945  1.00  0.00    -0.166 NA
HETATM   22  H   UNL     1      28.167  46.659  56.423  1.00  0.00     0.192 HD
ENDBRANCH   8  11
ENDBRANCH   1   7
BRANCH   3  23
HETATM   23  C   UNL     1      23.385  48.135  48.374  1.00  0.00     0.139 C 
BRANCH  23  24
HETATM   24  C   UNL     1      21.943  48.382  47.871  1.00  0.00     0.079 C 
BRANCH  24  25
HETATM   25  C   UNL     1      21.269  49.573  48.519  1.00  0.00    -0.020 A 
HETATM   26  C   UNL     1      20.190  50.342  47.957  1.00  0.00    -0.001 A 
HETATM   27  C   UNL     1      19.868  51.348  48.868  1.00  0.00     0.042 A 
HETATM   28  C   UNL     1      19.454  50.274  46.754  1.00  0.00     0.014 A 
HETATM   29  C   UNL     1      18.855  52.287  48.640  1.00  0.00     0.030 A 
HETATM   30  N   UNL     1      20.710  51.204  49.944  1.00  0.00    -0.365 N 
HETATM   31  C   UNL     1      18.143  52.195  47.441  1.00  0.00     0.002 A 
HETATM   32  C   UNL     1      18.436  51.204  46.510  1.00  0.00     0.001 A 
HETATM   33  H   UNL     1      20.702  51.800  50.760  1.00  0.00     0.165 HD
HETATM   34  C   UNL     1      21.554  50.146  49.746  1.00  0.00     0.097 A 
ENDBRANCH  24  25
BRANCH  24  35
HETATM   35  C   UNL     1      21.054  47.142  47.849  1.00  0.00    -0.007 A 
HETATM   36  S   UNL     1      21.295  45.838  46.757  1.00  0.00    -0.106 SA
HETATM   37  C   UNL     1      19.973  44.962  47.390  1.00  0.00     0.050 A 
HETATM   38  C   UNL     1      19.352  45.635  48.416  1.00  0.00     0.008 A 
HETATM   39  C   UNL     1      19.976  46.887  48.683  1.00  0.00     0.016 A 
ENDBRANCH  24  35
ENDBRANCH  23  24
ENDBRANCH   3  23
TORSDOF 6
ENDMDL
MODEL 3
REMARK VINA RESULT:     -10.2      1.459      2.032
REMARK  6 active torsions:
REMARK  status: ('A' for Active; 'I' for Inactive)
REMARK    1  A    between atoms: C_9  and  C_10 
REMARK       I    between atoms: C_10  and  N_11 
REMARK    2  A    between atoms: N_11  and  N_12 
REMARK       I    between atoms: N_12  and  C_13 
REMARK       I    between atoms: C_13  and  N_14 
REMARK    3  A    between atoms: N_14  and  C_15 
REMARK    4  A    between atoms: C_15  and  C_16 
REMARK    5  A    between atoms: C_16  and  C_17 
REMARK    6  A    between atoms: C_16  and  C_27 
ROOT
HETATM    1  N   UNL     1      24.631  46.100  51.418  1.00  0.00    -0.249 N 
HETATM    2  C   UNL     1      24.532  47.109  50.488  1.00  0.00     0.334 C 
HETATM    3  N   UNL     1      23.492  46.890  49.619  1.00  0.00    -0.341 N 
HETATM    4  O   UNL     1      25.293  48.067  50.437  1.00  0.00    -0.246 OA
HETATM    5  H   UNL     1      23.812  45.548  51.650  1.00  0.00     0.192 HD
HETATM    6  H   UNL     1      23.275  45.915  49.459  1.00  0.00     0.164 HD
ENDROOT
BRANCH   1   7
HETATM    7  N   UNL     1      25.610  46.200  52.416  1.00  0.00    -0.261 N 
HETATM    8  C   UNL     1      25.649  45.205  53.373  1.00  0.00     0.291 C 
HETATM    9  O   UNL     1      24.754  44.393  53.554  1.00  0.00    -0.264 OA
HETATM   10  H   UNL     1      26.479  46.678  52.162  1.00  0.00     0.190 HD
BRANCH   8  11
HETATM   11  C   UNL     1      26.956  45.179  54.175  1.00  0.00     0.157 A 
HETATM   12  C   UNL     1      28.035  44.207  53.875  1.00  0.00     0.016 A 
HETATM   13  C   UNL     1      27.932  43.176  52.934  1.00  0.00     0.015 A 
HETATM   14  C   UNL     1      29.225  44.347  54.591  1.00  0.00     0.046 A 
HETATM   15  C   UNL     1      29.019  42.328  52.691  1.00  0.00     0.001 A 
HETATM   16  C   UNL     1      30.212  42.495  53.389  1.00  0.00     0.001 A 
HETATM   17  C   UNL     1      30.316  43.501  54.347  1.00  0.00     0.018 A 
HETATM   18  C   UNL     1      29.327  45.384  55.630  1.00  0.00     0.272 A 
HETATM   19  O   UNL     1      30.353  45.541  56.283  1.00  0.00    -0.266 OA
HETATM   20  N   UNL     1      28.204  46.150  55.831  1.00  0.00    -0.242 N 
HETATM   21  N   UNL     1      27.051  46.082  55.113  1.00  0.00    -0.166 NA
HETATM   22  H   UNL     1      28.260  46.873  56.543  1.00  0.00     0.192 HD
ENDBRANCH   8  11
ENDBRANCH   1   7
BRANCH   3  23
HETATM   23  C   UNL     1      23.281  47.776  48.484  1.00  0.00     0.139 C 
BRANCH  23  24
HETATM   24  C   UNL     1      21.921  47.623  47.763  1.00  0.00     0.079 C 
BRANCH  24  25
HETATM   25  C   UNL     1      20.730  47.978  48.629  1.00  0.00    -0.020 A 
HETATM   26  C   UNL     1      20.261  49.308  48.917  1.00  0.00    -0.001 A 
HETATM   27  C   UNL     1      19.149  49.193  49.752  1.00  0.00     0.042 A 
HETATM   28  C   UNL     1      20.680  50.603  48.542  1.00  0.00     0.014 A 
HETATM   29  C   UNL     1      18.439  50.300  50.232  1.00  0.00     0.030 A 
HETATM   30  N   UNL     1      18.943  47.852  49.968  1.00  0.00    -0.365 N 
HETATM   31  C   UNL     1      18.876  51.569  49.844  1.00  0.00     0.002 A 
HETATM   32  C   UNL     1      19.981  51.721  49.011  1.00  0.00     0.001 A 
HETATM   33  H   UNL     1      18.200  47.473  50.539  1.00  0.00     0.165 HD
HETATM   34  C   UNL     1      19.883  47.116  49.302  1.00  0.00     0.097 A 
ENDBRANCH  24  25
BRANCH  24  35
HETATM   35  C   UNL     1      21.736  46.302  47.022  1.00  0.00    -0.007 A 
HETATM   36  S   UNL     1      20.730  46.139  45.639  1.00  0.00    -0.106 SA
HETATM   37  C   UNL     1      21.096  44.479  45.474  1.00  0.00     0.050 A 
HETATM   38  C   UNL     1      21.969  44.044  46.443  1.00  0.00     0.008 A 
HETATM   39  C   UNL     1      22.340  45.093  47.332  1.00  0.00     0.016 A 
ENDBRANCH  24  35
ENDBRANCH  23  24
ENDBRANCH   3  23
TORSDOF 6
ENDMDL
MODEL 4
REMARK VINA RESULT:     -10.2      1.592      1.895
REMARK  6 active torsions:
REMARK  status: ('A' for Active; 'I' for Inactive)
REMARK    1  A    between atoms: C_9  and  C_10 
REMARK       I    between atoms: C_10  and  N_11 
REMARK    2  A    between atoms: N_11  and  N_12 
REMARK       I    between atoms: N_12  and  C_13 
REMARK       I    between atoms: C_13  and  N_14 
REMARK    3  A    between atoms: N_14  and  C_15 
REMARK    4  A    between atoms: C_15  and  C_16 
REMARK    5  A    between atoms: C_16  and  C_17 
REMARK    6  A    between atoms: C_16  and  C_27 
ROOT
HETATM    1  N   UNL     1      24.436  46.237  51.068  1.00  0.00    -0.249 N 
HETATM    2  C   UNL     1      24.583  47.217  50.114  1.00  0.00     0.334 C 
HETATM    3  N   UNL     1      23.419  47.920  49.932  1.00  0.00    -0.341 N 
HETATM    4  O   UNL     1      25.622  47.415  49.494  1.00  0.00    -0.246 OA
HETATM    5  H   UNL     1      23.722  46.334  51.782  1.00  0.00     0.192 HD
HETATM    6  H   UNL     1      22.576  47.391  50.111  1.00  0.00     0.164 HD
ENDROOT
BRANCH   1   7
HETATM    7  N   UNL     1      25.552  45.462  51.414  1.00  0.00    -0.261 N 
HETATM    8  C   UNL     1      25.399  44.545  52.435  1.00  0.00     0.291 C 
HETATM    9  O   UNL     1      24.454  44.532  53.210  1.00  0.00    -0.264 OA
HETATM   10  H   UNL     1      26.225  45.266  50.668  1.00  0.00     0.190 HD
BRANCH   8  11
HETATM   11  C   UNL     1      26.517  43.495  52.486  1.00  0.00     0.157 A 
HETATM   12  C   UNL     1      27.694  43.653  53.373  1.00  0.00     0.016 A 
HETATM   13  C   UNL     1      27.954  44.788  54.149  1.00  0.00     0.015 A 
HETATM   14  C   UNL     1      28.591  42.584  53.424  1.00  0.00     0.046 A 
HETATM   15  C   UNL     1      29.074  44.832  54.987  1.00  0.00     0.001 A 
HETATM   16  C   UNL     1      29.947  43.749  55.053  1.00  0.00     0.001 A 
HETATM   17  C   UNL     1      29.712  42.624  54.265  1.00  0.00     0.018 A 
HETATM   18  C   UNL     1      28.368  41.410  52.565  1.00  0.00     0.272 A 
HETATM   19  O   UNL     1      29.131  40.450  52.577  1.00  0.00    -0.266 OA
HETATM   20  N   UNL     1      27.266  41.462  51.746  1.00  0.00    -0.242 N 
HETATM   21  N   UNL     1      26.339  42.456  51.714  1.00  0.00    -0.166 NA
HETATM   22  H   UNL     1      27.096  40.657  51.149  1.00  0.00     0.192 HD
ENDBRANCH   8  11
ENDBRANCH   1   7
BRANCH   3  23
HETATM   23  C   UNL     1      23.321  48.926  48.885  1.00  0.00     0.139 C 
BRANCH  23  24
HETATM   24  C   UNL     1      21.983  48.950  48.108  1.00  0.00     0.079 C 
BRANCH  24  25
HETATM   25  C   UNL     1      21.023  50.019  48.584  1.00  0.00    -0.020 A 
HETATM   26  C   UNL     1      19.937  50.579  47.823  1.00  0.00    -0.001 A 
HETATM   27  C   UNL     1      19.306  51.532  48.624  1.00  0.00     0.042 A 
HETATM   28  C   UNL     1      19.430  50.363  46.524  1.00  0.00     0.014 A 
HETATM   29  C   UNL     1      18.202  52.278  48.195  1.00  0.00     0.030 A 
HETATM   30  N   UNL     1      19.973  51.556  49.825  1.00  0.00    -0.365 N 
HETATM   31  C   UNL     1      17.722  52.043  46.904  1.00  0.00     0.002 A 
HETATM   32  C   UNL     1      18.326  51.099  46.078  1.00  0.00     0.001 A 
HETATM   33  H   UNL     1      19.732  52.157  50.601  1.00  0.00     0.165 HD
HETATM   34  C   UNL     1      21.003  50.656  49.813  1.00  0.00     0.097 A 
ENDBRANCH  24  25
BRANCH  24  35
HETATM   35  C   UNL     1      21.315  47.587  47.945  1.00  0.00    -0.007 A 
HETATM   36  S   UNL     1      19.890  47.139  48.793  1.00  0.00    -0.106 SA
HETATM   37  C   UNL     1      19.847  45.597  48.060  1.00  0.00     0.050 A 
HETATM   38  C   UNL     1      20.889  45.415  47.182  1.00  0.00     0.008 A 
HETATM   39  C   UNL     1      21.732  46.560  47.113  1.00  0.00     0.016 A 
ENDBRANCH  24  35
ENDBRANCH  23  24
ENDBRANCH   3  23
TORSDOF 6
ENDMDL
MODEL 5
REMARK VINA RESULT:     -10.1      3.018     10.250
REMARK  6 active torsions:
REMARK  status: ('A' for Active; 'I' for Inactive)
REMARK    1  A    between atoms: C_9  and  C_10 
REMARK       I    between atoms: C_10  and  N_11 
REMARK    2  A    between atoms: N_11  and  N_12 
REMARK       I    between atoms: N_12  and  C_13 
REMARK       I    between atoms: C_13  and  N_14 
REMARK    3  A    between atoms: N_14  and  C_15 
REMARK    4  A    between atoms: C_15  and  C_16 
REMARK    5  A    between atoms: C_16  and  C_17 
REMARK    6  A    between atoms: C_16  and  C_27 
ROOT
HETATM    1  N   UNL     1      24.035  47.856  50.046  1.00  0.00    -0.249 N 
HETATM    2  C   UNL     1      24.501  46.575  49.861  1.00  0.00     0.334 C 
HETATM    3  N   UNL     1      25.737  46.402  50.433  1.00  0.00    -0.341 N 
HETATM    4  O   UNL     1      23.891  45.710  49.245  1.00  0.00    -0.246 OA
HETATM    5  H   UNL     1      24.373  48.405  50.829  1.00  0.00     0.192 HD
HETATM    6  H   UNL     1      26.304  47.239  50.468  1.00  0.00     0.164 HD
ENDROOT
BRANCH   1   7
HETATM    7  N   UNL     1      22.758  48.182  49.570  1.00  0.00    -0.261 N 
HETATM    8  C   UNL     1      22.678  48.822  48.349  1.00  0.00     0.291 C 
HETATM    9  O   UNL     1      23.629  49.336  47.780  1.00  0.00    -0.264 OA
HETATM   10  H   UNL     1      21.988  47.574  49.863  1.00  0.00     0.190 HD
BRANCH   8  11
HETATM   11  C   UNL     1      21.272  48.792  47.734  1.00  0.00     0.157 A 
HETATM   12  C   UNL     1      20.362  49.958  47.814  1.00  0.00     0.016 A 
HETATM   13  C   UNL     1      20.637  51.130  48.529  1.00  0.00     0.015 A 
HETATM   14  C   UNL     1      19.153  49.862  47.122  1.00  0.00     0.046 A 
HETATM   15  C   UNL     1      19.731  52.197  48.516  1.00  0.00     0.001 A 
HETATM   16  C   UNL     1      18.541  52.102  47.799  1.00  0.00     0.001 A 
HETATM   17  C   UNL     1      18.245  50.931  47.106  1.00  0.00     0.018 A 
HETATM   18  C   UNL     1      18.818  48.613  46.420  1.00  0.00     0.272 A 
HETATM   19  O   UNL     1      17.767  48.485  45.802  1.00  0.00    -0.266 OA
HETATM   20  N   UNL     1      19.744  47.602  46.512  1.00  0.00    -0.242 N 
HETATM   21  N   UNL     1      20.956  47.681  47.123  1.00  0.00    -0.166 NA
HETATM   22  H   UNL     1      19.529  46.734  46.029  1.00  0.00     0.192 HD
ENDBRANCH   8  11
ENDBRANCH   1   7
BRANCH   3  23
HETATM   23  C   UNL     1      26.464  45.155  50.255  1.00  0.00     0.139 C 
BRANCH  23  24
HETATM   24  C   UNL     1      26.062  44.007  51.210  1.00  0.00     0.079 C 
BRANCH  24  25
HETATM   25  C   UNL     1      26.650  44.137  52.600  1.00  0.00    -0.020 A 
HETATM   26  C   UNL     1      27.978  43.749  52.996  1.00  0.00    -0.001 A 
HETATM   27  C   UNL     1      28.114  44.032  54.355  1.00  0.00     0.042 A 
HETATM   28  C   UNL     1      29.080  43.180  52.321  1.00  0.00     0.014 A 
HETATM   29  C   UNL     1      29.289  43.777  55.073  1.00  0.00     0.030 A 
HETATM   30  N   UNL     1      26.924  44.573  54.777  1.00  0.00    -0.365 N 
HETATM   31  C   UNL     1      30.363  43.214  54.379  1.00  0.00     0.002 A 
HETATM   32  C   UNL     1      30.263  42.919  53.023  1.00  0.00     0.001 A 
HETATM   33  H   UNL     1      26.736  44.874  55.723  1.00  0.00     0.165 HD
HETATM   34  C   UNL     1      26.039  44.640  53.736  1.00  0.00     0.097 A 
ENDBRANCH  24  25
BRANCH  24  35
HETATM   35  C   UNL     1      26.229  42.605  50.630  1.00  0.00    -0.007 A 
HETATM   36  S   UNL     1      26.830  42.315  49.047  1.00  0.00    -0.106 SA
HETATM   37  C   UNL     1      26.703  40.621  49.226  1.00  0.00     0.050 A 
HETATM   38  C   UNL     1      26.217  40.269  50.463  1.00  0.00     0.008 A 
HETATM   39  C   UNL     1      25.947  41.409  51.272  1.00  0.00     0.016 A 
ENDBRANCH  24  35
ENDBRANCH  23  24
ENDBRANCH   3  23
TORSDOF 6
ENDMDL
MODEL 6
REMARK VINA RESULT:      -9.8      1.662      2.000
REMARK  6 active torsions:
REMARK  status: ('A' for Active; 'I' for Inactive)
REMARK    1  A    between atoms: C_9  and  C_10 
REMARK       I    between atoms: C_10  and  N_11 
REMARK    2  A    between atoms: N_11  and  N_12 
REMARK       I    between atoms: N_12  and  C_13 
REMARK       I    between atoms: C_13  and  N_14 
REMARK    3  A    between atoms: N_14  and  C_15 
REMARK    4  A    between atoms: C_15  and  C_16 
REMARK    5  A    between atoms: C_16  and  C_17 
REMARK    6  A    between atoms: C_16  and  C_27 
ROOT
HETATM    1  N   UNL     1      24.302  45.939  50.555  1.00  0.00    -0.249 N 
HETATM    2  C   UNL     1      23.603  45.525  49.444  1.00  0.00     0.334 C 
HETATM    3  N   UNL     1      22.538  46.352  49.184  1.00  0.00    -0.341 N 
HETATM    4  O   UNL     1      23.890  44.531  48.789  1.00  0.00    -0.246 OA
HETATM    5  H   UNL     1      24.264  46.912  50.838  1.00  0.00     0.192 HD
HETATM    6  H   UNL     1      22.141  46.796  50.001  1.00  0.00     0.164 HD
ENDROOT
BRANCH   1   7
HETATM    7  N   UNL     1      25.454  45.233  50.925  1.00  0.00    -0.261 N 
HETATM    8  C   UNL     1      25.378  44.432  52.047  1.00  0.00     0.291 C 
HETATM    9  O   UNL     1      24.473  44.484  52.867  1.00  0.00    -0.264 OA
HETATM   10  H   UNL     1      26.096  44.970  50.171  1.00  0.00     0.190 HD
BRANCH   8  11
HETATM   11  C   UNL     1      26.526  43.420  52.155  1.00  0.00     0.157 A 
HETATM   12  C   UNL     1      27.646  43.611  53.107  1.00  0.00     0.016 A 
HETATM   13  C   UNL     1      27.824  44.749  53.902  1.00  0.00     0.015 A 
HETATM   14  C   UNL     1      28.574  42.572  53.203  1.00  0.00     0.046 A 
HETATM   15  C   UNL     1      28.894  44.825  54.802  1.00  0.00     0.001 A 
HETATM   16  C   UNL     1      29.798  43.771  54.911  1.00  0.00     0.001 A 
HETATM   17  C   UNL     1      29.644  42.644  54.106  1.00  0.00     0.018 A 
HETATM   18  C   UNL     1      28.438  41.397  52.328  1.00  0.00     0.272 A 
HETATM   19  O   UNL     1      29.232  40.463  52.378  1.00  0.00    -0.266 OA
HETATM   20  N   UNL     1      27.383  41.417  51.449  1.00  0.00    -0.242 N 
HETATM   21  N   UNL     1      26.426  42.381  51.371  1.00  0.00    -0.166 NA
HETATM   22  H   UNL     1      27.274  40.611  50.840  1.00  0.00     0.192 HD
ENDBRANCH   8  11
ENDBRANCH   1   7
BRANCH   3  23
HETATM   23  C   UNL     1      21.597  46.029  48.123  1.00  0.00     0.139 C 
BRANCH  23  24
HETATM   24  C   UNL     1      20.873  47.239  47.485  1.00  0.00     0.079 C 
BRANCH  24  25
HETATM   25  C   UNL     1      19.918  47.942  48.427  1.00  0.00    -0.020 A 
HETATM   26  C   UNL     1      19.801  49.366  48.603  1.00  0.00    -0.001 A 
HETATM   27  C   UNL     1      18.814  49.593  49.563  1.00  0.00     0.042 A 
HETATM   28  C   UNL     1      20.445  50.486  48.034  1.00  0.00     0.014 A 
HETATM   29  C   UNL     1      18.439  50.875  49.982  1.00  0.00     0.030 A 
HETATM   30  N   UNL     1      18.344  48.365  49.959  1.00  0.00    -0.365 N 
HETATM   31  C   UNL     1      19.093  51.965  49.401  1.00  0.00     0.002 A 
HETATM   32  C   UNL     1      20.082  51.775  48.440  1.00  0.00     0.001 A 
HETATM   33  H   UNL     1      17.619  48.225  50.649  1.00  0.00     0.165 HD
HETATM   34  C   UNL     1      18.998  47.369  49.287  1.00  0.00     0.097 A 
ENDBRANCH  24  25
BRANCH  24  35
HETATM   35  C   UNL     1      20.253  46.963  46.117  1.00  0.00    -0.007 A 
HETATM   36  S   UNL     1      18.819  47.733  45.568  1.00  0.00    -0.106 SA
HETATM   37  C   UNL     1      18.860  46.913  44.071  1.00  0.00     0.050 A 
HETATM   38  C   UNL     1      19.941  46.068  43.976  1.00  0.00     0.008 A 
HETATM   39  C   UNL     1      20.744  46.099  45.151  1.00  0.00     0.016 A 
ENDBRANCH  24  35
ENDBRANCH  23  24
ENDBRANCH   3  23
TORSDOF 6
ENDMDL
MODEL 7
REMARK VINA RESULT:      -9.8      1.668      4.162
REMARK  6 active torsions:
REMARK  status: ('A' for Active; 'I' for Inactive)
REMARK    1  A    between atoms: C_9  and  C_10 
REMARK       I    between atoms: C_10  and  N_11 
REMARK    2  A    between atoms: N_11  and  N_12 
REMARK       I    between atoms: N_12  and  C_13 
REMARK       I    between atoms: C_13  and  N_14 
REMARK    3  A    between atoms: N_14  and  C_15 
REMARK    4  A    between atoms: C_15  and  C_16 
REMARK    5  A    between atoms: C_16  and  C_17 
REMARK    6  A    between atoms: C_16  and  C_27 
ROOT
HETATM    1  N   UNL     1      25.033  47.137  51.641  1.00  0.00    -0.249 N 
HETATM    2  C   UNL     1      24.588  47.235  50.343  1.00  0.00     0.334 C 
HETATM    3  N   UNL     1      23.645  48.223  50.209  1.00  0.00    -0.341 N 
HETATM    4  O   UNL     1      24.976  46.513  49.432  1.00  0.00    -0.246 OA
HETATM    5  H   UNL     1      24.972  47.941  52.255  1.00  0.00     0.192 HD
HETATM    6  H   UNL     1      23.091  48.391  51.038  1.00  0.00     0.164 HD
ENDROOT
BRANCH   1   7
HETATM    7  N   UNL     1      26.042  46.210  51.937  1.00  0.00    -0.261 N 
HETATM    8  C   UNL     1      26.032  45.637  53.193  1.00  0.00     0.291 C 
HETATM    9  O   UNL     1      25.369  46.054  54.132  1.00  0.00    -0.264 OA
HETATM   10  H   UNL     1      26.421  45.675  51.151  1.00  0.00     0.190 HD
BRANCH   8  11
HETATM   11  C   UNL     1      26.907  44.381  53.299  1.00  0.00     0.157 A 
HETATM   12  C   UNL     1      28.133  44.354  54.133  1.00  0.00     0.016 A 
HETATM   13  C   UNL     1      28.662  45.465  54.799  1.00  0.00     0.015 A 
HETATM   14  C   UNL     1      28.788  43.127  54.247  1.00  0.00     0.046 A 
HETATM   15  C   UNL     1      29.805  45.335  55.596  1.00  0.00     0.001 A 
HETATM   16  C   UNL     1      30.436  44.100  55.727  1.00  0.00     0.001 A 
HETATM   17  C   UNL     1      29.933  42.993  55.047  1.00  0.00     0.018 A 
HETATM   18  C   UNL     1      28.284  41.963  53.500  1.00  0.00     0.272 A 
HETATM   19  O   UNL     1      28.830  40.868  53.571  1.00  0.00    -0.266 OA
HETATM   20  N   UNL     1      27.179  42.184  52.714  1.00  0.00    -0.242 N 
HETATM   21  N   UNL     1      26.480  43.347  52.626  1.00  0.00    -0.166 NA
HETATM   22  H   UNL     1      26.816  41.390  52.194  1.00  0.00     0.192 HD
ENDBRANCH   8  11
ENDBRANCH   1   7
BRANCH   3  23
HETATM   23  C   UNL     1      22.956  48.418  48.942  1.00  0.00     0.139 C 
BRANCH  23  24
HETATM   24  C   UNL     1      21.424  48.212  48.977  1.00  0.00     0.079 C 
BRANCH  24  25
HETATM   25  C   UNL     1      20.899  47.353  47.846  1.00  0.00    -0.020 A 
HETATM   26  C   UNL     1      21.219  45.968  47.617  1.00  0.00    -0.001 A 
HETATM   27  C   UNL     1      20.534  45.559  46.473  1.00  0.00     0.042 A 
HETATM   28  C   UNL     1      22.030  45.022  48.280  1.00  0.00     0.014 A 
HETATM   29  C   UNL     1      20.618  44.260  45.957  1.00  0.00     0.030 A 
HETATM   30  N   UNL     1      19.823  46.643  46.018  1.00  0.00    -0.365 N 
HETATM   31  C   UNL     1      21.428  43.345  46.635  1.00  0.00     0.002 A 
HETATM   32  C   UNL     1      22.125  43.718  47.780  1.00  0.00     0.001 A 
HETATM   33  H   UNL     1      19.231  46.636  45.199  1.00  0.00     0.165 HD
HETATM   34  C   UNL     1      20.034  47.722  46.830  1.00  0.00     0.097 A 
ENDBRANCH  24  25
BRANCH  24  35
HETATM   35  C   UNL     1      20.612  49.489  49.172  1.00  0.00    -0.007 A 
HETATM   36  S   UNL     1      19.181  49.552  50.120  1.00  0.00    -0.106 SA
HETATM   37  C   UNL     1      18.963  51.219  49.821  1.00  0.00     0.050 A 
HETATM   38  C   UNL     1      19.955  51.732  49.019  1.00  0.00     0.008 A 
HETATM   39  C   UNL     1      20.905  50.739  48.649  1.00  0.00     0.016 A 
ENDBRANCH  24  35
ENDBRANCH  23  24
ENDBRANCH   3  23
TORSDOF 6
ENDMDL
MODEL 8
REMARK VINA RESULT:      -9.6      2.174      3.535
REMARK  6 active torsions:
REMARK  status: ('A' for Active; 'I' for Inactive)
REMARK    1  A    between atoms: C_9  and  C_10 
REMARK       I    between atoms: C_10  and  N_11 
REMARK    2  A    between atoms: N_11  and  N_12 
REMARK       I    between atoms: N_12  and  C_13 
REMARK       I    between atoms: C_13  and  N_14 
REMARK    3  A    between atoms: N_14  and  C_15 
REMARK    4  A    between atoms: C_15  and  C_16 
REMARK    5  A    between atoms: C_16  and  C_17 
REMARK    6  A    between atoms: C_16  and  C_27 
ROOT
HETATM    1  N   UNL     1      24.628  45.907  49.662  1.00  0.00    -0.249 N 
HETATM    2  C   UNL     1      23.975  47.118  49.665  1.00  0.00     0.334 C 
HETATM    3  N   UNL     1      22.997  47.165  48.704  1.00  0.00    -0.341 N 
HETATM    4  O   UNL     1      24.254  48.041  50.422  1.00  0.00    -0.246 OA
HETATM    5  H   UNL     1      24.158  45.084  49.299  1.00  0.00     0.192 HD
HETATM    6  H   UNL     1      23.181  46.594  47.889  1.00  0.00     0.164 HD
ENDROOT
BRANCH   1   7
HETATM    7  N   UNL     1      25.621  45.676  50.624  1.00  0.00    -0.261 N 
HETATM    8  C   UNL     1      25.282  44.903  51.717  1.00  0.00     0.291 C 
HETATM    9  O   UNL     1      24.135  44.618  52.026  1.00  0.00    -0.264 OA
HETATM   10  H   UNL     1      26.590  45.669  50.292  1.00  0.00     0.190 HD
BRANCH   8  11
HETATM   11  C   UNL     1      26.496  44.386  52.500  1.00  0.00     0.157 A 
HETATM   12  C   UNL     1      27.157  45.205  53.543  1.00  0.00     0.016 A 
HETATM   13  C   UNL     1      26.822  46.533  53.837  1.00  0.00     0.015 A 
HETATM   14  C   UNL     1      28.178  44.593  54.271  1.00  0.00     0.046 A 
HETATM   15  C   UNL     1      27.477  47.216  54.869  1.00  0.00     0.001 A 
HETATM   16  C   UNL     1      28.475  46.587  55.608  1.00  0.00     0.001 A 
HETATM   17  C   UNL     1      28.834  45.275  55.306  1.00  0.00     0.018 A 
HETATM   18  C   UNL     1      28.587  43.221  53.931  1.00  0.00     0.272 A 
HETATM   19  O   UNL     1      29.481  42.646  54.543  1.00  0.00    -0.266 OA
HETATM   20  N   UNL     1      27.920  42.634  52.884  1.00  0.00    -0.242 N 
HETATM   21  N   UNL     1      26.880  43.176  52.194  1.00  0.00    -0.166 NA
HETATM   22  H   UNL     1      28.188  41.684  52.639  1.00  0.00     0.192 HD
ENDBRANCH   8  11
ENDBRANCH   1   7
BRANCH   3  23
HETATM   23  C   UNL     1      22.264  48.397  48.457  1.00  0.00     0.139 C 
BRANCH  23  24
HETATM   24  C   UNL     1      20.811  48.425  48.989  1.00  0.00     0.079 C 
BRANCH  24  25
HETATM   25  C   UNL     1      19.903  47.405  48.333  1.00  0.00    -0.020 A 
HETATM   26  C   UNL     1      19.175  47.588  47.105  1.00  0.00    -0.001 A 
HETATM   27  C   UNL     1      18.461  46.415  46.859  1.00  0.00     0.042 A 
HETATM   28  C   UNL     1      19.056  48.646  46.178  1.00  0.00     0.014 A 
HETATM   29  C   UNL     1      17.636  46.246  45.740  1.00  0.00     0.030 A 
HETATM   30  N   UNL     1      18.738  45.548  47.888  1.00  0.00    -0.365 N 
HETATM   31  C   UNL     1      17.539  47.309  44.839  1.00  0.00     0.002 A 
HETATM   32  C   UNL     1      18.238  48.494  45.053  1.00  0.00     0.001 A 
HETATM   33  H   UNL     1      18.356  44.617  47.969  1.00  0.00     0.165 HD
HETATM   34  C   UNL     1      19.600  46.130  48.777  1.00  0.00     0.097 A 
ENDBRANCH  24  25
BRANCH  24  35
HETATM   35  C   UNL     1      20.183  49.814  49.057  1.00  0.00    -0.007 A 
HETATM   36  S   UNL     1      18.845  50.186  50.068  1.00  0.00    -0.106 SA
HETATM   37  C   UNL     1      18.818  51.817  49.562  1.00  0.00     0.050 A 
HETATM   38  C   UNL     1      19.806  52.088  48.644  1.00  0.00     0.008 A 
HETATM   39  C   UNL     1      20.593  50.938  48.357  1.00  0.00     0.016 A 
ENDBRANCH  24  35
ENDBRANCH  23  24
ENDBRANCH   3  23
TORSDOF 6
ENDMDL
MODEL 9
REMARK VINA RESULT:      -9.6      2.390      4.164
REMARK  6 active torsions:
REMARK  status: ('A' for Active; 'I' for Inactive)
REMARK    1  A    between atoms: C_9  and  C_10 
REMARK       I    between atoms: C_10  and  N_11 
REMARK    2  A    between atoms: N_11  and  N_12 
REMARK       I    between atoms: N_12  and  C_13 
REMARK       I    between atoms: C_13  and  N_14 
REMARK    3  A    between atoms: N_14  and  C_15 
REMARK    4  A    between atoms: C_15  and  C_16 
REMARK    5  A    between atoms: C_16  and  C_17 
REMARK    6  A    between atoms: C_16  and  C_27 
ROOT
HETATM    1  N   UNL     1      24.988  45.800  51.684  1.00  0.00    -0.249 N 
HETATM    2  C   UNL     1      24.665  46.811  50.808  1.00  0.00     0.334 C 
HETATM    3  N   UNL     1      23.684  46.420  49.931  1.00  0.00    -0.341 N 
HETATM    4  O   UNL     1      25.204  47.911  50.806  1.00  0.00    -0.246 OA
HETATM    5  H   UNL     1      24.309  45.075  51.888  1.00  0.00     0.192 HD
HETATM    6  H   UNL     1      23.678  45.431  49.721  1.00  0.00     0.164 HD
ENDROOT
BRANCH   1   7
HETATM    7  N   UNL     1      25.936  46.056  52.684  1.00  0.00    -0.261 N 
HETATM    8  C   UNL     1      25.880  45.284  53.828  1.00  0.00     0.291 C 
HETATM    9  O   UNL     1      24.931  44.576  54.131  1.00  0.00    -0.264 OA
HETATM   10  H   UNL     1      26.842  46.423  52.377  1.00  0.00     0.190 HD
BRANCH   8  11
HETATM   11  C   UNL     1      27.155  45.358  54.678  1.00  0.00     0.157 A 
HETATM   12  C   UNL     1      28.262  44.386  54.509  1.00  0.00     0.016 A 
HETATM   13  C   UNL     1      28.215  43.272  53.663  1.00  0.00     0.015 A 
HETATM   14  C   UNL     1      29.420  44.615  55.254  1.00  0.00     0.046 A 
HETATM   15  C   UNL     1      29.325  42.428  53.540  1.00  0.00     0.001 A 
HETATM   16  C   UNL     1      30.486  42.682  54.265  1.00  0.00     0.001 A 
HETATM   17  C   UNL     1      30.534  43.773  55.130  1.00  0.00     0.018 A 
HETATM   18  C   UNL     1      29.462  45.744  56.198  1.00  0.00     0.272 A 
HETATM   19  O   UNL     1      30.458  45.980  56.873  1.00  0.00    -0.266 OA
HETATM   20  N   UNL     1      28.319  46.501  56.285  1.00  0.00    -0.242 N 
HETATM   21  N   UNL     1      27.197  46.344  55.532  1.00  0.00    -0.166 NA
HETATM   22  H   UNL     1      28.334  47.286  56.930  1.00  0.00     0.192 HD
ENDBRANCH   8  11
ENDBRANCH   1   7
BRANCH   3  23
HETATM   23  C   UNL     1      23.275  47.296  48.844  1.00  0.00     0.139 C 
BRANCH  23  24
HETATM   24  C   UNL     1      21.748  47.483  48.677  1.00  0.00     0.079 C 
BRANCH  24  25
HETATM   25  C   UNL     1      21.169  46.728  47.499  1.00  0.00    -0.020 A 
HETATM   26  C   UNL     1      19.814  46.257  47.380  1.00  0.00    -0.001 A 
HETATM   27  C   UNL     1      19.697  45.611  46.149  1.00  0.00     0.042 A 
HETATM   28  C   UNL     1      18.673  46.320  48.209  1.00  0.00     0.014 A 
HETATM   29  C   UNL     1      18.505  45.026  45.705  1.00  0.00     0.030 A 
HETATM   30  N   UNL     1      20.924  45.683  45.536  1.00  0.00    -0.365 N 
HETATM   31  C   UNL     1      17.392  45.105  46.547  1.00  0.00     0.002 A 
HETATM   32  C   UNL     1      17.472  45.742  47.781  1.00  0.00     0.001 A 
HETATM   33  H   UNL     1      21.132  45.297  44.626  1.00  0.00     0.165 HD
HETATM   34  C   UNL     1      21.814  46.348  46.334  1.00  0.00     0.097 A 
ENDBRANCH  24  25
BRANCH  24  35
HETATM   35  C   UNL     1      21.271  48.931  48.741  1.00  0.00    -0.007 A 
HETATM   36  S   UNL     1      19.928  49.431  49.688  1.00  0.00    -0.106 SA
HETATM   37  C   UNL     1      20.104  51.062  49.215  1.00  0.00     0.050 A 
HETATM   38  C   UNL     1      21.163  51.238  48.356  1.00  0.00     0.008 A 
HETATM   39  C   UNL     1      21.837  50.014  48.086  1.00  0.00     0.016 A 
ENDBRANCH  24  35
ENDBRANCH  23  24
ENDBRANCH   3  23
TORSDOF 6
ENDMDL
MODEL 10
REMARK VINA RESULT:      -9.6      4.963      8.786
REMARK  6 active torsions:
REMARK  status: ('A' for Active; 'I' for Inactive)
REMARK    1  A    between atoms: C_9  and  C_10 
REMARK       I    between atoms: C_10  and  N_11 
REMARK    2  A    between atoms: N_11  and  N_12 
REMARK       I    between atoms: N_12  and  C_13 
REMARK       I    between atoms: C_13  and  N_14 
REMARK    3  A    between atoms: N_14  and  C_15 
REMARK    4  A    between atoms: C_15  and  C_16 
REMARK    5  A    between atoms: C_16  and  C_17 
REMARK    6  A    between atoms: C_16  and  C_27 
ROOT
HETATM    1  N   UNL     1      25.625  41.440  50.875  1.00  0.00    -0.249 N 
HETATM    2  C   UNL     1      25.423  42.794  50.733  1.00  0.00     0.334 C 
HETATM    3  N   UNL     1      25.124  43.386  51.935  1.00  0.00    -0.341 N 
HETATM    4  O   UNL     1      25.484  43.384  49.662  1.00  0.00    -0.246 OA
HETATM    5  H   UNL     1      25.916  41.067  51.772  1.00  0.00     0.192 HD
HETATM    6  H   UNL     1      24.650  42.783  52.594  1.00  0.00     0.164 HD
ENDROOT
BRANCH   1   7
HETATM    7  N   UNL     1      25.995  40.695  49.748  1.00  0.00    -0.261 N 
HETATM    8  C   UNL     1      27.315  40.301  49.649  1.00  0.00     0.291 C 
HETATM    9  O   UNL     1      28.219  40.756  50.333  1.00  0.00    -0.264 OA
HETATM   10  H   UNL     1      25.270  40.108  49.325  1.00  0.00     0.190 HD
BRANCH   8  11
HETATM   11  C   UNL     1      27.546  39.189  48.617  1.00  0.00     0.157 A 
HETATM   12  C   UNL     1      27.791  39.492  47.187  1.00  0.00     0.016 A 
HETATM   13  C   UNL     1      27.731  40.774  46.627  1.00  0.00     0.015 A 
HETATM   14  C   UNL     1      28.102  38.412  46.359  1.00  0.00     0.046 A 
HETATM   15  C   UNL     1      28.016  40.968  45.271  1.00  0.00     0.001 A 
HETATM   16  C   UNL     1      28.353  39.888  44.460  1.00  0.00     0.001 A 
HETATM   17  C   UNL     1      28.390  38.605  45.001  1.00  0.00     0.018 A 
HETATM   18  C   UNL     1      28.105  37.050  46.917  1.00  0.00     0.272 A 
HETATM   19  O   UNL     1      28.371  36.072  46.226  1.00  0.00    -0.266 OA
HETATM   20  N   UNL     1      27.780  36.942  48.247  1.00  0.00    -0.242 N 
HETATM   21  N   UNL     1      27.533  37.974  49.096  1.00  0.00    -0.166 NA
HETATM   22  H   UNL     1      27.781  36.007  48.649  1.00  0.00     0.192 HD
ENDBRANCH   8  11
ENDBRANCH   1   7
BRANCH   3  23
HETATM   23  C   UNL     1      24.759  44.793  51.994  1.00  0.00     0.139 C 
BRANCH  23  24
HETATM   24  C   UNL     1      25.936  45.791  51.890  1.00  0.00     0.079 C 
BRANCH  24  25
HETATM   25  C   UNL     1      26.384  46.346  53.226  1.00  0.00    -0.020 A 
HETATM   26  C   UNL     1      27.438  45.816  54.051  1.00  0.00    -0.001 A 
HETATM   27  C   UNL     1      27.523  46.614  55.193  1.00  0.00     0.042 A 
HETATM   28  C   UNL     1      28.330  44.729  53.931  1.00  0.00     0.014 A 
HETATM   29  C   UNL     1      28.448  46.382  56.217  1.00  0.00     0.030 A 
HETATM   30  N   UNL     1      26.565  47.591  55.075  1.00  0.00    -0.365 N 
HETATM   31  C   UNL     1      29.319  45.299  56.072  1.00  0.00     0.002 A 
HETATM   32  C   UNL     1      29.263  44.483  54.946  1.00  0.00     0.001 A 
HETATM   33  H   UNL     1      26.398  48.314  55.762  1.00  0.00     0.165 HD
HETATM   34  C   UNL     1      25.876  47.441  53.904  1.00  0.00     0.097 A 
ENDBRANCH  24  25
BRANCH  24  35
HETATM   35  C   UNL     1      25.761  46.877  50.831  1.00  0.00    -0.007 A 
HETATM   36  S   UNL     1      24.259  47.199  50.063  1.00  0.00    -0.106 SA
HETATM   37  C   UNL     1      24.923  48.459  49.121  1.00  0.00     0.050 A 
HETATM   38  C   UNL     1      26.261  48.645  49.379  1.00  0.00     0.008 A 
HETATM   39  C   UNL     1      26.742  47.738  50.365  1.00  0.00     0.016 A 
ENDBRANCH  24  35
ENDBRANCH  23  24
ENDBRANCH   3  23
TORSDOF 6
ENDMDL
