MODEL 1
REMARK VINA RESULT:      -9.2      0.000      0.000
REMARK  6 active torsions:
REMARK  status: ('A' for Active; 'I' for Inactive)
REMARK    1  A    between atoms: C_2  and  N_3 
REMARK       I    between atoms: N_3  and  C_4 
REMARK    2  A    between atoms: C_4  and  C_5 
REMARK    3  A    between atoms: C_5  and  O_6 
REMARK    4  A    between atoms: O_6  and  C_7 
REMARK    5  A    between atoms: C_9  and  N_10 
REMARK       I    between atoms: N_10  and  C_11 
REMARK    6  A    between atoms: C_11  and  C_12 
ROOT
HETATM    1  N   UNL     1      26.656  45.968  52.891  1.00  0.00    -0.322 N 
HETATM    2  C   UNL     1      26.596  46.507  54.164  1.00  0.00     0.277 C 
HETATM    3  O   UNL     1      25.722  47.252  54.596  1.00  0.00    -0.266 OA
HETATM    4  H   UNL     1      27.491  45.412  52.726  1.00  0.00     0.169 HD
ENDROOT
BRANCH   1   5
HETATM    5  C   UNL     1      25.749  46.146  51.833  1.00  0.00     0.037 A 
HETATM    6  C   UNL     1      25.574  47.358  51.164  1.00  0.00     0.066 A 
HETATM    7  C   UNL     1      24.674  47.471  50.098  1.00  0.00     0.071 A 
HETATM    8  C   UNL     1      23.923  46.368  49.706  1.00  0.00     0.037 A 
HETATM    9  C   UNL     1      24.080  45.153  50.377  1.00  0.00     0.005 A 
HETATM   10  C   UNL     1      24.986  45.044  51.435  1.00  0.00     0.029 A 
BRANCH   7  11
HETATM   11  O   UNL     1      24.615  48.719  49.549  1.00  0.00    -0.342 OA
BRANCH  11  12
HETATM   12  C   UNL     1      23.474  49.031  48.752  1.00  0.00     0.278 C 
BRANCH  12  13
HETATM   13  C   UNL     1      22.642  50.092  49.474  1.00  0.00     0.241 C 
HETATM   14  N   UNL     1      21.305  49.773  49.591  1.00  0.00    -0.360 N 
HETATM   15  H   UNL     1      20.985  48.977  49.045  1.00  0.00     0.162 HD
HETATM   16  O   UNL     1      23.144  51.109  49.945  1.00  0.00    -0.271 OA
BRANCH  14  17
HETATM   17  C   UNL     1      20.328  50.670  50.161  1.00  0.00     0.118 C 
HETATM   18  C   UNL     1      19.785  51.634  49.122  1.00  0.00     0.026 C 
ENDBRANCH  14  17
ENDBRANCH  12  13
ENDBRANCH  11  12
ENDBRANCH   7  11
ENDBRANCH   1   5
BRANCH   2  19
HETATM   19  C   UNL     1      27.751  46.107  54.987  1.00  0.00     0.157 A 
HETATM   20  N   UNL     1      28.100  46.793  56.100  1.00  0.00    -0.168 NA
HETATM   21  N   UNL     1      29.185  46.136  56.552  1.00  0.00    -0.277 N 
HETATM   22  H   UNL     1      29.642  46.480  57.387  1.00  0.00     0.189 HD
HETATM   23  C   UNL     1      29.536  45.043  55.809  1.00  0.00     0.063 A 
HETATM   24  C   UNL     1      28.616  44.993  54.771  1.00  0.00     0.029 A 
HETATM   25  C   UNL     1      30.566  44.109  55.960  1.00  0.00     0.032 A 
HETATM   26  C   UNL     1      28.714  43.955  53.825  1.00  0.00     0.023 A 
HETATM   27  C   UNL     1      29.730  42.992  53.953  1.00  0.00    -0.061 A 
HETATM   28  C   UNL     1      30.642  43.082  55.011  1.00  0.00     0.009 A 
HETATM   29  C   UNL     1      29.819  41.879  52.949  1.00  0.00     0.048 C 
ENDBRANCH   2  19
TORSDOF 6
ENDMDL
MODEL 2
REMARK VINA RESULT:      -9.0      2.176      2.793
REMARK  6 active torsions:
REMARK  status: ('A' for Active; 'I' for Inactive)
REMARK    1  A    between atoms: C_2  and  N_3 
REMARK       I    between atoms: N_3  and  C_4 
REMARK    2  A    between atoms: C_4  and  C_5 
REMARK    3  A    between atoms: C_5  and  O_6 
REMARK    4  A    between atoms: O_6  and  C_7 
REMARK    5  A    between atoms: C_9  and  N_10 
REMARK       I    between atoms: N_10  and  C_11 
REMARK    6  A    between atoms: C_11  and  C_12 
ROOT
HETATM    1  N   UNL     1      26.104  44.866  50.768  1.00  0.00    -0.322 N 
HETATM    2  C   UNL     1      26.016  44.041  51.875  1.00  0.00     0.277 C 
HETATM    3  O   UNL     1      25.009  43.826  52.541  1.00  0.00    -0.266 OA
HETATM    4  H   UNL     1      27.045  44.939  50.391  1.00  0.00     0.169 HD
ENDROOT
BRANCH   1   5
HETATM    5  C   UNL     1      25.082  45.625  50.172  1.00  0.00     0.037 A 
HETATM    6  C   UNL     1      24.974  47.010  50.305  1.00  0.00     0.066 A 
HETATM    7  C   UNL     1      23.949  47.718  49.667  1.00  0.00     0.071 A 
HETATM    8  C   UNL     1      23.008  47.036  48.901  1.00  0.00     0.037 A 
HETATM    9  C   UNL     1      23.100  45.649  48.771  1.00  0.00     0.005 A 
HETATM   10  C   UNL     1      24.130  44.948  49.405  1.00  0.00     0.029 A 
BRANCH   7  11
HETATM   11  O   UNL     1      23.976  49.064  49.895  1.00  0.00    -0.342 OA
BRANCH  11  12
HETATM   12  C   UNL     1      23.289  49.899  48.966  1.00  0.00     0.278 C 
BRANCH  12  13
HETATM   13  C   UNL     1      22.161  50.630  49.697  1.00  0.00     0.241 C 
HETATM   14  N   UNL     1      20.945  50.575  49.048  1.00  0.00    -0.360 N 
HETATM   15  H   UNL     1      20.961  50.223  48.095  1.00  0.00     0.162 HD
HETATM   16  O   UNL     1      22.329  51.169  50.787  1.00  0.00    -0.271 OA
BRANCH  14  17
HETATM   17  C   UNL     1      19.769  51.268  49.520  1.00  0.00     0.118 C 
HETATM   18  C   UNL     1      19.302  52.313  48.523  1.00  0.00     0.026 C 
ENDBRANCH  14  17
ENDBRANCH  12  13
ENDBRANCH  11  12
ENDBRANCH   7  11
ENDBRANCH   1   5
BRANCH   2  19
HETATM   19  C   UNL     1      27.315  43.432  52.214  1.00  0.00     0.157 A 
HETATM   20  N   UNL     1      27.847  42.437  51.469  1.00  0.00    -0.168 NA
HETATM   21  N   UNL     1      29.004  42.154  52.097  1.00  0.00    -0.277 N 
HETATM   22  H   UNL     1      29.586  41.413  51.722  1.00  0.00     0.189 HD
HETATM   23  C   UNL     1      29.263  42.935  53.189  1.00  0.00     0.063 A 
HETATM   24  C   UNL     1      28.173  43.788  53.297  1.00  0.00     0.029 A 
HETATM   25  C   UNL     1      30.345  42.965  54.073  1.00  0.00     0.032 A 
HETATM   26  C   UNL     1      28.150  44.733  54.340  1.00  0.00     0.023 A 
HETATM   27  C   UNL     1      29.227  44.798  55.241  1.00  0.00    -0.061 A 
HETATM   28  C   UNL     1      30.305  43.916  55.101  1.00  0.00     0.009 A 
HETATM   29  C   UNL     1      29.203  45.819  56.343  1.00  0.00     0.048 C 
ENDBRANCH   2  19
TORSDOF 6
ENDMDL
MODEL 3
REMARK VINA RESULT:      -8.9      2.306      3.480
REMARK  6 active torsions:
REMARK  status: ('A' for Active; 'I' for Inactive)
REMARK    1  A    between atoms: C_2  and  N_3 
REMARK       I    between atoms: N_3  and  C_4 
REMARK    2  A    between atoms: C_4  and  C_5 
REMARK    3  A    between atoms: C_5  and  O_6 
REMARK    4  A    between atoms: O_6  and  C_7 
REMARK    5  A    between atoms: C_9  and  N_10 
REMARK       I    between atoms: N_10  and  C_11 
REMARK    6  A    between atoms: C_11  and  C_12 
ROOT
HETATM    1  N   UNL     1      25.970  46.821  50.390  1.00  0.00    -0.322 N 
HETATM    2  C   UNL     1      25.697  46.664  51.737  1.00  0.00     0.277 C 
HETATM    3  O   UNL     1      25.275  47.530  52.497  1.00  0.00    -0.266 OA
HETATM    4  H   UNL     1      26.356  45.986  49.956  1.00  0.00     0.169 HD
ENDROOT
BRANCH   1   5
HETATM    5  C   UNL     1      25.828  47.979  49.607  1.00  0.00     0.037 A 
HETATM    6  C   UNL     1      24.598  48.456  49.154  1.00  0.00     0.066 A 
HETATM    7  C   UNL     1      24.514  49.632  48.399  1.00  0.00     0.071 A 
HETATM    8  C   UNL     1      25.672  50.331  48.073  1.00  0.00     0.037 A 
HETATM    9  C   UNL     1      26.910  49.855  48.510  1.00  0.00     0.005 A 
HETATM   10  C   UNL     1      26.988  48.685  49.271  1.00  0.00     0.029 A 
BRANCH   7  11
HETATM   11  O   UNL     1      23.243  49.967  48.029  1.00  0.00    -0.342 OA
BRANCH  11  12
HETATM   12  C   UNL     1      22.434  50.633  48.996  1.00  0.00     0.278 C 
BRANCH  12  13
HETATM   13  C   UNL     1      20.992  50.142  48.856  1.00  0.00     0.241 C 
HETATM   14  N   UNL     1      20.622  49.208  49.801  1.00  0.00    -0.360 N 
HETATM   15  H   UNL     1      21.374  48.819  50.365  1.00  0.00     0.162 HD
HETATM   16  O   UNL     1      20.229  50.587  48.002  1.00  0.00    -0.271 OA
BRANCH  14  17
HETATM   17  C   UNL     1      19.336  48.553  49.800  1.00  0.00     0.118 C 
HETATM   18  C   UNL     1      18.648  48.676  51.148  1.00  0.00     0.026 C 
ENDBRANCH  14  17
ENDBRANCH  12  13
ENDBRANCH  11  12
ENDBRANCH   7  11
ENDBRANCH   1   5
BRANCH   2  19
HETATM   19  C   UNL     1      25.999  45.300  52.207  1.00  0.00     0.157 A 
HETATM   20  N   UNL     1      25.371  44.218  51.692  1.00  0.00    -0.168 NA
HETATM   21  N   UNL     1      25.904  43.187  52.374  1.00  0.00    -0.277 N 
HETATM   22  H   UNL     1      25.573  42.251  52.169  1.00  0.00     0.189 HD
HETATM   23  C   UNL     1      26.866  43.541  53.278  1.00  0.00     0.063 A 
HETATM   24  C   UNL     1      26.955  44.924  53.196  1.00  0.00     0.029 A 
HETATM   25  C   UNL     1      27.654  42.777  54.145  1.00  0.00     0.032 A 
HETATM   26  C   UNL     1      27.882  45.596  54.017  1.00  0.00     0.023 A 
HETATM   27  C   UNL     1      28.698  44.857  54.891  1.00  0.00    -0.061 A 
HETATM   28  C   UNL     1      28.573  43.464  54.948  1.00  0.00     0.009 A 
HETATM   29  C   UNL     1      29.694  45.579  55.753  1.00  0.00     0.048 C 
ENDBRANCH   2  19
TORSDOF 6
ENDMDL
MODEL 4
REMARK VINA RESULT:      -8.4      1.642      2.012
REMARK  6 active torsions:
REMARK  status: ('A' for Active; 'I' for Inactive)
REMARK    1  A    between atoms: C_2  and  N_3 
REMARK       I    between atoms: N_3  and  C_4 
REMARK    2  A    between atoms: C_4  and  C_5 
REMARK    3  A    between atoms: C_5  and  O_6 
REMARK    4  A    between atoms: O_6  and  C_7 
REMARK    5  A    between atoms: C_9  and  N_10 
REMARK       I    between atoms: N_10  and  C_11 
REMARK    6  A    between atoms: C_11  and  C_12 
ROOT
HETATM    1  N   UNL     1      25.897  45.693  52.058  1.00  0.00    -0.322 N 
HETATM    2  C   UNL     1      25.613  45.303  53.355  1.00  0.00     0.277 C 
HETATM    3  O   UNL     1      24.708  44.554  53.706  1.00  0.00    -0.266 OA
HETATM    4  H   UNL     1      26.664  46.357  51.993  1.00  0.00     0.169 HD
ENDROOT
BRANCH   1   5
HETATM    5  C   UNL     1      25.227  45.324  50.879  1.00  0.00     0.037 A 
HETATM    6  C   UNL     1      24.262  46.119  50.261  1.00  0.00     0.066 A 
HETATM    7  C   UNL     1      23.646  45.712  49.072  1.00  0.00     0.071 A 
HETATM    8  C   UNL     1      23.981  44.488  48.500  1.00  0.00     0.037 A 
HETATM    9  C   UNL     1      24.937  43.679  49.118  1.00  0.00     0.005 A 
HETATM   10  C   UNL     1      25.555  44.094  50.301  1.00  0.00     0.029 A 
BRANCH   7  11
HETATM   11  O   UNL     1      22.722  46.596  48.592  1.00  0.00    -0.342 OA
BRANCH  11  12
HETATM   12  C   UNL     1      22.891  47.970  48.934  1.00  0.00     0.278 C 
BRANCH  12  13
HETATM   13  C   UNL     1      21.515  48.636  48.997  1.00  0.00     0.241 C 
HETATM   14  N   UNL     1      21.488  49.797  49.742  1.00  0.00    -0.360 N 
HETATM   15  H   UNL     1      22.314  49.989  50.303  1.00  0.00     0.162 HD
HETATM   16  O   UNL     1      20.543  48.190  48.394  1.00  0.00    -0.271 OA
BRANCH  14  17
HETATM   17  C   UNL     1      20.277  50.537  50.002  1.00  0.00     0.118 C 
HETATM   18  C   UNL     1      20.040  51.605  48.948  1.00  0.00     0.026 C 
ENDBRANCH  14  17
ENDBRANCH  12  13
ENDBRANCH  11  12
ENDBRANCH   7  11
ENDBRANCH   1   5
BRANCH   2  19
HETATM   19  C   UNL     1      26.528  45.924  54.330  1.00  0.00     0.157 A 
HETATM   20  N   UNL     1      26.223  47.090  54.945  1.00  0.00    -0.168 NA
HETATM   21  N   UNL     1      27.291  47.323  55.731  1.00  0.00    -0.277 N 
HETATM   22  H   UNL     1      27.300  48.167  56.293  1.00  0.00     0.189 HD
HETATM   23  C   UNL     1      28.255  46.355  55.681  1.00  0.00     0.063 A 
HETATM   24  C   UNL     1      27.788  45.419  54.768  1.00  0.00     0.029 A 
HETATM   25  C   UNL     1      29.476  46.224  56.350  1.00  0.00     0.032 A 
HETATM   26  C   UNL     1      28.571  44.279  54.502  1.00  0.00     0.023 A 
HETATM   27  C   UNL     1      29.799  44.110  55.166  1.00  0.00    -0.061 A 
HETATM   28  C   UNL     1      30.237  45.080  56.074  1.00  0.00     0.009 A 
HETATM   29  C   UNL     1      30.622  42.885  54.888  1.00  0.00     0.048 C 
ENDBRANCH   2  19
TORSDOF 6
ENDMDL
MODEL 5
REMARK VINA RESULT:      -8.4      3.824      7.270
REMARK  6 active torsions:
REMARK  status: ('A' for Active; 'I' for Inactive)
REMARK    1  A    between atoms: C_2  and  N_3 
REMARK       I    between atoms: N_3  and  C_4 
REMARK    2  A    between atoms: C_4  and  C_5 
REMARK    3  A    between atoms: C_5  and  O_6 
REMARK    4  A    between atoms: O_6  and  C_7 
REMARK    5  A    between atoms: C_9  and  N_10 
REMARK       I    between atoms: N_10  and  C_11 
REMARK    6  A    between atoms: C_11  and  C_12 
ROOT
HETATM    1  N   UNL     1      25.158  44.601  51.919  1.00  0.00    -0.322 N 
HETATM    2  C   UNL     1      25.771  45.827  51.730  1.00  0.00     0.277 C 
HETATM    3  O   UNL     1      25.986  46.371  50.652  1.00  0.00    -0.266 OA
HETATM    4  H   UNL     1      25.120  44.314  52.894  1.00  0.00     0.169 HD
ENDROOT
BRANCH   1   5
HETATM    5  C   UNL     1      24.654  43.726  50.942  1.00  0.00     0.037 A 
HETATM    6  C   UNL     1      25.342  42.599  50.490  1.00  0.00     0.066 A 
HETATM    7  C   UNL     1      24.780  41.747  49.532  1.00  0.00     0.071 A 
HETATM    8  C   UNL     1      23.524  42.031  49.003  1.00  0.00     0.037 A 
HETATM    9  C   UNL     1      22.834  43.164  49.439  1.00  0.00     0.005 A 
HETATM   10  C   UNL     1      23.396  44.007  50.401  1.00  0.00     0.029 A 
BRANCH   7  11
HETATM   11  O   UNL     1      25.574  40.691  49.191  1.00  0.00    -0.342 OA
BRANCH  11  12
HETATM   12  C   UNL     1      26.193  39.968  50.253  1.00  0.00     0.278 C 
BRANCH  12  13
HETATM   13  C   UNL     1      27.638  39.653  49.859  1.00  0.00     0.241 C 
HETATM   14  N   UNL     1      28.016  38.350  50.109  1.00  0.00    -0.360 N 
HETATM   15  H   UNL     1      27.377  37.798  50.676  1.00  0.00     0.162 HD
HETATM   16  O   UNL     1      28.367  40.484  49.326  1.00  0.00    -0.271 OA
BRANCH  14  17
HETATM   17  C   UNL     1      29.358  37.864  49.892  1.00  0.00     0.118 C 
HETATM   18  C   UNL     1      29.982  37.360  51.182  1.00  0.00     0.026 C 
ENDBRANCH  14  17
ENDBRANCH  12  13
ENDBRANCH  11  12
ENDBRANCH   7  11
ENDBRANCH   1   5
BRANCH   2  19
HETATM   19  C   UNL     1      26.187  46.438  53.005  1.00  0.00     0.157 A 
HETATM   20  N   UNL     1      25.584  47.548  53.489  1.00  0.00    -0.168 NA
HETATM   21  N   UNL     1      26.242  47.792  54.638  1.00  0.00    -0.277 N 
HETATM   22  H   UNL     1      25.971  48.601  55.185  1.00  0.00     0.189 HD
HETATM   23  C   UNL     1      27.217  46.882  54.939  1.00  0.00     0.063 A 
HETATM   24  C   UNL     1      27.210  45.976  53.886  1.00  0.00     0.029 A 
HETATM   25  C   UNL     1      28.087  46.777  56.028  1.00  0.00     0.032 A 
HETATM   26  C   UNL     1      28.115  44.898  53.911  1.00  0.00     0.023 A 
HETATM   27  C   UNL     1      28.996  44.756  54.997  1.00  0.00    -0.061 A 
HETATM   28  C   UNL     1      28.975  45.695  56.035  1.00  0.00     0.009 A 
HETATM   29  C   UNL     1      29.948  43.595  55.024  1.00  0.00     0.048 C 
ENDBRANCH   2  19
TORSDOF 6
ENDMDL
MODEL 6
REMARK VINA RESULT:      -7.9      3.672      9.369
REMARK  6 active torsions:
REMARK  status: ('A' for Active; 'I' for Inactive)
REMARK    1  A    between atoms: C_2  and  N_3 
REMARK       I    between atoms: N_3  and  C_4 
REMARK    2  A    between atoms: C_4  and  C_5 
REMARK    3  A    between atoms: C_5  and  O_6 
REMARK    4  A    between atoms: O_6  and  C_7 
REMARK    5  A    between atoms: C_9  and  N_10 
REMARK       I    between atoms: N_10  and  C_11 
REMARK    6  A    between atoms: C_11  and  C_12 
ROOT
HETATM    1  N   UNL     1      26.338  46.218  51.284  1.00  0.00    -0.322 N 
HETATM    2  C   UNL     1      25.234  46.375  50.465  1.00  0.00     0.277 C 
HETATM    3  O   UNL     1      24.322  45.568  50.315  1.00  0.00    -0.266 OA
HETATM    4  H   UNL     1      26.998  46.989  51.225  1.00  0.00     0.169 HD
ENDROOT
BRANCH   1   5
HETATM    5  C   UNL     1      26.655  45.126  52.110  1.00  0.00     0.037 A 
HETATM    6  C   UNL     1      27.078  43.889  51.623  1.00  0.00     0.066 A 
HETATM    7  C   UNL     1      27.405  42.844  52.494  1.00  0.00     0.071 A 
HETATM    8  C   UNL     1      27.290  43.026  53.869  1.00  0.00     0.037 A 
HETATM    9  C   UNL     1      26.855  44.256  54.367  1.00  0.00     0.005 A 
HETATM   10  C   UNL     1      26.537  45.299  53.492  1.00  0.00     0.029 A 
BRANCH   7  11
HETATM   11  O   UNL     1      27.799  41.698  51.867  1.00  0.00    -0.342 OA
BRANCH  11  12
HETATM   12  C   UNL     1      27.233  41.424  50.587  1.00  0.00     0.278 C 
BRANCH  12  13
HETATM   13  C   UNL     1      27.578  39.987  50.191  1.00  0.00     0.241 C 
HETATM   14  N   UNL     1      28.928  39.704  50.225  1.00  0.00    -0.360 N 
HETATM   15  H   UNL     1      29.550  40.501  50.330  1.00  0.00     0.162 HD
HETATM   16  O   UNL     1      26.714  39.158  49.918  1.00  0.00    -0.271 OA
BRANCH  14  17
HETATM   17  C   UNL     1      29.478  38.436  49.808  1.00  0.00     0.118 C 
HETATM   18  C   UNL     1      29.883  37.587  50.999  1.00  0.00     0.026 C 
ENDBRANCH  14  17
ENDBRANCH  12  13
ENDBRANCH  11  12
ENDBRANCH   7  11
ENDBRANCH   1   5
BRANCH   2  19
HETATM   19  C   UNL     1      25.268  47.652  49.731  1.00  0.00     0.157 A 
HETATM   20  N   UNL     1      26.433  48.293  49.478  1.00  0.00    -0.168 NA
HETATM   21  N   UNL     1      26.049  49.399  48.813  1.00  0.00    -0.277 N 
HETATM   22  H   UNL     1      26.762  50.058  48.523  1.00  0.00     0.189 HD
HETATM   23  C   UNL     1      24.702  49.492  48.595  1.00  0.00     0.063 A 
HETATM   24  C   UNL     1      24.156  48.360  49.186  1.00  0.00     0.029 A 
HETATM   25  C   UNL     1      23.931  50.456  47.939  1.00  0.00     0.032 A 
HETATM   26  C   UNL     1      22.763  48.165  49.122  1.00  0.00     0.023 A 
HETATM   27  C   UNL     1      21.959  49.109  48.460  1.00  0.00    -0.061 A 
HETATM   28  C   UNL     1      22.549  50.240  47.883  1.00  0.00     0.009 A 
HETATM   29  C   UNL     1      20.476  48.887  48.383  1.00  0.00     0.048 C 
ENDBRANCH   2  19
TORSDOF 6
ENDMDL
MODEL 7
REMARK VINA RESULT:      -7.9      3.097      4.016
REMARK  6 active torsions:
REMARK  status: ('A' for Active; 'I' for Inactive)
REMARK    1  A    between atoms: C_2  and  N_3 
REMARK       I    between atoms: N_3  and  C_4 
REMARK    2  A    between atoms: C_4  and  C_5 
REMARK    3  A    between atoms: C_5  and  O_6 
REMARK    4  A    between atoms: O_6  and  C_7 
REMARK    5  A    between atoms: C_9  and  N_10 
REMARK       I    between atoms: N_10  and  C_11 
REMARK    6  A    between atoms: C_11  and  C_12 
ROOT
HETATM    1  N   UNL     1      25.948  44.650  50.675  1.00  0.00    -0.322 N 
HETATM    2  C   UNL     1      25.919  43.957  51.872  1.00  0.00     0.277 C 
HETATM    3  O   UNL     1      24.954  43.841  52.620  1.00  0.00    -0.266 OA
HETATM    4  H   UNL     1      26.865  44.658  50.234  1.00  0.00     0.169 HD
ENDROOT
BRANCH   1   5
HETATM    5  C   UNL     1      24.902  45.358  50.060  1.00  0.00     0.037 A 
HETATM    6  C   UNL     1      23.851  44.743  49.380  1.00  0.00     0.066 A 
HETATM    7  C   UNL     1      22.821  45.499  48.808  1.00  0.00     0.071 A 
HETATM    8  C   UNL     1      22.848  46.887  48.898  1.00  0.00     0.037 A 
HETATM    9  C   UNL     1      23.903  47.514  49.565  1.00  0.00     0.005 A 
HETATM   10  C   UNL     1      24.925  46.754  50.141  1.00  0.00     0.029 A 
BRANCH   7  11
HETATM   11  O   UNL     1      21.868  44.754  48.176  1.00  0.00    -0.342 OA
BRANCH  11  12
HETATM   12  C   UNL     1      20.999  45.432  47.272  1.00  0.00     0.278 C 
BRANCH  12  13
HETATM   13  C   UNL     1      19.609  45.533  47.902  1.00  0.00     0.241 C 
HETATM   14  N   UNL     1      19.060  46.797  47.852  1.00  0.00    -0.360 N 
HETATM   15  H   UNL     1      19.687  47.548  47.573  1.00  0.00     0.162 HD
HETATM   16  O   UNL     1      19.027  44.555  48.364  1.00  0.00    -0.271 OA
BRANCH  14  17
HETATM   17  C   UNL     1      17.795  47.132  48.463  1.00  0.00     0.118 C 
HETATM   18  C   UNL     1      17.973  48.110  49.610  1.00  0.00     0.026 C 
ENDBRANCH  14  17
ENDBRANCH  12  13
ENDBRANCH  11  12
ENDBRANCH   7  11
ENDBRANCH   1   5
BRANCH   2  19
HETATM   19  C   UNL     1      27.228  43.363  52.198  1.00  0.00     0.157 A 
HETATM   20  N   UNL     1      27.757  42.364  51.455  1.00  0.00    -0.168 NA
HETATM   21  N   UNL     1      28.926  42.097  52.068  1.00  0.00    -0.277 N 
HETATM   22  H   UNL     1      29.508  41.357  51.693  1.00  0.00     0.189 HD
HETATM   23  C   UNL     1      29.196  42.891  53.148  1.00  0.00     0.063 A 
HETATM   24  C   UNL     1      28.100  43.736  53.264  1.00  0.00     0.029 A 
HETATM   25  C   UNL     1      30.290  42.940  54.015  1.00  0.00     0.032 A 
HETATM   26  C   UNL     1      28.084  44.692  54.298  1.00  0.00     0.023 A 
HETATM   27  C   UNL     1      29.175  44.776  55.181  1.00  0.00    -0.061 A 
HETATM   28  C   UNL     1      30.258  43.902  55.034  1.00  0.00     0.009 A 
HETATM   29  C   UNL     1      29.159  45.808  56.272  1.00  0.00     0.048 C 
ENDBRANCH   2  19
TORSDOF 6
ENDMDL
MODEL 8
REMARK VINA RESULT:      -7.8      2.232      3.483
REMARK  6 active torsions:
REMARK  status: ('A' for Active; 'I' for Inactive)
REMARK    1  A    between atoms: C_2  and  N_3 
REMARK       I    between atoms: N_3  and  C_4 
REMARK    2  A    between atoms: C_4  and  C_5 
REMARK    3  A    between atoms: C_5  and  O_6 
REMARK    4  A    between atoms: O_6  and  C_7 
REMARK    5  A    between atoms: C_9  and  N_10 
REMARK       I    between atoms: N_10  and  C_11 
REMARK    6  A    between atoms: C_11  and  C_12 
ROOT
HETATM    1  N   UNL     1      25.159  46.152  50.838  1.00  0.00    -0.322 N 
HETATM    2  C   UNL     1      24.999  45.097  51.718  1.00  0.00     0.277 C 
HETATM    3  O   UNL     1      24.002  44.390  51.829  1.00  0.00    -0.266 OA
HETATM    4  H   UNL     1      26.048  46.635  50.943  1.00  0.00     0.169 HD
ENDROOT
BRANCH   1   5
HETATM    5  C   UNL     1      24.239  46.639  49.894  1.00  0.00     0.037 A 
HETATM    6  C   UNL     1      24.026  47.997  49.656  1.00  0.00     0.066 A 
HETATM    7  C   UNL     1      23.115  48.425  48.684  1.00  0.00     0.071 A 
HETATM    8  C   UNL     1      22.390  47.488  47.952  1.00  0.00     0.037 A 
HETATM    9  C   UNL     1      22.586  46.126  48.192  1.00  0.00     0.005 A 
HETATM   10  C   UNL     1      23.504  45.705  49.159  1.00  0.00     0.029 A 
BRANCH   7  11
HETATM   11  O   UNL     1      23.017  49.782  48.570  1.00  0.00    -0.342 OA
BRANCH  11  12
HETATM   12  C   UNL     1      22.406  50.487  49.648  1.00  0.00     0.278 C 
BRANCH  12  13
HETATM   13  C   UNL     1      20.892  50.516  49.425  1.00  0.00     0.241 C 
HETATM   14  N   UNL     1      20.512  51.098  48.233  1.00  0.00    -0.360 N 
HETATM   15  H   UNL     1      21.239  51.595  47.724  1.00  0.00     0.162 HD
HETATM   16  O   UNL     1      20.103  50.018  50.223  1.00  0.00    -0.271 OA
BRANCH  14  17
HETATM   17  C   UNL     1      19.132  51.305  47.863  1.00  0.00     0.118 C 
HETATM   18  C   UNL     1      18.596  52.611  48.422  1.00  0.00     0.026 C 
ENDBRANCH  14  17
ENDBRANCH  12  13
ENDBRANCH  11  12
ENDBRANCH   7  11
ENDBRANCH   1   5
BRANCH   2  19
HETATM   19  C   UNL     1      26.184  44.906  52.573  1.00  0.00     0.157 A 
HETATM   20  N   UNL     1      27.018  43.854  52.403  1.00  0.00    -0.168 NA
HETATM   21  N   UNL     1      27.947  44.028  53.362  1.00  0.00    -0.277 N 
HETATM   22  H   UNL     1      28.688  43.341  53.444  1.00  0.00     0.189 HD
HETATM   23  C   UNL     1      27.776  45.152  54.121  1.00  0.00     0.063 A 
HETATM   24  C   UNL     1      26.625  45.754  53.631  1.00  0.00     0.029 A 
HETATM   25  C   UNL     1      28.523  45.682  55.177  1.00  0.00     0.032 A 
HETATM   26  C   UNL     1      26.186  46.958  54.216  1.00  0.00     0.023 A 
HETATM   27  C   UNL     1      26.920  47.525  55.272  1.00  0.00    -0.061 A 
HETATM   28  C   UNL     1      28.072  46.882  55.741  1.00  0.00     0.009 A 
HETATM   29  C   UNL     1      26.454  48.816  55.881  1.00  0.00     0.048 C 
ENDBRANCH   2  19
TORSDOF 6
ENDMDL
MODEL 9
REMARK VINA RESULT:      -7.8      6.431      8.635
REMARK  6 active torsions:
REMARK  status: ('A' for Active; 'I' for Inactive)
REMARK    1  A    between atoms: C_2  and  N_3 
REMARK       I    between atoms: N_3  and  C_4 
REMARK    2  A    between atoms: C_4  and  C_5 
REMARK    3  A    between atoms: C_5  and  O_6 
REMARK    4  A    between atoms: O_6  and  C_7 
REMARK    5  A    between atoms: C_9  and  N_10 
REMARK       I    between atoms: N_10  and  C_11 
REMARK    6  A    between atoms: C_11  and  C_12 
ROOT
HETATM    1  N   UNL     1      28.391  41.351  51.652  1.00  0.00    -0.322 N 
HETATM    2  C   UNL     1      28.339  41.433  53.032  1.00  0.00     0.277 C 
HETATM    3  O   UNL     1      28.293  40.490  53.814  1.00  0.00    -0.266 OA
HETATM    4  H   UNL     1      28.377  42.257  51.191  1.00  0.00     0.169 HD
ENDROOT
BRANCH   1   5
HETATM    5  C   UNL     1      28.403  40.193  50.855  1.00  0.00     0.037 A 
HETATM    6  C   UNL     1      27.441  39.918  49.883  1.00  0.00     0.066 A 
HETATM    7  C   UNL     1      27.518  38.760  49.099  1.00  0.00     0.071 A 
HETATM    8  C   UNL     1      28.556  37.855  49.300  1.00  0.00     0.037 A 
HETATM    9  C   UNL     1      29.517  38.115  50.279  1.00  0.00     0.005 A 
HETATM   10  C   UNL     1      29.439  39.276  51.054  1.00  0.00     0.029 A 
BRANCH   7  11
HETATM   11  O   UNL     1      26.504  38.631  48.195  1.00  0.00    -0.342 OA
BRANCH  11  12
HETATM   12  C   UNL     1      26.421  39.609  47.160  1.00  0.00     0.278 C 
BRANCH  12  13
HETATM   13  C   UNL     1      27.407  39.239  46.050  1.00  0.00     0.241 C 
HETATM   14  N   UNL     1      27.356  37.914  45.673  1.00  0.00    -0.360 N 
HETATM   15  H   UNL     1      26.815  37.297  46.273  1.00  0.00     0.162 HD
HETATM   16  O   UNL     1      28.138  40.072  45.520  1.00  0.00    -0.271 OA
BRANCH  14  17
HETATM   17  C   UNL     1      28.257  37.335  44.704  1.00  0.00     0.118 C 
HETATM   18  C   UNL     1      29.496  36.763  45.370  1.00  0.00     0.026 C 
ENDBRANCH  14  17
ENDBRANCH  12  13
ENDBRANCH  11  12
ENDBRANCH   7  11
ENDBRANCH   1   5
BRANCH   2  19
HETATM   19  C   UNL     1      28.316  42.831  53.500  1.00  0.00     0.157 A 
HETATM   20  N   UNL     1      27.414  43.721  53.029  1.00  0.00    -0.168 NA
HETATM   21  N   UNL     1      27.722  44.860  53.679  1.00  0.00    -0.277 N 
HETATM   22  H   UNL     1      27.179  45.691  53.476  1.00  0.00     0.189 HD
HETATM   23  C   UNL     1      28.754  44.745  54.568  1.00  0.00     0.063 A 
HETATM   24  C   UNL     1      29.171  43.423  54.477  1.00  0.00     0.029 A 
HETATM   25  C   UNL     1      29.344  45.673  55.431  1.00  0.00     0.032 A 
HETATM   26  C   UNL     1      30.234  42.988  55.292  1.00  0.00     0.023 A 
HETATM   27  C   UNL     1      30.843  43.893  56.179  1.00  0.00    -0.061 A 
HETATM   28  C   UNL     1      30.397  45.218  56.236  1.00  0.00     0.009 A 
HETATM   29  C   UNL     1      31.967  43.418  57.055  1.00  0.00     0.048 C 
ENDBRANCH   2  19
TORSDOF 6
ENDMDL
MODEL 10
REMARK VINA RESULT:      -7.6      4.074      6.808
REMARK  6 active torsions:
REMARK  status: ('A' for Active; 'I' for Inactive)
REMARK    1  A    between atoms: C_2  and  N_3 
REMARK       I    between atoms: N_3  and  C_4 
REMARK    2  A    between atoms: C_4  and  C_5 
REMARK    3  A    between atoms: C_5  and  O_6 
REMARK    4  A    between atoms: O_6  and  C_7 
REMARK    5  A    between atoms: C_9  and  N_10 
REMARK       I    between atoms: N_10  and  C_11 
REMARK    6  A    between atoms: C_11  and  C_12 
ROOT
HETATM    1  N   UNL     1      22.280  49.137  49.624  1.00  0.00    -0.322 N 
HETATM    2  C   UNL     1      22.980  48.262  48.811  1.00  0.00     0.277 C 
HETATM    3  O   UNL     1      22.691  47.952  47.660  1.00  0.00    -0.266 OA
HETATM    4  H   UNL     1      22.667  49.217  50.560  1.00  0.00     0.169 HD
ENDROOT
BRANCH   1   5
HETATM    5  C   UNL     1      21.109  49.852  49.319  1.00  0.00     0.037 A 
HETATM    6  C   UNL     1      19.825  49.334  49.488  1.00  0.00     0.066 A 
HETATM    7  C   UNL     1      18.693  50.102  49.192  1.00  0.00     0.071 A 
HETATM    8  C   UNL     1      18.842  51.396  48.701  1.00  0.00     0.037 A 
HETATM    9  C   UNL     1      20.123  51.919  48.516  1.00  0.00     0.005 A 
HETATM   10  C   UNL     1      21.250  51.150  48.821  1.00  0.00     0.029 A 
BRANCH   7  11
HETATM   11  O   UNL     1      17.509  49.456  49.407  1.00  0.00    -0.342 OA
BRANCH  11  12
HETATM   12  C   UNL     1      16.658  49.256  48.281  1.00  0.00     0.278 C 
BRANCH  12  13
HETATM   13  C   UNL     1      17.146  48.033  47.503  1.00  0.00     0.241 C 
HETATM   14  N   UNL     1      17.124  46.860  48.228  1.00  0.00    -0.360 N 
HETATM   15  H   UNL     1      16.962  46.954  49.228  1.00  0.00     0.162 HD
HETATM   16  O   UNL     1      17.479  48.099  46.323  1.00  0.00    -0.271 OA
BRANCH  14  17
HETATM   17  C   UNL     1      17.621  45.606  47.714  1.00  0.00     0.118 C 
HETATM   18  C   UNL     1      19.076  45.389  48.089  1.00  0.00     0.026 C 
ENDBRANCH  14  17
ENDBRANCH  12  13
ENDBRANCH  11  12
ENDBRANCH   7  11
ENDBRANCH   1   5
BRANCH   2  19
HETATM   19  C   UNL     1      24.149  47.686  49.499  1.00  0.00     0.157 A 
HETATM   20  N   UNL     1      25.192  48.454  49.888  1.00  0.00    -0.168 NA
HETATM   21  N   UNL     1      26.040  47.576  50.455  1.00  0.00    -0.277 N 
HETATM   22  H   UNL     1      26.921  47.922  50.818  1.00  0.00     0.189 HD
HETATM   23  C   UNL     1      25.587  46.286  50.484  1.00  0.00     0.063 A 
HETATM   24  C   UNL     1      24.345  46.320  49.862  1.00  0.00     0.029 A 
HETATM   25  C   UNL     1      26.151  45.114  50.995  1.00  0.00     0.032 A 
HETATM   26  C   UNL     1      23.612  45.124  49.742  1.00  0.00     0.023 A 
HETATM   27  C   UNL     1      24.145  43.929  50.256  1.00  0.00    -0.061 A 
HETATM   28  C   UNL     1      25.403  43.936  50.869  1.00  0.00     0.009 A 
HETATM   29  C   UNL     1      23.350  42.660  50.137  1.00  0.00     0.048 C 
ENDBRANCH   2  19
TORSDOF 6
ENDMDL
