MODEL 1
REMARK VINA RESULT:      -8.9      0.000      0.000
REMARK  6 active torsions:
REMARK  status: ('A' for Active; 'I' for Inactive)
REMARK    1  A    between atoms: O_2  and  C_3 
REMARK    2  A    between atoms: C_6  and  C_7 
REMARK    3  A    between atoms: C_7  and  C_8 
REMARK    4  A    between atoms: C_8  and  C_9 
REMARK       I    between atoms: C_9  and  N_10 
REMARK    5  A    between atoms: N_10  and  N_11 
REMARK    6  A    between atoms: C_12  and  C_13 
ROOT
HETATM    1  C   UNL     1      25.256  45.158  52.480  1.00  0.00     0.237 C 
HETATM    2  N   UNL     1      25.974  46.343  52.404  1.00  0.00    -0.247 N 
HETATM    3  O   UNL     1      24.241  44.893  51.842  1.00  0.00    -0.272 OA
HETATM    4  H   UNL     1      26.813  46.476  52.956  1.00  0.00     0.192 HD
ENDROOT
BRANCH   2   5
HETATM    5  N   UNL     1      25.557  47.334  51.562  1.00  0.00    -0.184 NA
HETATM    6  C   UNL     1      26.194  47.428  50.440  1.00  0.00     0.152 C 
BRANCH   6   7
HETATM    7  C   UNL     1      25.815  48.448  49.485  1.00  0.00     0.011 A 
HETATM    8  C   UNL     1      24.490  48.820  49.087  1.00  0.00     0.004 A 
HETATM    9  C   UNL     1      24.610  49.846  48.148  1.00  0.00     0.043 A 
HETATM   10  C   UNL     1      23.195  48.378  49.434  1.00  0.00     0.014 A 
HETATM   11  C   UNL     1      23.504  50.453  47.541  1.00  0.00     0.030 A 
HETATM   12  N   UNL     1      25.953  50.089  47.980  1.00  0.00    -0.364 N 
HETATM   13  C   UNL     1      22.233  49.997  47.903  1.00  0.00     0.002 A 
HETATM   14  C   UNL     1      22.078  48.975  48.835  1.00  0.00     0.001 A 
HETATM   15  H   UNL     1      26.340  50.784  47.356  1.00  0.00     0.165 HD
HETATM   16  C   UNL     1      26.686  49.253  48.776  1.00  0.00     0.102 A 
ENDBRANCH   6   7
ENDBRANCH   2   5
BRANCH   1  17
HETATM   17  C   UNL     1      25.831  44.184  53.484  1.00  0.00     0.109 C 
BRANCH  17  18
HETATM   18  C   UNL     1      27.175  43.655  52.997  1.00  0.00     0.048 C 
BRANCH  18  19
HETATM   19  C   UNL     1      28.274  43.904  53.999  1.00  0.00    -0.058 A 
HETATM   20  C   UNL     1      29.299  42.972  54.190  1.00  0.00     0.010 A 
HETATM   21  C   UNL     1      30.308  43.218  55.124  1.00  0.00     0.037 A 
HETATM   22  C   UNL     1      30.312  44.392  55.880  1.00  0.00     0.068 A 
HETATM   23  C   UNL     1      29.283  45.317  55.704  1.00  0.00     0.037 A 
HETATM   24  C   UNL     1      28.272  45.074  54.769  1.00  0.00     0.010 A 
BRANCH  22  25
HETATM   25  O   UNL     1      31.359  44.510  56.751  1.00  0.00    -0.356 OA
HETATM   26  C   UNL     1      31.951  43.300  57.208  1.00  0.00     0.210 C 
ENDBRANCH  22  25
ENDBRANCH  18  19
ENDBRANCH  17  18
ENDBRANCH   1  17
TORSDOF 6
ENDMDL
MODEL 2
REMARK VINA RESULT:      -8.5      1.639      2.446
REMARK  6 active torsions:
REMARK  status: ('A' for Active; 'I' for Inactive)
REMARK    1  A    between atoms: O_2  and  C_3 
REMARK    2  A    between atoms: C_6  and  C_7 
REMARK    3  A    between atoms: C_7  and  C_8 
REMARK    4  A    between atoms: C_8  and  C_9 
REMARK       I    between atoms: C_9  and  N_10 
REMARK    5  A    between atoms: N_10  and  N_11 
REMARK    6  A    between atoms: C_12  and  C_13 
ROOT
HETATM    1  C   UNL     1      25.662  46.662  52.081  1.00  0.00     0.237 C 
HETATM    2  N   UNL     1      25.265  46.839  50.763  1.00  0.00    -0.247 N 
HETATM    3  O   UNL     1      25.626  47.517  52.961  1.00  0.00    -0.272 OA
HETATM    4  H   UNL     1      25.314  46.073  50.101  1.00  0.00     0.192 HD
ENDROOT
BRANCH   2   5
HETATM    5  N   UNL     1      24.785  48.051  50.358  1.00  0.00    -0.184 NA
HETATM    6  C   UNL     1      23.687  48.026  49.675  1.00  0.00     0.152 C 
BRANCH   6   7
HETATM    7  C   UNL     1      23.105  49.266  49.209  1.00  0.00     0.011 A 
HETATM    8  C   UNL     1      21.714  49.601  49.132  1.00  0.00     0.004 A 
HETATM    9  C   UNL     1      21.625  50.899  48.624  1.00  0.00     0.043 A 
HETATM   10  C   UNL     1      20.517  48.922  49.444  1.00  0.00     0.014 A 
HETATM   11  C   UNL     1      20.404  51.551  48.416  1.00  0.00     0.030 A 
HETATM   12  N   UNL     1      22.910  51.337  48.400  1.00  0.00    -0.364 N 
HETATM   13  C   UNL     1      19.235  50.855  48.733  1.00  0.00     0.002 A 
HETATM   14  C   UNL     1      19.287  49.560  49.240  1.00  0.00     0.001 A 
HETATM   15  H   UNL     1      23.153  52.246  48.032  1.00  0.00     0.165 HD
HETATM   16  C   UNL     1      23.806  50.363  48.745  1.00  0.00     0.102 A 
ENDBRANCH   6   7
ENDBRANCH   2   5
BRANCH   1  17
HETATM   17  C   UNL     1      26.201  45.275  52.353  1.00  0.00     0.109 C 
BRANCH  17  18
HETATM   18  C   UNL     1      26.145  44.969  53.846  1.00  0.00     0.048 C 
BRANCH  18  19
HETATM   19  C   UNL     1      27.521  44.777  54.431  1.00  0.00    -0.058 A 
HETATM   20  C   UNL     1      28.134  45.788  55.178  1.00  0.00     0.010 A 
HETATM   21  C   UNL     1      29.410  45.593  55.711  1.00  0.00     0.037 A 
HETATM   22  C   UNL     1      30.094  44.392  55.508  1.00  0.00     0.068 A 
HETATM   23  C   UNL     1      29.494  43.387  54.751  1.00  0.00     0.037 A 
HETATM   24  C   UNL     1      28.215  43.579  54.216  1.00  0.00     0.010 A 
BRANCH  22  25
HETATM   25  O   UNL     1      31.330  44.331  56.091  1.00  0.00    -0.356 OA
HETATM   26  C   UNL     1      31.532  43.305  57.055  1.00  0.00     0.210 C 
ENDBRANCH  22  25
ENDBRANCH  18  19
ENDBRANCH  17  18
ENDBRANCH   1  17
TORSDOF 6
ENDMDL
MODEL 3
REMARK VINA RESULT:      -8.5      3.476     10.102
REMARK  6 active torsions:
REMARK  status: ('A' for Active; 'I' for Inactive)
REMARK    1  A    between atoms: O_2  and  C_3 
REMARK    2  A    between atoms: C_6  and  C_7 
REMARK    3  A    between atoms: C_7  and  C_8 
REMARK    4  A    between atoms: C_8  and  C_9 
REMARK       I    between atoms: C_9  and  N_10 
REMARK    5  A    between atoms: N_10  and  N_11 
REMARK    6  A    between atoms: C_12  and  C_13 
ROOT
HETATM    1  C   UNL     1      24.116  49.037  48.858  1.00  0.00     0.237 C 
HETATM    2  N   UNL     1      23.869  48.164  49.907  1.00  0.00    -0.247 N 
HETATM    3  O   UNL     1      25.221  49.449  48.513  1.00  0.00    -0.272 OA
HETATM    4  H   UNL     1      22.925  47.861  50.115  1.00  0.00     0.192 HD
ENDROOT
BRANCH   2   5
HETATM    5  N   UNL     1      24.909  47.691  50.654  1.00  0.00    -0.184 NA
HETATM    6  C   UNL     1      24.759  46.505  51.148  1.00  0.00     0.152 C 
BRANCH   6   7
HETATM    7  C   UNL     1      25.815  45.924  51.949  1.00  0.00     0.011 A 
HETATM    8  C   UNL     1      26.333  46.411  53.193  1.00  0.00     0.004 A 
HETATM    9  C   UNL     1      27.339  45.531  53.598  1.00  0.00     0.043 A 
HETATM   10  C   UNL     1      26.044  47.520  54.016  1.00  0.00     0.014 A 
HETATM   11  C   UNL     1      28.067  45.702  54.781  1.00  0.00     0.030 A 
HETATM   12  N   UNL     1      27.430  44.548  52.640  1.00  0.00    -0.364 N 
HETATM   13  C   UNL     1      27.761  46.810  55.577  1.00  0.00     0.002 A 
HETATM   14  C   UNL     1      26.765  47.707  55.203  1.00  0.00     0.001 A 
HETATM   15  H   UNL     1      28.078  43.773  52.669  1.00  0.00     0.165 HD
HETATM   16  C   UNL     1      26.522  44.777  51.644  1.00  0.00     0.102 A 
ENDBRANCH   6   7
ENDBRANCH   2   5
BRANCH   1  17
HETATM   17  C   UNL     1      22.854  49.491  48.158  1.00  0.00     0.109 C 
BRANCH  17  18
HETATM   18  C   UNL     1      22.529  50.932  48.536  1.00  0.00     0.048 C 
BRANCH  18  19
HETATM   19  C   UNL     1      21.092  51.090  48.963  1.00  0.00    -0.058 A 
HETATM   20  C   UNL     1      20.557  50.308  49.992  1.00  0.00     0.010 A 
HETATM   21  C   UNL     1      19.223  50.466  50.374  1.00  0.00     0.037 A 
HETATM   22  C   UNL     1      18.403  51.401  49.739  1.00  0.00     0.068 A 
HETATM   23  C   UNL     1      18.928  52.172  48.702  1.00  0.00     0.037 A 
HETATM   24  C   UNL     1      20.264  52.017  48.318  1.00  0.00     0.010 A 
BRANCH  22  25
HETATM   25  O   UNL     1      17.123  51.459  50.215  1.00  0.00    -0.356 OA
HETATM   26  C   UNL     1      16.218  52.305  49.516  1.00  0.00     0.210 C 
ENDBRANCH  22  25
ENDBRANCH  18  19
ENDBRANCH  17  18
ENDBRANCH   1  17
TORSDOF 6
ENDMDL
MODEL 4
REMARK VINA RESULT:      -8.4      3.113     10.046
REMARK  6 active torsions:
REMARK  status: ('A' for Active; 'I' for Inactive)
REMARK    1  A    between atoms: O_2  and  C_3 
REMARK    2  A    between atoms: C_6  and  C_7 
REMARK    3  A    between atoms: C_7  and  C_8 
REMARK    4  A    between atoms: C_8  and  C_9 
REMARK       I    between atoms: C_9  and  N_10 
REMARK    5  A    between atoms: N_10  and  N_11 
REMARK    6  A    between atoms: C_12  and  C_13 
ROOT
HETATM    1  C   UNL     1      24.032  48.399  49.443  1.00  0.00     0.237 C 
HETATM    2  N   UNL     1      24.081  47.411  50.417  1.00  0.00    -0.247 N 
HETATM    3  O   UNL     1      24.793  49.358  49.357  1.00  0.00    -0.272 OA
HETATM    4  H   UNL     1      23.421  46.642  50.407  1.00  0.00     0.192 HD
ENDROOT
BRANCH   2   5
HETATM    5  N   UNL     1      25.039  47.465  51.387  1.00  0.00    -0.184 NA
HETATM    6  C   UNL     1      25.095  46.449  52.186  1.00  0.00     0.152 C 
BRANCH   6   7
HETATM    7  C   UNL     1      26.085  46.420  53.241  1.00  0.00     0.011 A 
HETATM    8  C   UNL     1      27.107  45.438  53.450  1.00  0.00     0.004 A 
HETATM    9  C   UNL     1      27.825  45.819  54.586  1.00  0.00     0.043 A 
HETATM   10  C   UNL     1      27.491  44.255  52.783  1.00  0.00     0.014 A 
HETATM   11  C   UNL     1      28.905  45.082  55.086  1.00  0.00     0.030 A 
HETATM   12  N   UNL     1      27.262  46.986  55.050  1.00  0.00    -0.364 N 
HETATM   13  C   UNL     1      29.263  43.915  54.405  1.00  0.00     0.002 A 
HETATM   14  C   UNL     1      28.569  43.505  53.271  1.00  0.00     0.001 A 
HETATM   15  H   UNL     1      27.578  47.494  55.865  1.00  0.00     0.165 HD
HETATM   16  C   UNL     1      26.215  47.354  54.252  1.00  0.00     0.102 A 
ENDBRANCH   6   7
ENDBRANCH   2   5
BRANCH   1  17
HETATM   17  C   UNL     1      22.891  48.209  48.469  1.00  0.00     0.109 C 
BRANCH  17  18
HETATM   18  C   UNL     1      22.452  49.554  47.899  1.00  0.00     0.048 C 
BRANCH  18  19
HETATM   19  C   UNL     1      21.170  50.038  48.527  1.00  0.00    -0.058 A 
HETATM   20  C   UNL     1      20.358  49.171  49.266  1.00  0.00     0.010 A 
HETATM   21  C   UNL     1      19.173  49.637  49.839  1.00  0.00     0.037 A 
HETATM   22  C   UNL     1      18.777  50.967  49.685  1.00  0.00     0.068 A 
HETATM   23  C   UNL     1      19.576  51.831  48.936  1.00  0.00     0.037 A 
HETATM   24  C   UNL     1      20.765  51.368  48.362  1.00  0.00     0.010 A 
BRANCH  22  25
HETATM   25  O   UNL     1      17.601  51.291  50.303  1.00  0.00    -0.356 OA
HETATM   26  C   UNL     1      16.995  52.519  49.919  1.00  0.00     0.210 C 
ENDBRANCH  22  25
ENDBRANCH  18  19
ENDBRANCH  17  18
ENDBRANCH   1  17
TORSDOF 6
ENDMDL
MODEL 5
REMARK VINA RESULT:      -8.4      2.743      8.922
REMARK  6 active torsions:
REMARK  status: ('A' for Active; 'I' for Inactive)
REMARK    1  A    between atoms: O_2  and  C_3 
REMARK    2  A    between atoms: C_6  and  C_7 
REMARK    3  A    between atoms: C_7  and  C_8 
REMARK    4  A    between atoms: C_8  and  C_9 
REMARK       I    between atoms: C_9  and  N_10 
REMARK    5  A    between atoms: N_10  and  N_11 
REMARK    6  A    between atoms: C_12  and  C_13 
ROOT
HETATM    1  C   UNL     1      25.423  43.944  52.422  1.00  0.00     0.237 C 
HETATM    2  N   UNL     1      26.708  43.579  52.800  1.00  0.00    -0.247 N 
HETATM    3  O   UNL     1      24.625  44.572  53.112  1.00  0.00    -0.272 OA
HETATM    4  H   UNL     1      27.310  43.072  52.161  1.00  0.00     0.192 HD
ENDROOT
BRANCH   2   5
HETATM    5  N   UNL     1      27.173  43.924  54.036  1.00  0.00    -0.184 NA
HETATM    6  C   UNL     1      28.141  44.781  54.058  1.00  0.00     0.152 C 
BRANCH   6   7
HETATM    7  C   UNL     1      28.693  45.207  55.326  1.00  0.00     0.011 A 
HETATM    8  C   UNL     1      29.816  44.649  56.019  1.00  0.00     0.004 A 
HETATM    9  C   UNL     1      29.982  45.379  57.198  1.00  0.00     0.043 A 
HETATM   10  C   UNL     1      30.709  43.588  55.758  1.00  0.00     0.014 A 
HETATM   11  C   UNL     1      30.995  45.104  58.125  1.00  0.00     0.030 A 
HETATM   12  N   UNL     1      29.000  46.342  57.222  1.00  0.00    -0.364 N 
HETATM   13  C   UNL     1      31.865  44.048  57.841  1.00  0.00     0.002 A 
HETATM   14  C   UNL     1      31.727  43.299  56.676  1.00  0.00     0.001 A 
HETATM   15  H   UNL     1      28.876  47.019  57.962  1.00  0.00     0.165 HD
HETATM   16  C   UNL     1      28.219  46.246  56.105  1.00  0.00     0.102 A 
ENDBRANCH   6   7
ENDBRANCH   2   5
BRANCH   1  17
HETATM   17  C   UNL     1      25.054  43.454  51.040  1.00  0.00     0.109 C 
BRANCH  17  18
HETATM   18  C   UNL     1      25.933  44.124  49.989  1.00  0.00     0.048 C 
BRANCH  18  19
HETATM   19  C   UNL     1      25.571  45.574  49.796  1.00  0.00    -0.058 A 
HETATM   20  C   UNL     1      26.558  46.564  49.766  1.00  0.00     0.010 A 
HETATM   21  C   UNL     1      26.204  47.904  49.588  1.00  0.00     0.037 A 
HETATM   22  C   UNL     1      24.867  48.277  49.438  1.00  0.00     0.068 A 
HETATM   23  C   UNL     1      23.878  47.295  49.482  1.00  0.00     0.037 A 
HETATM   24  C   UNL     1      24.229  45.952  49.660  1.00  0.00     0.010 A 
BRANCH  22  25
HETATM   25  O   UNL     1      24.661  49.618  49.264  1.00  0.00    -0.356 OA
HETATM   26  C   UNL     1      23.405  50.007  48.721  1.00  0.00     0.210 C 
ENDBRANCH  22  25
ENDBRANCH  18  19
ENDBRANCH  17  18
ENDBRANCH   1  17
TORSDOF 6
ENDMDL
MODEL 6
REMARK VINA RESULT:      -8.3      2.629      9.942
REMARK  6 active torsions:
REMARK  status: ('A' for Active; 'I' for Inactive)
REMARK    1  A    between atoms: O_2  and  C_3 
REMARK    2  A    between atoms: C_6  and  C_7 
REMARK    3  A    between atoms: C_7  and  C_8 
REMARK    4  A    between atoms: C_8  and  C_9 
REMARK       I    between atoms: C_9  and  N_10 
REMARK    5  A    between atoms: N_10  and  N_11 
REMARK    6  A    between atoms: C_12  and  C_13 
ROOT
HETATM    1  C   UNL     1      25.302  47.637  50.593  1.00  0.00     0.237 C 
HETATM    2  N   UNL     1      25.067  47.077  51.841  1.00  0.00    -0.247 N 
HETATM    3  O   UNL     1      26.338  48.194  50.241  1.00  0.00    -0.272 OA
HETATM    4  H   UNL     1      24.185  46.621  52.045  1.00  0.00     0.192 HD
ENDROOT
BRANCH   2   5
HETATM    5  N   UNL     1      26.041  47.121  52.796  1.00  0.00    -0.184 NA
HETATM    6  C   UNL     1      26.412  45.980  53.280  1.00  0.00     0.152 C 
BRANCH   6   7
HETATM    7  C   UNL     1      27.443  45.933  54.295  1.00  0.00     0.011 A 
HETATM    8  C   UNL     1      28.473  44.949  54.446  1.00  0.00     0.004 A 
HETATM    9  C   UNL     1      29.234  45.310  55.559  1.00  0.00     0.043 A 
HETATM   10  C   UNL     1      28.831  43.779  53.742  1.00  0.00     0.014 A 
HETATM   11  C   UNL     1      30.334  44.565  56.002  1.00  0.00     0.030 A 
HETATM   12  N   UNL     1      28.690  46.467  56.066  1.00  0.00    -0.364 N 
HETATM   13  C   UNL     1      30.666  43.412  55.286  1.00  0.00     0.002 A 
HETATM   14  C   UNL     1      29.928  43.022  54.173  1.00  0.00     0.001 A 
HETATM   15  H   UNL     1      29.037  46.961  56.877  1.00  0.00     0.165 HD
HETATM   16  C   UNL     1      27.612  46.848  55.317  1.00  0.00     0.102 A 
ENDBRANCH   6   7
ENDBRANCH   2   5
BRANCH   1  17
HETATM   17  C   UNL     1      24.110  47.534  49.667  1.00  0.00     0.109 C 
BRANCH  17  18
HETATM   18  C   UNL     1      24.027  48.766  48.773  1.00  0.00     0.048 C 
BRANCH  18  19
HETATM   19  C   UNL     1      22.664  49.406  48.824  1.00  0.00    -0.058 A 
HETATM   20  C   UNL     1      22.501  50.773  48.579  1.00  0.00     0.010 A 
HETATM   21  C   UNL     1      21.230  51.350  48.632  1.00  0.00     0.037 A 
HETATM   22  C   UNL     1      20.105  50.578  48.931  1.00  0.00     0.068 A 
HETATM   23  C   UNL     1      20.265  49.218  49.191  1.00  0.00     0.037 A 
HETATM   24  C   UNL     1      21.536  48.636  49.138  1.00  0.00     0.010 A 
BRANCH  22  25
HETATM   25  O   UNL     1      18.924  51.266  48.943  1.00  0.00    -0.356 OA
HETATM   26  C   UNL     1      17.939  50.830  49.873  1.00  0.00     0.210 C 
ENDBRANCH  22  25
ENDBRANCH  18  19
ENDBRANCH  17  18
ENDBRANCH   1  17
TORSDOF 6
ENDMDL
MODEL 7
REMARK VINA RESULT:      -8.2      2.041      3.169
REMARK  6 active torsions:
REMARK  status: ('A' for Active; 'I' for Inactive)
REMARK    1  A    between atoms: O_2  and  C_3 
REMARK    2  A    between atoms: C_6  and  C_7 
REMARK    3  A    between atoms: C_7  and  C_8 
REMARK    4  A    between atoms: C_8  and  C_9 
REMARK       I    between atoms: C_9  and  N_10 
REMARK    5  A    between atoms: N_10  and  N_11 
REMARK    6  A    between atoms: C_12  and  C_13 
ROOT
HETATM    1  C   UNL     1      27.171  42.283  50.730  1.00  0.00     0.237 C 
HETATM    2  N   UNL     1      27.673  43.563  50.540  1.00  0.00    -0.247 N 
HETATM    3  O   UNL     1      26.051  41.897  50.405  1.00  0.00    -0.272 OA
HETATM    4  H   UNL     1      28.617  43.795  50.825  1.00  0.00     0.192 HD
ENDROOT
BRANCH   2   5
HETATM    5  N   UNL     1      26.895  44.513  49.944  1.00  0.00    -0.184 NA
HETATM    6  C   UNL     1      26.501  45.482  50.706  1.00  0.00     0.152 C 
BRANCH   6   7
HETATM    7  C   UNL     1      25.676  46.536  50.156  1.00  0.00     0.011 A 
HETATM    8  C   UNL     1      26.113  47.770  49.574  1.00  0.00     0.004 A 
HETATM    9  C   UNL     1      24.972  48.472  49.181  1.00  0.00     0.043 A 
HETATM   10  C   UNL     1      27.374  48.362  49.346  1.00  0.00     0.014 A 
HETATM   11  C   UNL     1      25.026  49.731  48.571  1.00  0.00     0.030 A 
HETATM   12  N   UNL     1      23.884  47.697  49.511  1.00  0.00    -0.364 N 
HETATM   13  C   UNL     1      26.288  50.294  48.357  1.00  0.00     0.002 A 
HETATM   14  C   UNL     1      27.446  49.622  48.738  1.00  0.00     0.001 A 
HETATM   15  H   UNL     1      22.921  47.954  49.343  1.00  0.00     0.165 HD
HETATM   16  C   UNL     1      24.296  46.534  50.099  1.00  0.00     0.102 A 
ENDBRANCH   6   7
ENDBRANCH   2   5
BRANCH   1  17
HETATM   17  C   UNL     1      28.146  41.366  51.433  1.00  0.00     0.109 C 
BRANCH  17  18
HETATM   18  C   UNL     1      27.796  41.257  52.914  1.00  0.00     0.048 C 
BRANCH  18  19
HETATM   19  C   UNL     1      28.320  42.431  53.702  1.00  0.00    -0.058 A 
HETATM   20  C   UNL     1      27.458  43.433  54.159  1.00  0.00     0.010 A 
HETATM   21  C   UNL     1      27.961  44.514  54.887  1.00  0.00     0.037 A 
HETATM   22  C   UNL     1      29.325  44.615  55.169  1.00  0.00     0.068 A 
HETATM   23  C   UNL     1      30.190  43.626  54.702  1.00  0.00     0.037 A 
HETATM   24  C   UNL     1      29.690  42.541  53.974  1.00  0.00     0.010 A 
BRANCH  22  25
HETATM   25  O   UNL     1      29.681  45.717  55.894  1.00  0.00    -0.356 OA
HETATM   26  C   UNL     1      28.753  46.165  56.875  1.00  0.00     0.210 C 
ENDBRANCH  22  25
ENDBRANCH  18  19
ENDBRANCH  17  18
ENDBRANCH   1  17
TORSDOF 6
ENDMDL
MODEL 8
REMARK VINA RESULT:      -8.0      1.716      2.486
REMARK  6 active torsions:
REMARK  status: ('A' for Active; 'I' for Inactive)
REMARK    1  A    between atoms: O_2  and  C_3 
REMARK    2  A    between atoms: C_6  and  C_7 
REMARK    3  A    between atoms: C_7  and  C_8 
REMARK    4  A    between atoms: C_8  and  C_9 
REMARK       I    between atoms: C_9  and  N_10 
REMARK    5  A    between atoms: N_10  and  N_11 
REMARK    6  A    between atoms: C_12  and  C_13 
ROOT
HETATM    1  C   UNL     1      25.519  44.041  52.350  1.00  0.00     0.237 C 
HETATM    2  N   UNL     1      25.603  44.696  51.130  1.00  0.00    -0.247 N 
HETATM    3  O   UNL     1      24.606  44.156  53.165  1.00  0.00    -0.272 OA
HETATM    4  H   UNL     1      26.386  44.532  50.508  1.00  0.00     0.192 HD
ENDROOT
BRANCH   2   5
HETATM    5  N   UNL     1      24.612  45.556  50.754  1.00  0.00    -0.184 NA
HETATM    6  C   UNL     1      24.412  45.669  49.481  1.00  0.00     0.152 C 
BRANCH   6   7
HETATM    7  C   UNL     1      23.378  46.556  48.994  1.00  0.00     0.011 A 
HETATM    8  C   UNL     1      23.475  47.968  48.770  1.00  0.00     0.004 A 
HETATM    9  C   UNL     1      22.234  48.401  48.299  1.00  0.00     0.043 A 
HETATM   10  C   UNL     1      24.502  48.924  48.926  1.00  0.00     0.014 A 
HETATM   11  C   UNL     1      21.969  49.737  47.974  1.00  0.00     0.030 A 
HETATM   12  N   UNL     1      21.414  47.298  48.238  1.00  0.00    -0.364 N 
HETATM   13  C   UNL     1      23.004  50.662  48.138  1.00  0.00     0.002 A 
HETATM   14  C   UNL     1      24.252  50.264  48.607  1.00  0.00     0.001 A 
HETATM   15  H   UNL     1      20.451  47.312  47.931  1.00  0.00     0.165 HD
HETATM   16  C   UNL     1      22.090  46.186  48.656  1.00  0.00     0.102 A 
ENDBRANCH   6   7
ENDBRANCH   2   5
BRANCH   1  17
HETATM   17  C   UNL     1      26.713  43.155  52.627  1.00  0.00     0.109 C 
BRANCH  17  18
HETATM   18  C   UNL     1      28.008  43.921  52.382  1.00  0.00     0.048 C 
BRANCH  18  19
HETATM   19  C   UNL     1      28.804  44.098  53.650  1.00  0.00    -0.058 A 
HETATM   20  C   UNL     1      28.523  45.143  54.536  1.00  0.00     0.010 A 
HETATM   21  C   UNL     1      29.271  45.294  55.706  1.00  0.00     0.037 A 
HETATM   22  C   UNL     1      30.309  44.410  56.010  1.00  0.00     0.068 A 
HETATM   23  C   UNL     1      30.603  43.376  55.122  1.00  0.00     0.037 A 
HETATM   24  C   UNL     1      29.854  43.221  53.950  1.00  0.00     0.010 A 
BRANCH  22  25
HETATM   25  O   UNL     1      30.955  44.666  57.187  1.00  0.00    -0.356 OA
HETATM   26  C   UNL     1      30.470  45.760  57.958  1.00  0.00     0.210 C 
ENDBRANCH  22  25
ENDBRANCH  18  19
ENDBRANCH  17  18
ENDBRANCH   1  17
TORSDOF 6
ENDMDL
MODEL 9
REMARK VINA RESULT:      -8.0      2.585      3.916
REMARK  6 active torsions:
REMARK  status: ('A' for Active; 'I' for Inactive)
REMARK    1  A    between atoms: O_2  and  C_3 
REMARK    2  A    between atoms: C_6  and  C_7 
REMARK    3  A    between atoms: C_7  and  C_8 
REMARK    4  A    between atoms: C_8  and  C_9 
REMARK       I    between atoms: C_9  and  N_10 
REMARK    5  A    between atoms: N_10  and  N_11 
REMARK    6  A    between atoms: C_12  and  C_13 
ROOT
HETATM    1  C   UNL     1      24.772  46.797  50.585  1.00  0.00     0.237 C 
HETATM    2  N   UNL     1      24.185  47.987  50.179  1.00  0.00    -0.247 N 
HETATM    3  O   UNL     1      24.358  45.669  50.330  1.00  0.00    -0.272 OA
HETATM    4  H   UNL     1      24.602  48.878  50.421  1.00  0.00     0.192 HD
ENDROOT
BRANCH   2   5
HETATM    5  N   UNL     1      23.046  47.957  49.428  1.00  0.00    -0.184 NA
HETATM    6  C   UNL     1      22.557  49.107  49.094  1.00  0.00     0.152 C 
BRANCH   6   7
HETATM    7  C   UNL     1      21.353  49.169  48.293  1.00  0.00     0.011 A 
HETATM    8  C   UNL     1      20.439  50.266  48.178  1.00  0.00     0.004 A 
HETATM    9  C   UNL     1      19.428  49.875  47.298  1.00  0.00     0.043 A 
HETATM   10  C   UNL     1      20.372  51.559  48.741  1.00  0.00     0.014 A 
HETATM   11  C   UNL     1      18.358  50.709  46.951  1.00  0.00     0.030 A 
HETATM   12  N   UNL     1      19.714  48.591  46.894  1.00  0.00    -0.364 N 
HETATM   13  C   UNL     1      18.317  51.983  47.524  1.00  0.00     0.002 A 
HETATM   14  C   UNL     1      19.307  52.404  48.406  1.00  0.00     0.001 A 
HETATM   15  H   UNL     1      19.150  48.050  46.253  1.00  0.00     0.165 HD
HETATM   16  C   UNL     1      20.865  48.157  47.488  1.00  0.00     0.102 A 
ENDBRANCH   6   7
ENDBRANCH   2   5
BRANCH   1  17
HETATM   17  C   UNL     1      26.004  47.009  51.437  1.00  0.00     0.109 C 
BRANCH  17  18
HETATM   18  C   UNL     1      25.646  46.912  52.916  1.00  0.00     0.048 C 
BRANCH  18  19
HETATM   19  C   UNL     1      26.790  46.371  53.736  1.00  0.00    -0.058 A 
HETATM   20  C   UNL     1      27.418  47.161  54.704  1.00  0.00     0.010 A 
HETATM   21  C   UNL     1      28.478  46.644  55.454  1.00  0.00     0.037 A 
HETATM   22  C   UNL     1      28.928  45.338  55.251  1.00  0.00     0.068 A 
HETATM   23  C   UNL     1      28.314  44.552  54.276  1.00  0.00     0.037 A 
HETATM   24  C   UNL     1      27.252  45.066  53.524  1.00  0.00     0.010 A 
BRANCH  22  25
HETATM   25  O   UNL     1      29.965  44.957  56.055  1.00  0.00    -0.356 OA
HETATM   26  C   UNL     1      30.717  43.824  55.637  1.00  0.00     0.210 C 
ENDBRANCH  22  25
ENDBRANCH  18  19
ENDBRANCH  17  18
ENDBRANCH   1  17
TORSDOF 6
ENDMDL
MODEL 10
REMARK VINA RESULT:      -8.0      4.242      7.921
REMARK  6 active torsions:
REMARK  status: ('A' for Active; 'I' for Inactive)
REMARK    1  A    between atoms: O_2  and  C_3 
REMARK    2  A    between atoms: C_6  and  C_7 
REMARK    3  A    between atoms: C_7  and  C_8 
REMARK    4  A    between atoms: C_8  and  C_9 
REMARK       I    between atoms: C_9  and  N_10 
REMARK    5  A    between atoms: N_10  and  N_11 
REMARK    6  A    between atoms: C_12  and  C_13 
ROOT
HETATM    1  C   UNL     1      26.209  44.260  49.974  1.00  0.00     0.237 C 
HETATM    2  N   UNL     1      25.771  44.445  51.277  1.00  0.00    -0.247 N 
HETATM    3  O   UNL     1      27.282  44.647  49.516  1.00  0.00    -0.272 OA
HETATM    4  H   UNL     1      24.876  44.080  51.578  1.00  0.00     0.192 HD
ENDROOT
BRANCH   2   5
HETATM    5  N   UNL     1      26.564  45.108  52.170  1.00  0.00    -0.184 NA
HETATM    6  C   UNL     1      26.780  44.504  53.293  1.00  0.00     0.152 C 
BRANCH   6   7
HETATM    7  C   UNL     1      27.613  45.133  54.296  1.00  0.00     0.011 A 
HETATM    8  C   UNL     1      28.818  44.618  54.875  1.00  0.00     0.004 A 
HETATM    9  C   UNL     1      29.276  45.565  55.794  1.00  0.00     0.043 A 
HETATM   10  C   UNL     1      29.565  43.433  54.707  1.00  0.00     0.014 A 
HETATM   11  C   UNL     1      30.441  45.388  56.549  1.00  0.00     0.030 A 
HETATM   12  N   UNL     1      28.385  46.613  55.776  1.00  0.00    -0.364 N 
HETATM   13  C   UNL     1      31.161  44.205  56.364  1.00  0.00     0.002 A 
HETATM   14  C   UNL     1      30.733  43.240  55.457  1.00  0.00     0.001 A 
HETATM   15  H   UNL     1      28.463  47.446  56.344  1.00  0.00     0.165 HD
HETATM   16  C   UNL     1      27.381  46.363  54.883  1.00  0.00     0.102 A 
ENDBRANCH   6   7
ENDBRANCH   2   5
BRANCH   1  17
HETATM   17  C   UNL     1      25.199  43.541  49.109  1.00  0.00     0.109 C 
BRANCH  17  18
HETATM   18  C   UNL     1      25.005  42.110  49.601  1.00  0.00     0.048 C 
BRANCH  18  19
HETATM   19  C   UNL     1      26.237  41.270  49.384  1.00  0.00    -0.058 A 
HETATM   20  C   UNL     1      26.788  40.517  50.426  1.00  0.00     0.010 A 
HETATM   21  C   UNL     1      27.931  39.745  50.208  1.00  0.00     0.037 A 
HETATM   22  C   UNL     1      28.543  39.712  48.953  1.00  0.00     0.068 A 
HETATM   23  C   UNL     1      28.007  40.473  47.915  1.00  0.00     0.037 A 
HETATM   24  C   UNL     1      26.861  41.247  48.130  1.00  0.00     0.010 A 
BRANCH  22  25
HETATM   25  O   UNL     1      29.649  38.912  48.875  1.00  0.00    -0.356 OA
HETATM   26  C   UNL     1      29.875  38.025  49.963  1.00  0.00     0.210 C 
ENDBRANCH  22  25
ENDBRANCH  18  19
ENDBRANCH  17  18
ENDBRANCH   1  17
TORSDOF 6
ENDMDL
