MODEL 1
REMARK VINA RESULT:      -8.0      0.000      0.000
REMARK  8 active torsions:
REMARK  status: ('A' for Active; 'I' for Inactive)
REMARK    1  A    between atoms: C_2  and  N_3 
REMARK    2  A    between atoms: N_3  and  C_5 
REMARK    3  A    between atoms: N_3  and  C_29 
REMARK    4  A    between atoms: C_5  and  C_6 
REMARK    5  A    between atoms: C_6  and  N_7 
REMARK       I    between atoms: N_7  and  C_8 
REMARK    6  A    between atoms: C_8  and  C_9 
REMARK    7  A    between atoms: C_9  and  O_10 
REMARK    8  A    between atoms: N_11  and  C_12 
ROOT
HETATM    1  C   UNL     1      27.639  43.538  52.087  1.00  0.00     0.256 C 
HETATM    2  N   UNL     1      27.506  43.696  53.541  1.00  0.00    -0.254 N 
HETATM    3  C   UNL     1      26.240  43.711  54.105  1.00  0.00     0.330 C 
HETATM    4  O   UNL     1      25.995  43.435  55.278  1.00  0.00    -0.246 OA
HETATM    5  N   UNL     1      25.196  44.047  53.290  1.00  0.00    -0.308 N 
HETATM    6  C   UNL     1      25.325  44.465  51.971  1.00  0.00     0.048 A 
HETATM    7  C   UNL     1      26.547  44.268  51.331  1.00  0.00     0.034 A 
HETATM    8  C   UNL     1      24.238  45.027  51.306  1.00  0.00     0.030 A 
HETATM    9  C   UNL     1      24.376  45.417  49.975  1.00  0.00     0.002 A 
HETATM   10  C   UNL     1      25.592  45.235  49.318  1.00  0.00     0.001 A 
HETATM   11  C   UNL     1      26.672  44.659  49.988  1.00  0.00     0.015 A 
HETATM   12  H   UNL     1      24.317  44.186  53.778  1.00  0.00     0.170 HD
ENDROOT
BRANCH   1  13
HETATM   13  C   UNL     1      27.607  41.983  51.745  1.00  0.00     0.279 C 
HETATM   14  N   UNL     1      26.386  41.400  51.420  1.00  0.00    -0.355 N 
HETATM   15  H   UNL     1      25.662  42.043  51.109  1.00  0.00     0.162 HD
HETATM   16  O   UNL     1      28.613  41.274  51.842  1.00  0.00    -0.268 OA
BRANCH  14  17
HETATM   17  C   UNL     1      26.361  40.072  50.811  1.00  0.00     0.150 C 
BRANCH  17  18
HETATM   18  C   UNL     1      26.257  40.086  49.276  1.00  0.00     0.254 C 
BRANCH  18  19
HETATM   19  N   UNL     1      27.556  39.611  48.627  1.00  0.00    -0.070 N 
HETATM   20  H   UNL     1      27.246  39.017  47.842  1.00  0.00     0.279 HD
BRANCH  19  21
HETATM   21  C   UNL     1      28.369  38.712  49.540  1.00  0.00     0.230 C 
HETATM   22  C   UNL     1      29.491  38.036  48.771  1.00  0.00     0.034 C 
ENDBRANCH  19  21
BRANCH  19  23
HETATM   23  C   UNL     1      28.394  40.698  47.987  1.00  0.00     0.230 C 
HETATM   24  C   UNL     1      28.123  40.848  46.501  1.00  0.00     0.034 C 
ENDBRANCH  19  23
ENDBRANCH  18  19
ENDBRANCH  17  18
ENDBRANCH  14  17
ENDBRANCH   1  13
BRANCH   1  25
HETATM   25  O   UNL     1      28.868  44.109  51.645  1.00  0.00    -0.359 OA
HETATM   26  H   UNL     1      29.537  43.406  51.687  1.00  0.00     0.213 HD
ENDBRANCH   1  25
BRANCH   2  27
HETATM   27  C   UNL     1      28.644  43.817  54.401  1.00  0.00     0.043 A 
HETATM   28  C   UNL     1      28.955  44.994  55.094  1.00  0.00     0.031 A 
HETATM   29  C   UNL     1      30.047  45.041  55.972  1.00  0.00     0.026 A 
HETATM   30  C   UNL     1      30.832  43.908  56.172  1.00  0.00     0.034 A 
HETATM   31 CL   UNL     1      32.153  43.965  57.268  1.00  0.00    -0.084 Cl
HETATM   32  C   UNL     1      30.547  42.733  55.485  1.00  0.00     0.026 A 
HETATM   33  C   UNL     1      29.468  42.694  54.596  1.00  0.00     0.031 A 
ENDBRANCH   2  27
TORSDOF 8
ENDMDL
MODEL 2
REMARK VINA RESULT:      -7.8     11.810     14.560
REMARK  8 active torsions:
REMARK  status: ('A' for Active; 'I' for Inactive)
REMARK    1  A    between atoms: C_2  and  N_3 
REMARK    2  A    between atoms: N_3  and  C_5 
REMARK    3  A    between atoms: N_3  and  C_29 
REMARK    4  A    between atoms: C_5  and  C_6 
REMARK    5  A    between atoms: C_6  and  N_7 
REMARK       I    between atoms: N_7  and  C_8 
REMARK    6  A    between atoms: C_8  and  C_9 
REMARK    7  A    between atoms: C_9  and  O_10 
REMARK    8  A    between atoms: N_11  and  C_12 
ROOT
HETATM    1  C   UNL     1      28.239  49.547  41.031  1.00  0.00     0.256 C 
HETATM    2  N   UNL     1      27.604  48.565  40.144  1.00  0.00    -0.254 N 
HETATM    3  C   UNL     1      27.921  48.568  38.795  1.00  0.00     0.330 C 
HETATM    4  O   UNL     1      27.796  47.600  38.046  1.00  0.00    -0.246 OA
HETATM    5  N   UNL     1      28.417  49.728  38.271  1.00  0.00    -0.308 N 
HETATM    6  C   UNL     1      28.535  50.924  38.970  1.00  0.00     0.048 A 
HETATM    7  C   UNL     1      28.413  50.895  40.358  1.00  0.00     0.034 A 
HETATM    8  C   UNL     1      28.807  52.108  38.288  1.00  0.00     0.030 A 
HETATM    9  C   UNL     1      28.949  53.294  39.007  1.00  0.00     0.002 A 
HETATM   10  C   UNL     1      28.824  53.288  40.395  1.00  0.00     0.001 A 
HETATM   11  C   UNL     1      28.564  52.095  41.070  1.00  0.00     0.015 A 
HETATM   12  H   UNL     1      28.496  49.727  37.260  1.00  0.00     0.170 HD
ENDROOT
BRANCH   1  13
HETATM   13  C   UNL     1      29.651  48.970  41.491  1.00  0.00     0.279 C 
HETATM   14  N   UNL     1      30.723  49.057  40.610  1.00  0.00    -0.355 N 
HETATM   15  H   UNL     1      30.632  49.755  39.875  1.00  0.00     0.162 HD
HETATM   16  O   UNL     1      29.793  48.380  42.566  1.00  0.00    -0.268 OA
BRANCH  14  17
HETATM   17  C   UNL     1      32.080  48.826  41.101  1.00  0.00     0.150 C 
BRANCH  17  18
HETATM   18  C   UNL     1      32.936  50.101  41.209  1.00  0.00     0.254 C 
BRANCH  18  19
HETATM   19  N   UNL     1      32.066  51.356  41.197  1.00  0.00    -0.070 N 
HETATM   20  H   UNL     1      31.133  51.016  40.915  1.00  0.00     0.279 HD
BRANCH  19  21
HETATM   21  C   UNL     1      32.492  52.351  40.134  1.00  0.00     0.230 C 
HETATM   22  C   UNL     1      32.456  51.716  38.755  1.00  0.00     0.034 C 
ENDBRANCH  19  21
BRANCH  19  23
HETATM   23  C   UNL     1      31.852  52.006  42.548  1.00  0.00     0.230 C 
HETATM   24  C   UNL     1      32.634  51.327  43.657  1.00  0.00     0.034 C 
ENDBRANCH  19  23
ENDBRANCH  18  19
ENDBRANCH  17  18
ENDBRANCH  14  17
ENDBRANCH   1  13
BRANCH   1  25
HETATM   25  O   UNL     1      27.414  49.784  42.169  1.00  0.00    -0.359 OA
HETATM   26  H   UNL     1      28.001  50.077  42.886  1.00  0.00     0.213 HD
ENDBRANCH   1  25
BRANCH   2  27
HETATM   27  C   UNL     1      26.677  47.587  40.631  1.00  0.00     0.043 A 
HETATM   28  C   UNL     1      27.078  46.401  41.259  1.00  0.00     0.031 A 
HETATM   29  C   UNL     1      26.128  45.507  41.772  1.00  0.00     0.026 A 
HETATM   30  C   UNL     1      24.770  45.795  41.670  1.00  0.00     0.034 A 
HETATM   31 CL   UNL     1      23.613  44.706  42.323  1.00  0.00    -0.084 Cl
HETATM   32  C   UNL     1      24.350  46.961  41.040  1.00  0.00     0.026 A 
HETATM   33  C   UNL     1      25.299  47.843  40.513  1.00  0.00     0.031 A 
ENDBRANCH   2  27
TORSDOF 8
ENDMDL
MODEL 3
REMARK VINA RESULT:      -7.6      4.163      7.563
REMARK  8 active torsions:
REMARK  status: ('A' for Active; 'I' for Inactive)
REMARK    1  A    between atoms: C_2  and  N_3 
REMARK    2  A    between atoms: N_3  and  C_5 
REMARK    3  A    between atoms: N_3  and  C_29 
REMARK    4  A    between atoms: C_5  and  C_6 
REMARK    5  A    between atoms: C_6  and  N_7 
REMARK       I    between atoms: N_7  and  C_8 
REMARK    6  A    between atoms: C_8  and  C_9 
REMARK    7  A    between atoms: C_9  and  O_10 
REMARK    8  A    between atoms: N_11  and  C_12 
ROOT
HETATM    1  C   UNL     1      24.004  44.383  50.026  1.00  0.00     0.256 C 
HETATM    2  N   UNL     1      25.354  44.690  50.515  1.00  0.00    -0.254 N 
HETATM    3  C   UNL     1      26.448  44.340  49.741  1.00  0.00     0.330 C 
HETATM    4  O   UNL     1      27.556  44.871  49.816  1.00  0.00    -0.246 OA
HETATM    5  N   UNL     1      26.274  43.342  48.824  1.00  0.00    -0.308 N 
HETATM    6  C   UNL     1      25.111  42.594  48.682  1.00  0.00     0.048 A 
HETATM    7  C   UNL     1      23.950  43.052  49.300  1.00  0.00     0.034 A 
HETATM    8  C   UNL     1      25.113  41.439  47.904  1.00  0.00     0.030 A 
HETATM    9  C   UNL     1      23.933  40.714  47.750  1.00  0.00     0.002 A 
HETATM   10  C   UNL     1      22.761  41.152  48.365  1.00  0.00     0.001 A 
HETATM   11  C   UNL     1      22.765  42.318  49.132  1.00  0.00     0.015 A 
HETATM   12  H   UNL     1      27.133  43.024  48.387  1.00  0.00     0.170 HD
ENDROOT
BRANCH   1  13
HETATM   13  C   UNL     1      23.538  45.561  49.060  1.00  0.00     0.279 C 
HETATM   14  N   UNL     1      23.069  46.740  49.631  1.00  0.00    -0.355 N 
HETATM   15  H   UNL     1      23.348  46.903  50.595  1.00  0.00     0.162 HD
HETATM   16  O   UNL     1      23.504  45.423  47.834  1.00  0.00    -0.268 OA
BRANCH  14  17
HETATM   17  C   UNL     1      22.926  47.935  48.801  1.00  0.00     0.150 C 
BRANCH  17  18
HETATM   18  C   UNL     1      21.470  48.289  48.453  1.00  0.00     0.254 C 
BRANCH  18  19
HETATM   19  N   UNL     1      20.730  48.849  49.666  1.00  0.00    -0.070 N 
HETATM   20  H   UNL     1      21.246  48.470  50.476  1.00  0.00     0.279 HD
BRANCH  19  21
HETATM   21  C   UNL     1      19.313  48.319  49.782  1.00  0.00     0.230 C 
HETATM   22  C   UNL     1      18.685  48.744  51.098  1.00  0.00     0.034 C 
ENDBRANCH  19  21
BRANCH  19  23
HETATM   23  C   UNL     1      20.802  50.353  49.829  1.00  0.00     0.230 C 
HETATM   24  C   UNL     1      20.976  51.078  48.506  1.00  0.00     0.034 C 
ENDBRANCH  19  23
ENDBRANCH  18  19
ENDBRANCH  17  18
ENDBRANCH  14  17
ENDBRANCH   1  13
BRANCH   1  25
HETATM   25  O   UNL     1      23.102  44.265  51.123  1.00  0.00    -0.359 OA
HETATM   26  H   UNL     1      22.950  43.315  51.263  1.00  0.00     0.213 HD
ENDBRANCH   1  25
BRANCH   2  27
HETATM   27  C   UNL     1      25.578  45.359  51.761  1.00  0.00     0.043 A 
HETATM   28  C   UNL     1      25.833  44.677  52.958  1.00  0.00     0.031 A 
HETATM   29  C   UNL     1      26.107  45.381  54.138  1.00  0.00     0.026 A 
HETATM   30  C   UNL     1      26.137  46.773  54.131  1.00  0.00     0.034 A 
HETATM   31 CL   UNL     1      26.498  47.629  55.576  1.00  0.00    -0.084 Cl
HETATM   32  C   UNL     1      25.875  47.469  52.957  1.00  0.00     0.026 A 
HETATM   33  C   UNL     1      25.584  46.765  51.784  1.00  0.00     0.031 A 
ENDBRANCH   2  27
TORSDOF 8
ENDMDL
MODEL 4
REMARK VINA RESULT:      -7.5     13.306     15.803
REMARK  8 active torsions:
REMARK  status: ('A' for Active; 'I' for Inactive)
REMARK    1  A    between atoms: C_2  and  N_3 
REMARK    2  A    between atoms: N_3  and  C_5 
REMARK    3  A    between atoms: N_3  and  C_29 
REMARK    4  A    between atoms: C_5  and  C_6 
REMARK    5  A    between atoms: C_6  and  N_7 
REMARK       I    between atoms: N_7  and  C_8 
REMARK    6  A    between atoms: C_8  and  C_9 
REMARK    7  A    between atoms: C_9  and  O_10 
REMARK    8  A    between atoms: N_11  and  C_12 
ROOT
HETATM    1  C   UNL     1      33.875  51.414  40.885  1.00  0.00     0.256 C 
HETATM    2  N   UNL     1      32.989  50.545  41.669  1.00  0.00    -0.254 N 
HETATM    3  C   UNL     1      32.827  50.791  43.023  1.00  0.00     0.330 C 
HETATM    4  O   UNL     1      31.857  50.431  43.688  1.00  0.00    -0.246 OA
HETATM    5  N   UNL     1      33.815  51.494  43.654  1.00  0.00    -0.308 N 
HETATM    6  C   UNL     1      35.005  51.893  43.058  1.00  0.00     0.048 A 
HETATM    7  C   UNL     1      35.103  51.834  41.669  1.00  0.00     0.034 A 
HETATM    8  C   UNL     1      36.052  52.375  43.841  1.00  0.00     0.030 A 
HETATM    9  C   UNL     1      37.230  52.796  43.225  1.00  0.00     0.002 A 
HETATM   10  C   UNL     1      37.351  52.739  41.838  1.00  0.00     0.001 A 
HETATM   11  C   UNL     1      36.292  52.267  41.061  1.00  0.00     0.015 A 
HETATM   12  H   UNL     1      33.724  51.523  44.664  1.00  0.00     0.170 HD
ENDROOT
BRANCH   1  13
HETATM   13  C   UNL     1      33.047  52.694  40.423  1.00  0.00     0.279 C 
HETATM   14  N   UNL     1      31.756  52.861  40.914  1.00  0.00    -0.355 N 
HETATM   15  H   UNL     1      31.540  52.350  41.767  1.00  0.00     0.162 HD
HETATM   16  O   UNL     1      33.486  53.486  39.585  1.00  0.00    -0.268 OA
BRANCH  14  17
HETATM   17  C   UNL     1      31.089  54.153  40.764  1.00  0.00     0.150 C 
BRANCH  17  18
HETATM   18  C   UNL     1      29.735  54.082  40.037  1.00  0.00     0.254 C 
BRANCH  18  19
HETATM   19  N   UNL     1      29.133  52.682  40.121  1.00  0.00    -0.070 N 
HETATM   20  H   UNL     1      29.927  52.078  40.385  1.00  0.00     0.279 HD
BRANCH  19  21
HETATM   21  C   UNL     1      28.645  52.174  38.777  1.00  0.00     0.230 C 
HETATM   22  C   UNL     1      29.804  52.009  37.810  1.00  0.00     0.034 C 
ENDBRANCH  19  21
BRANCH  19  23
HETATM   23  C   UNL     1      28.111  52.483  41.221  1.00  0.00     0.230 C 
HETATM   24  C   UNL     1      27.565  51.067  41.265  1.00  0.00     0.034 C 
ENDBRANCH  19  23
ENDBRANCH  18  19
ENDBRANCH  17  18
ENDBRANCH  14  17
ENDBRANCH   1  13
BRANCH   1  25
HETATM   25  O   UNL     1      34.364  50.712  39.744  1.00  0.00    -0.359 OA
HETATM   26  H   UNL     1      34.008  49.809  39.795  1.00  0.00     0.213 HD
ENDBRANCH   1  25
BRANCH   2  27
HETATM   27  C   UNL     1      32.269  49.459  41.076  1.00  0.00     0.043 A 
HETATM   28  C   UNL     1      32.675  48.123  41.187  1.00  0.00     0.031 A 
HETATM   29  C   UNL     1      31.900  47.091  40.640  1.00  0.00     0.026 A 
HETATM   30  C   UNL     1      30.707  47.385  39.985  1.00  0.00     0.034 A 
HETATM   31 CL   UNL     1      29.750  46.113  39.338  1.00  0.00    -0.084 Cl
HETATM   32  C   UNL     1      30.291  48.705  39.853  1.00  0.00     0.026 A 
HETATM   33  C   UNL     1      31.076  49.734  40.384  1.00  0.00     0.031 A 
ENDBRANCH   2  27
TORSDOF 8
ENDMDL
MODEL 5
REMARK VINA RESULT:      -7.3     13.328     15.269
REMARK  8 active torsions:
REMARK  status: ('A' for Active; 'I' for Inactive)
REMARK    1  A    between atoms: C_2  and  N_3 
REMARK    2  A    between atoms: N_3  and  C_5 
REMARK    3  A    between atoms: N_3  and  C_29 
REMARK    4  A    between atoms: C_5  and  C_6 
REMARK    5  A    between atoms: C_6  and  N_7 
REMARK       I    between atoms: N_7  and  C_8 
REMARK    6  A    between atoms: C_8  and  C_9 
REMARK    7  A    between atoms: C_9  and  O_10 
REMARK    8  A    between atoms: N_11  and  C_12 
ROOT
HETATM    1  C   UNL     1      32.422  50.720  41.858  1.00  0.00     0.256 C 
HETATM    2  N   UNL     1      33.700  50.977  41.181  1.00  0.00    -0.254 N 
HETATM    3  C   UNL     1      33.732  51.030  39.797  1.00  0.00     0.330 C 
HETATM    4  O   UNL     1      34.593  51.613  39.140  1.00  0.00    -0.246 OA
HETATM    5  N   UNL     1      32.725  50.398  39.122  1.00  0.00    -0.308 N 
HETATM    6  C   UNL     1      31.733  49.631  39.721  1.00  0.00     0.048 A 
HETATM    7  C   UNL     1      31.565  49.725  41.101  1.00  0.00     0.034 A 
HETATM    8  C   UNL     1      30.909  48.822  38.942  1.00  0.00     0.030 A 
HETATM    9  C   UNL     1      29.902  48.078  39.554  1.00  0.00     0.002 A 
HETATM   10  C   UNL     1      29.721  48.153  40.935  1.00  0.00     0.001 A 
HETATM   11  C   UNL     1      30.543  48.976  41.706  1.00  0.00     0.015 A 
HETATM   12  H   UNL     1      32.869  50.340  38.120  1.00  0.00     0.170 HD
ENDROOT
BRANCH   1  13
HETATM   13  C   UNL     1      31.652  52.105  42.021  1.00  0.00     0.279 C 
HETATM   14  N   UNL     1      31.679  53.008  40.963  1.00  0.00    -0.355 N 
HETATM   15  H   UNL     1      31.904  52.612  40.053  1.00  0.00     0.162 HD
HETATM   16  O   UNL     1      31.109  52.427  43.082  1.00  0.00    -0.268 OA
BRANCH  14  17
HETATM   17  C   UNL     1      30.747  54.134  40.952  1.00  0.00     0.150 C 
BRANCH  17  18
HETATM   18  C   UNL     1      29.528  53.933  40.036  1.00  0.00     0.254 C 
BRANCH  18  19
HETATM   19  N   UNL     1      29.026  52.492  40.088  1.00  0.00    -0.070 N 
HETATM   20  H   UNL     1      29.857  51.942  40.357  1.00  0.00     0.279 HD
BRANCH  19  21
HETATM   21  C   UNL     1      28.599  51.972  38.728  1.00  0.00     0.230 C 
HETATM   22  C   UNL     1      29.740  52.070  37.731  1.00  0.00     0.034 C 
ENDBRANCH  19  21
BRANCH  19  23
HETATM   23  C   UNL     1      28.003  52.202  41.166  1.00  0.00     0.230 C 
HETATM   24  C   UNL     1      27.291  50.877  40.959  1.00  0.00     0.034 C 
ENDBRANCH  19  23
ENDBRANCH  18  19
ENDBRANCH  17  18
ENDBRANCH  14  17
ENDBRANCH   1  13
BRANCH   1  25
HETATM   25  O   UNL     1      32.656  50.139  43.138  1.00  0.00    -0.359 OA
HETATM   26  H   UNL     1      33.053  49.266  42.983  1.00  0.00     0.213 HD
ENDBRANCH   1  25
BRANCH   2  27
HETATM   27  C   UNL     1      34.916  51.192  41.906  1.00  0.00     0.043 A 
HETATM   28  C   UNL     1      35.063  52.201  42.867  1.00  0.00     0.031 A 
HETATM   29  C   UNL     1      36.255  52.330  43.592  1.00  0.00     0.026 A 
HETATM   30  C   UNL     1      37.308  51.445  43.370  1.00  0.00     0.034 A 
HETATM   31 CL   UNL     1      38.757  51.594  44.280  1.00  0.00    -0.084 Cl
HETATM   32  C   UNL     1      37.187  50.445  42.413  1.00  0.00     0.026 A 
HETATM   33  C   UNL     1      36.003  50.329  41.677  1.00  0.00     0.031 A 
ENDBRANCH   2  27
TORSDOF 8
ENDMDL
MODEL 6
REMARK VINA RESULT:      -7.2      8.036     11.033
REMARK  8 active torsions:
REMARK  status: ('A' for Active; 'I' for Inactive)
REMARK    1  A    between atoms: C_2  and  N_3 
REMARK    2  A    between atoms: N_3  and  C_5 
REMARK    3  A    between atoms: N_3  and  C_29 
REMARK    4  A    between atoms: C_5  and  C_6 
REMARK    5  A    between atoms: C_6  and  N_7 
REMARK       I    between atoms: N_7  and  C_8 
REMARK    6  A    between atoms: C_8  and  C_9 
REMARK    7  A    between atoms: C_9  and  O_10 
REMARK    8  A    between atoms: N_11  and  C_12 
ROOT
HETATM    1  C   UNL     1      20.944  49.329  48.031  1.00  0.00     0.256 C 
HETATM    2  N   UNL     1      21.880  49.891  49.012  1.00  0.00    -0.254 N 
HETATM    3  C   UNL     1      21.422  50.829  49.923  1.00  0.00     0.330 C 
HETATM    4  O   UNL     1      21.952  51.067  51.008  1.00  0.00    -0.246 OA
HETATM    5  N   UNL     1      20.294  51.525  49.592  1.00  0.00    -0.308 N 
HETATM    6  C   UNL     1      19.635  51.427  48.372  1.00  0.00     0.048 A 
HETATM    7  C   UNL     1      19.953  50.363  47.531  1.00  0.00     0.034 A 
HETATM    8  C   UNL     1      18.654  52.355  48.030  1.00  0.00     0.030 A 
HETATM    9  C   UNL     1      17.984  52.227  46.815  1.00  0.00     0.002 A 
HETATM   10  C   UNL     1      18.292  51.173  45.956  1.00  0.00     0.001 A 
HETATM   11  C   UNL     1      19.267  50.241  46.312  1.00  0.00     0.015 A 
HETATM   12  H   UNL     1      20.082  52.295  50.217  1.00  0.00     0.170 HD
ENDROOT
BRANCH   1  13
HETATM   13  C   UNL     1      20.177  48.108  48.709  1.00  0.00     0.279 C 
HETATM   14  N   UNL     1      18.912  48.333  49.242  1.00  0.00    -0.355 N 
HETATM   15  H   UNL     1      18.426  49.154  48.890  1.00  0.00     0.162 HD
HETATM   16  O   UNL     1      20.707  47.002  48.846  1.00  0.00    -0.268 OA
BRANCH  14  17
HETATM   17  C   UNL     1      18.063  47.195  49.588  1.00  0.00     0.150 C 
BRANCH  17  18
HETATM   18  C   UNL     1      16.734  47.142  48.816  1.00  0.00     0.254 C 
BRANCH  18  19
HETATM   19  N   UNL     1      16.869  47.777  47.434  1.00  0.00    -0.070 N 
HETATM   20  H   UNL     1      17.694  48.393  47.516  1.00  0.00     0.279 HD
BRANCH  19  21
HETATM   21  C   UNL     1      15.701  48.682  47.089  1.00  0.00     0.230 C 
HETATM   22  C   UNL     1      15.565  49.799  48.109  1.00  0.00     0.034 C 
ENDBRANCH  19  21
BRANCH  19  23
HETATM   23  C   UNL     1      17.210  46.818  46.312  1.00  0.00     0.230 C 
HETATM   24  C   UNL     1      16.330  47.010  45.090  1.00  0.00     0.034 C 
ENDBRANCH  19  23
ENDBRANCH  18  19
ENDBRANCH  17  18
ENDBRANCH  14  17
ENDBRANCH   1  13
BRANCH   1  25
HETATM   25  O   UNL     1      21.654  48.881  46.879  1.00  0.00    -0.359 OA
HETATM   26  H   UNL     1      20.989  48.572  46.241  1.00  0.00     0.213 HD
ENDBRANCH   1  25
BRANCH   2  27
HETATM   27  C   UNL     1      23.253  49.488  49.072  1.00  0.00     0.043 A 
HETATM   28  C   UNL     1      23.678  48.316  49.710  1.00  0.00     0.031 A 
HETATM   29  C   UNL     1      25.026  47.936  49.686  1.00  0.00     0.026 A 
HETATM   30  C   UNL     1      25.962  48.720  49.016  1.00  0.00     0.034 A 
HETATM   31 CL   UNL     1      27.609  48.235  48.970  1.00  0.00    -0.084 Cl
HETATM   32  C   UNL     1      25.564  49.894  48.386  1.00  0.00     0.026 A 
HETATM   33  C   UNL     1      24.220  50.280  48.427  1.00  0.00     0.031 A 
ENDBRANCH   2  27
TORSDOF 8
ENDMDL
MODEL 7
REMARK VINA RESULT:      -7.1      3.784      7.608
REMARK  8 active torsions:
REMARK  status: ('A' for Active; 'I' for Inactive)
REMARK    1  A    between atoms: C_2  and  N_3 
REMARK    2  A    between atoms: N_3  and  C_5 
REMARK    3  A    between atoms: N_3  and  C_29 
REMARK    4  A    between atoms: C_5  and  C_6 
REMARK    5  A    between atoms: C_6  and  N_7 
REMARK       I    between atoms: N_7  and  C_8 
REMARK    6  A    between atoms: C_8  and  C_9 
REMARK    7  A    between atoms: C_9  and  O_10 
REMARK    8  A    between atoms: N_11  and  C_12 
ROOT
HETATM    1  C   UNL     1      26.497  42.811  50.144  1.00  0.00     0.256 C 
HETATM    2  N   UNL     1      26.585  41.460  49.578  1.00  0.00    -0.254 N 
HETATM    3  C   UNL     1      26.548  40.367  50.429  1.00  0.00     0.330 C 
HETATM    4  O   UNL     1      26.212  39.232  50.095  1.00  0.00    -0.246 OA
HETATM    5  N   UNL     1      26.901  40.577  51.733  1.00  0.00    -0.308 N 
HETATM    6  C   UNL     1      27.382  41.779  52.238  1.00  0.00     0.048 A 
HETATM    7  C   UNL     1      27.240  42.927  51.461  1.00  0.00     0.034 A 
HETATM    8  C   UNL     1      27.953  41.826  53.507  1.00  0.00     0.030 A 
HETATM    9  C   UNL     1      28.406  43.045  54.009  1.00  0.00     0.002 A 
HETATM   10  C   UNL     1      28.280  44.204  53.246  1.00  0.00     0.001 A 
HETATM   11  C   UNL     1      27.695  44.150  51.981  1.00  0.00     0.015 A 
HETATM   12  H   UNL     1      26.999  39.728  52.278  1.00  0.00     0.170 HD
ENDROOT
BRANCH   1  13
HETATM   13  C   UNL     1      24.959  43.176  50.341  1.00  0.00     0.279 C 
HETATM   14  N   UNL     1      24.367  44.060  49.444  1.00  0.00    -0.355 N 
HETATM   15  H   UNL     1      24.843  44.165  48.552  1.00  0.00     0.162 HD
HETATM   16  O   UNL     1      24.311  42.764  51.307  1.00  0.00    -0.268 OA
BRANCH  14  17
HETATM   17  C   UNL     1      22.911  44.179  49.405  1.00  0.00     0.150 C 
BRANCH  17  18
HETATM   18  C   UNL     1      22.390  45.205  48.384  1.00  0.00     0.254 C 
BRANCH  18  19
HETATM   19  N   UNL     1      22.252  46.591  49.011  1.00  0.00    -0.070 N 
HETATM   20  H   UNL     1      22.141  46.403  50.020  1.00  0.00     0.279 HD
BRANCH  19  21
HETATM   21  C   UNL     1      20.988  47.306  48.573  1.00  0.00     0.230 C 
HETATM   22  C   UNL     1      21.323  48.565  47.793  1.00  0.00     0.034 C 
ENDBRANCH  19  21
BRANCH  19  23
HETATM   23  C   UNL     1      23.480  47.471  48.911  1.00  0.00     0.230 C 
HETATM   24  C   UNL     1      24.284  47.504  50.199  1.00  0.00     0.034 C 
ENDBRANCH  19  23
ENDBRANCH  18  19
ENDBRANCH  17  18
ENDBRANCH  14  17
ENDBRANCH   1  13
BRANCH   1  25
HETATM   25  O   UNL     1      27.113  43.750  49.266  1.00  0.00    -0.359 OA
HETATM   26  H   UNL     1      26.688  43.645  48.398  1.00  0.00     0.213 HD
ENDBRANCH   1  25
BRANCH   2  27
HETATM   27  C   UNL     1      26.688  41.230  48.168  1.00  0.00     0.043 A 
HETATM   28  C   UNL     1      27.910  41.021  47.517  1.00  0.00     0.031 A 
HETATM   29  C   UNL     1      27.951  40.739  46.144  1.00  0.00     0.026 A 
HETATM   30  C   UNL     1      26.769  40.656  45.413  1.00  0.00     0.034 A 
HETATM   31 CL   UNL     1      26.825  40.286  43.736  1.00  0.00    -0.084 Cl
HETATM   32  C   UNL     1      25.546  40.872  46.037  1.00  0.00     0.026 A 
HETATM   33  C   UNL     1      25.509  41.170  47.403  1.00  0.00     0.031 A 
ENDBRANCH   2  27
TORSDOF 8
ENDMDL
MODEL 8
REMARK VINA RESULT:      -7.0      9.639     13.793
REMARK  8 active torsions:
REMARK  status: ('A' for Active; 'I' for Inactive)
REMARK    1  A    between atoms: C_2  and  N_3 
REMARK    2  A    between atoms: N_3  and  C_5 
REMARK    3  A    between atoms: N_3  and  C_29 
REMARK    4  A    between atoms: C_5  and  C_6 
REMARK    5  A    between atoms: C_6  and  N_7 
REMARK       I    between atoms: N_7  and  C_8 
REMARK    6  A    between atoms: C_8  and  C_9 
REMARK    7  A    between atoms: C_9  and  O_10 
REMARK    8  A    between atoms: N_11  and  C_12 
ROOT
HETATM    1  C   UNL     1      20.197  49.704  47.904  1.00  0.00     0.256 C 
HETATM    2  N   UNL     1      19.551  48.389  47.819  1.00  0.00    -0.254 N 
HETATM    3  C   UNL     1      20.023  47.353  48.609  1.00  0.00     0.330 C 
HETATM    4  O   UNL     1      19.363  46.367  48.936  1.00  0.00    -0.246 OA
HETATM    5  N   UNL     1      21.309  47.445  49.061  1.00  0.00    -0.308 N 
HETATM    6  C   UNL     1      22.200  48.451  48.708  1.00  0.00     0.048 A 
HETATM    7  C   UNL     1      21.698  49.593  48.087  1.00  0.00     0.034 A 
HETATM    8  C   UNL     1      23.554  48.324  49.011  1.00  0.00     0.030 A 
HETATM    9  C   UNL     1      24.431  49.354  48.673  1.00  0.00     0.002 A 
HETATM   10  C   UNL     1      23.950  50.502  48.045  1.00  0.00     0.001 A 
HETATM   11  C   UNL     1      22.590  50.626  47.757  1.00  0.00     0.015 A 
HETATM   12  H   UNL     1      21.654  46.603  49.509  1.00  0.00     0.170 HD
ENDROOT
BRANCH   1  13
HETATM   13  C   UNL     1      19.548  50.505  49.119  1.00  0.00     0.279 C 
HETATM   14  N   UNL     1      18.958  51.738  48.862  1.00  0.00    -0.355 N 
HETATM   15  H   UNL     1      18.690  51.903  47.894  1.00  0.00     0.162 HD
HETATM   16  O   UNL     1      19.631  50.101  50.282  1.00  0.00    -0.268 OA
BRANCH  14  17
HETATM   17  C   UNL     1      18.096  52.349  49.871  1.00  0.00     0.150 C 
BRANCH  17  18
HETATM   18  C   UNL     1      16.606  51.994  49.726  1.00  0.00     0.254 C 
BRANCH  18  19
HETATM   19  N   UNL     1      15.955  52.786  48.595  1.00  0.00    -0.070 N 
HETATM   20  H   UNL     1      16.686  53.451  48.296  1.00  0.00     0.279 HD
BRANCH  19  21
HETATM   21  C   UNL     1      14.786  53.629  49.070  1.00  0.00     0.230 C 
HETATM   22  C   UNL     1      14.417  53.282  50.501  1.00  0.00     0.034 C 
ENDBRANCH  19  21
BRANCH  19  23
HETATM   23  C   UNL     1      15.625  51.985  47.353  1.00  0.00     0.230 C 
HETATM   24  C   UNL     1      16.659  52.154  46.254  1.00  0.00     0.034 C 
ENDBRANCH  19  23
ENDBRANCH  18  19
ENDBRANCH  17  18
ENDBRANCH  14  17
ENDBRANCH   1  13
BRANCH   1  25
HETATM   25  O   UNL     1      20.005  50.423  46.688  1.00  0.00    -0.359 OA
HETATM   26  H   UNL     1      20.504  51.253  46.770  1.00  0.00     0.213 HD
ENDBRANCH   1  25
BRANCH   2  27
HETATM   27  C   UNL     1      18.435  48.143  46.956  1.00  0.00     0.043 A 
HETATM   28  C   UNL     1      18.556  47.513  45.711  1.00  0.00     0.031 A 
HETATM   29  C   UNL     1      17.422  47.241  44.933  1.00  0.00     0.026 A 
HETATM   30  C   UNL     1      16.157  47.589  45.397  1.00  0.00     0.034 A 
HETATM   31 CL   UNL     1      14.769  47.231  44.449  1.00  0.00    -0.084 Cl
HETATM   32  C   UNL     1      16.015  48.227  46.624  1.00  0.00     0.026 A 
HETATM   33  C   UNL     1      17.149  48.513  47.391  1.00  0.00     0.031 A 
ENDBRANCH   2  27
TORSDOF 8
ENDMDL
MODEL 9
REMARK VINA RESULT:      -6.9     12.544     16.713
REMARK  8 active torsions:
REMARK  status: ('A' for Active; 'I' for Inactive)
REMARK    1  A    between atoms: C_2  and  N_3 
REMARK    2  A    between atoms: N_3  and  C_5 
REMARK    3  A    between atoms: N_3  and  C_29 
REMARK    4  A    between atoms: C_5  and  C_6 
REMARK    5  A    between atoms: C_6  and  N_7 
REMARK       I    between atoms: N_7  and  C_8 
REMARK    6  A    between atoms: C_8  and  C_9 
REMARK    7  A    between atoms: C_9  and  O_10 
REMARK    8  A    between atoms: N_11  and  C_12 
ROOT
HETATM    1  C   UNL     1      18.229  51.936  47.964  1.00  0.00     0.256 C 
HETATM    2  N   UNL     1      17.368  51.363  46.922  1.00  0.00    -0.254 N 
HETATM    3  C   UNL     1      17.172  49.991  46.887  1.00  0.00     0.330 C 
HETATM    4  O   UNL     1      16.207  49.436  46.363  1.00  0.00    -0.246 OA
HETATM    5  N   UNL     1      18.118  49.209  47.488  1.00  0.00    -0.308 N 
HETATM    6  C   UNL     1      19.300  49.683  48.044  1.00  0.00     0.048 A 
HETATM    7  C   UNL     1      19.423  51.053  48.267  1.00  0.00     0.034 A 
HETATM    8  C   UNL     1      20.311  48.794  48.400  1.00  0.00     0.030 A 
HETATM    9  C   UNL     1      21.480  49.284  48.981  1.00  0.00     0.002 A 
HETATM   10  C   UNL     1      21.626  50.651  49.208  1.00  0.00     0.001 A 
HETATM   11  C   UNL     1      20.603  51.533  48.859  1.00  0.00     0.015 A 
HETATM   12  H   UNL     1      18.009  48.216  47.311  1.00  0.00     0.170 HD
ENDROOT
BRANCH   1  13
HETATM   13  C   UNL     1      17.353  52.155  49.277  1.00  0.00     0.279 C 
HETATM   14  N   UNL     1      16.713  53.378  49.452  1.00  0.00    -0.355 N 
HETATM   15  H   UNL     1      16.576  53.927  48.606  1.00  0.00     0.162 HD
HETATM   16  O   UNL     1      17.298  51.306  50.171  1.00  0.00    -0.268 OA
BRANCH  14  17
HETATM   17  C   UNL     1      15.671  53.507  50.468  1.00  0.00     0.150 C 
BRANCH  17  18
HETATM   18  C   UNL     1      14.432  54.291  50.003  1.00  0.00     0.254 C 
BRANCH  18  19
HETATM   19  N   UNL     1      14.826  55.603  49.329  1.00  0.00    -0.070 N 
HETATM   20  H   UNL     1      15.678  55.369  48.795  1.00  0.00     0.279 HD
BRANCH  19  21
HETATM   21  C   UNL     1      15.234  56.672  50.326  1.00  0.00     0.230 C 
HETATM   22  C   UNL     1      14.064  57.057  51.213  1.00  0.00     0.034 C 
ENDBRANCH  19  21
BRANCH  19  23
HETATM   23  C   UNL     1      13.847  56.118  48.295  1.00  0.00     0.230 C 
HETATM   24  C   UNL     1      12.770  55.105  47.952  1.00  0.00     0.034 C 
ENDBRANCH  19  23
ENDBRANCH  18  19
ENDBRANCH  17  18
ENDBRANCH  14  17
ENDBRANCH   1  13
BRANCH   1  25
HETATM   25  O   UNL     1      18.766  53.180  47.524  1.00  0.00    -0.359 OA
HETATM   26  H   UNL     1      19.573  53.338  48.042  1.00  0.00     0.213 HD
ENDBRANCH   1  25
BRANCH   2  27
HETATM   27  C   UNL     1      16.705  52.177  45.949  1.00  0.00     0.043 A 
HETATM   28  C   UNL     1      15.486  52.822  46.194  1.00  0.00     0.031 A 
HETATM   29  C   UNL     1      14.911  53.657  45.227  1.00  0.00     0.026 A 
HETATM   30  C   UNL     1      15.554  53.864  44.010  1.00  0.00     0.034 A 
HETATM   31 CL   UNL     1      14.856  54.909  42.839  1.00  0.00    -0.084 Cl
HETATM   32  C   UNL     1      16.759  53.225  43.741  1.00  0.00     0.026 A 
HETATM   33  C   UNL     1      17.322  52.377  44.700  1.00  0.00     0.031 A 
ENDBRANCH   2  27
TORSDOF 8
ENDMDL
MODEL 10
REMARK VINA RESULT:      -6.9     12.952     14.903
REMARK  8 active torsions:
REMARK  status: ('A' for Active; 'I' for Inactive)
REMARK    1  A    between atoms: C_2  and  N_3 
REMARK    2  A    between atoms: N_3  and  C_5 
REMARK    3  A    between atoms: N_3  and  C_29 
REMARK    4  A    between atoms: C_5  and  C_6 
REMARK    5  A    between atoms: C_6  and  N_7 
REMARK       I    between atoms: N_7  and  C_8 
REMARK    6  A    between atoms: C_8  and  C_9 
REMARK    7  A    between atoms: C_9  and  O_10 
REMARK    8  A    between atoms: N_11  and  C_12 
ROOT
HETATM    1  C   UNL     1      32.059  50.887  39.832  1.00  0.00     0.256 C 
HETATM    2  N   UNL     1      32.750  51.497  40.975  1.00  0.00    -0.254 N 
HETATM    3  C   UNL     1      32.016  52.228  41.895  1.00  0.00     0.330 C 
HETATM    4  O   UNL     1      32.362  52.437  43.057  1.00  0.00    -0.246 OA
HETATM    5  N   UNL     1      30.819  52.739  41.478  1.00  0.00    -0.308 N 
HETATM    6  C   UNL     1      30.336  52.659  40.177  1.00  0.00     0.048 A 
HETATM    7  C   UNL     1      30.950  51.771  39.296  1.00  0.00     0.034 A 
HETATM    8  C   UNL     1      29.238  53.425  39.790  1.00  0.00     0.030 A 
HETATM    9  C   UNL     1      28.750  53.313  38.490  1.00  0.00     0.002 A 
HETATM   10  C   UNL     1      29.354  52.435  37.590  1.00  0.00     0.001 A 
HETATM   11  C   UNL     1      30.445  51.663  37.991  1.00  0.00     0.015 A 
HETATM   12  H   UNL     1      30.391  53.383  42.134  1.00  0.00     0.170 HD
ENDROOT
BRANCH   1  13
HETATM   13  C   UNL     1      31.473  49.479  40.292  1.00  0.00     0.279 C 
HETATM   14  N   UNL     1      30.959  49.362  41.579  1.00  0.00    -0.355 N 
HETATM   15  H   UNL     1      30.694  50.236  42.027  1.00  0.00     0.162 HD
HETATM   16  O   UNL     1      31.540  48.479  39.571  1.00  0.00    -0.268 OA
BRANCH  14  17
HETATM   17  C   UNL     1      30.146  48.199  41.928  1.00  0.00     0.150 C 
BRANCH  17  18
HETATM   18  C   UNL     1      28.629  48.455  41.884  1.00  0.00     0.254 C 
BRANCH  18  19
HETATM   19  N   UNL     1      28.005  47.874  40.618  1.00  0.00    -0.070 N 
HETATM   20  H   UNL     1      27.037  47.645  40.894  1.00  0.00     0.279 HD
BRANCH  19  21
HETATM   21  C   UNL     1      28.645  46.564  40.198  1.00  0.00     0.230 C 
HETATM   22  C   UNL     1      28.808  46.503  38.690  1.00  0.00     0.034 C 
ENDBRANCH  19  21
BRANCH  19  23
HETATM   23  C   UNL     1      27.861  48.845  39.465  1.00  0.00     0.230 C 
HETATM   24  C   UNL     1      27.342  50.203  39.902  1.00  0.00     0.034 C 
ENDBRANCH  19  23
ENDBRANCH  18  19
ENDBRANCH  17  18
ENDBRANCH  14  17
ENDBRANCH   1  13
BRANCH   1  25
HETATM   25  O   UNL     1      32.970  50.706  38.751  1.00  0.00    -0.359 OA
HETATM   26  H   UNL     1      32.436  50.615  37.944  1.00  0.00     0.213 HD
ENDBRANCH   1  25
BRANCH   2  27
HETATM   27  C   UNL     1      34.159  51.347  41.182  1.00  0.00     0.043 A 
HETATM   28  C   UNL     1      34.711  50.326  41.965  1.00  0.00     0.031 A 
HETATM   29  C   UNL     1      36.101  50.188  42.085  1.00  0.00     0.026 A 
HETATM   30  C   UNL     1      36.950  51.064  41.415  1.00  0.00     0.034 A 
HETATM   31 CL   UNL     1      38.653  50.873  41.547  1.00  0.00    -0.084 Cl
HETATM   32  C   UNL     1      36.423  52.092  40.642  1.00  0.00     0.026 A 
HETATM   33  C   UNL     1      35.036  52.239  40.539  1.00  0.00     0.031 A 
ENDBRANCH   2  27
TORSDOF 8
ENDMDL
