MODEL 1
REMARK VINA RESULT:      -9.2      0.000      0.000
REMARK  8 active torsions:
REMARK  status: ('A' for Active; 'I' for Inactive)
REMARK    1  A    between atoms: C_7  and  C_8 
REMARK       I    between atoms: C_8  and  N_9 
REMARK    2  A    between atoms: N_9  and  C_10 
REMARK    3  A    between atoms: C_13  and  C_14 
REMARK       I    between atoms: C_14  and  N_15 
REMARK    4  A    between atoms: N_15  and  C_16 
REMARK    5  A    between atoms: C_16  and  C_17 
REMARK    6  A    between atoms: C_17  and  C_18 
REMARK    7  A    between atoms: C_20  and  O_21 
REMARK    8  A    between atoms: C_23  and  O_24 
ROOT
HETATM    1  C   UNL     1      24.021  47.093  49.911  1.00  0.00     0.035 A 
HETATM    2  C   UNL     1      25.313  47.361  50.364  1.00  0.00     0.030 A 
HETATM    3  C   UNL     1      26.236  46.324  50.546  1.00  0.00     0.019 A 
HETATM    4  C   UNL     1      25.871  45.003  50.269  1.00  0.00     0.032 A 
HETATM    5  C   UNL     1      24.563  44.723  49.861  1.00  0.00     0.019 A 
HETATM    6  C   UNL     1      23.647  45.763  49.679  1.00  0.00     0.030 A 
ENDROOT
BRANCH   4   7
HETATM    7  C   UNL     1      26.841  43.880  50.372  1.00  0.00     0.251 C 
HETATM    8  N   UNL     1      27.292  43.591  51.644  1.00  0.00    -0.357 N 
HETATM    9  H   UNL     1      27.146  44.296  52.358  1.00  0.00     0.162 HD
HETATM   10  O   UNL     1      27.239  43.309  49.364  1.00  0.00    -0.268 OA
BRANCH   8  11
HETATM   11  C   UNL     1      28.418  42.696  51.838  1.00  0.00     0.127 C 
BRANCH  11  12
HETATM   12  C   UNL     1      28.523  42.179  53.276  1.00  0.00     0.058 C 
BRANCH  12  13
HETATM   13  C   UNL     1      29.040  43.194  54.274  1.00  0.00    -0.054 A 
HETATM   14  C   UNL     1      28.326  44.370  54.551  1.00  0.00     0.046 A 
HETATM   15  C   UNL     1      28.810  45.306  55.477  1.00  0.00     0.102 A 
HETATM   16  C   UNL     1      30.043  45.078  56.118  1.00  0.00     0.101 A 
HETATM   17  C   UNL     1      30.758  43.910  55.837  1.00  0.00     0.040 A 
HETATM   18  C   UNL     1      30.260  42.978  54.923  1.00  0.00     0.010 A 
BRANCH  15  19
HETATM   19  O   UNL     1      28.166  46.472  55.808  1.00  0.00    -0.353 OA
HETATM   20  C   UNL     1      27.328  47.066  54.827  1.00  0.00     0.210 C 
ENDBRANCH  15  19
BRANCH  16  21
HETATM   21  O   UNL     1      30.452  46.043  57.004  1.00  0.00    -0.353 OA
HETATM   22  C   UNL     1      30.641  45.654  58.358  1.00  0.00     0.210 C 
ENDBRANCH  16  21
ENDBRANCH  12  13
ENDBRANCH  11  12
ENDBRANCH   8  11
ENDBRANCH   4   7
BRANCH   1  23
HETATM   23  N   UNL     1      23.060  48.086  49.639  1.00  0.00    -0.322 N 
HETATM   24  C   UNL     1      22.357  48.299  48.466  1.00  0.00     0.265 C 
HETATM   25  O   UNL     1      22.532  47.684  47.420  1.00  0.00    -0.267 OA
HETATM   26  H   UNL     1      22.827  48.716  50.400  1.00  0.00     0.169 HD
BRANCH  24  27
HETATM   27  C   UNL     1      21.303  49.398  48.579  1.00  0.00     0.097 C 
HETATM   28  C   UNL     1      21.642  50.709  48.491  1.00  0.00     0.064 C 
HETATM   29  C   UNL     1      23.037  51.198  48.197  1.00  0.00     0.078 C 
HETATM   30  O   UNL     1      20.766  51.778  48.610  1.00  0.00    -0.353 OA
HETATM   31  C   UNL     1      19.508  51.517  49.230  1.00  0.00     0.185 C 
HETATM   32  C   UNL     1      18.766  50.405  48.521  1.00  0.00     0.106 C 
HETATM   33  S   UNL     1      19.651  48.855  48.811  1.00  0.00    -0.120 SA
ENDBRANCH  24  27
ENDBRANCH   1  23
TORSDOF 8
ENDMDL
MODEL 2
REMARK VINA RESULT:      -8.7      1.470      2.123
REMARK  8 active torsions:
REMARK  status: ('A' for Active; 'I' for Inactive)
REMARK    1  A    between atoms: C_7  and  C_8 
REMARK       I    between atoms: C_8  and  N_9 
REMARK    2  A    between atoms: N_9  and  C_10 
REMARK    3  A    between atoms: C_13  and  C_14 
REMARK       I    between atoms: C_14  and  N_15 
REMARK    4  A    between atoms: N_15  and  C_16 
REMARK    5  A    between atoms: C_16  and  C_17 
REMARK    6  A    between atoms: C_17  and  C_18 
REMARK    7  A    between atoms: C_20  and  O_21 
REMARK    8  A    between atoms: C_23  and  O_24 
ROOT
HETATM    1  C   UNL     1      23.411  46.980  49.336  1.00  0.00     0.035 A 
HETATM    2  C   UNL     1      23.334  45.674  48.851  1.00  0.00     0.030 A 
HETATM    3  C   UNL     1      24.424  44.802  48.970  1.00  0.00     0.019 A 
HETATM    4  C   UNL     1      25.604  45.234  49.582  1.00  0.00     0.032 A 
HETATM    5  C   UNL     1      25.706  46.556  50.026  1.00  0.00     0.019 A 
HETATM    6  C   UNL     1      24.613  47.421  49.907  1.00  0.00     0.030 A 
ENDROOT
BRANCH   4   7
HETATM    7  C   UNL     1      26.758  44.320  49.800  1.00  0.00     0.251 C 
HETATM    8  N   UNL     1      26.472  42.970  49.752  1.00  0.00    -0.357 N 
HETATM    9  H   UNL     1      25.498  42.700  49.832  1.00  0.00     0.162 HD
HETATM   10  O   UNL     1      27.867  44.770  50.061  1.00  0.00    -0.268 OA
BRANCH   8  11
HETATM   11  C   UNL     1      27.452  41.996  50.195  1.00  0.00     0.127 C 
BRANCH  11  12
HETATM   12  C   UNL     1      27.227  41.545  51.642  1.00  0.00     0.058 C 
BRANCH  12  13
HETATM   13  C   UNL     1      27.988  42.348  52.677  1.00  0.00    -0.054 A 
HETATM   14  C   UNL     1      27.337  43.288  53.490  1.00  0.00     0.046 A 
HETATM   15  C   UNL     1      28.047  44.028  54.447  1.00  0.00     0.102 A 
HETATM   16  C   UNL     1      29.437  43.846  54.576  1.00  0.00     0.101 A 
HETATM   17  C   UNL     1      30.087  42.915  53.761  1.00  0.00     0.040 A 
HETATM   18  C   UNL     1      29.368  42.174  52.821  1.00  0.00     0.010 A 
BRANCH  15  19
HETATM   19  O   UNL     1      27.481  44.957  55.284  1.00  0.00    -0.353 OA
HETATM   20  C   UNL     1      27.144  46.223  54.735  1.00  0.00     0.210 C 
ENDBRANCH  15  19
BRANCH  16  21
HETATM   21  O   UNL     1      30.062  44.612  55.529  1.00  0.00    -0.353 OA
HETATM   22  C   UNL     1      31.036  43.978  56.346  1.00  0.00     0.210 C 
ENDBRANCH  16  21
ENDBRANCH  12  13
ENDBRANCH  11  12
ENDBRANCH   8  11
ENDBRANCH   4   7
BRANCH   1  23
HETATM   23  N   UNL     1      22.340  47.893  49.316  1.00  0.00    -0.322 N 
HETATM   24  C   UNL     1      22.094  48.905  48.406  1.00  0.00     0.265 C 
HETATM   25  O   UNL     1      22.846  49.227  47.492  1.00  0.00    -0.267 OA
HETATM   26  H   UNL     1      21.639  47.790  50.043  1.00  0.00     0.169 HD
BRANCH  24  27
HETATM   27  C   UNL     1      20.763  49.618  48.631  1.00  0.00     0.097 C 
HETATM   28  C   UNL     1      19.650  49.266  47.939  1.00  0.00     0.064 C 
HETATM   29  C   UNL     1      19.595  48.113  46.969  1.00  0.00     0.078 C 
HETATM   30  O   UNL     1      18.407  49.870  48.050  1.00  0.00    -0.353 OA
HETATM   31  C   UNL     1      18.369  51.169  48.637  1.00  0.00     0.185 C 
HETATM   32  C   UNL     1      18.992  51.167  50.016  1.00  0.00     0.106 C 
HETATM   33  S   UNL     1      20.770  50.893  49.837  1.00  0.00    -0.120 SA
ENDBRANCH  24  27
ENDBRANCH   1  23
TORSDOF 8
ENDMDL
MODEL 3
REMARK VINA RESULT:      -8.7      1.486      2.604
REMARK  8 active torsions:
REMARK  status: ('A' for Active; 'I' for Inactive)
REMARK    1  A    between atoms: C_7  and  C_8 
REMARK       I    between atoms: C_8  and  N_9 
REMARK    2  A    between atoms: N_9  and  C_10 
REMARK    3  A    between atoms: C_13  and  C_14 
REMARK       I    between atoms: C_14  and  N_15 
REMARK    4  A    between atoms: N_15  and  C_16 
REMARK    5  A    between atoms: C_16  and  C_17 
REMARK    6  A    between atoms: C_17  and  C_18 
REMARK    7  A    between atoms: C_20  and  O_21 
REMARK    8  A    between atoms: C_23  and  O_24 
ROOT
HETATM    1  C   UNL     1      24.158  45.592  49.823  1.00  0.00     0.035 A 
HETATM    2  C   UNL     1      23.664  44.293  49.946  1.00  0.00     0.030 A 
HETATM    3  C   UNL     1      24.518  43.232  50.269  1.00  0.00     0.019 A 
HETATM    4  C   UNL     1      25.880  43.465  50.476  1.00  0.00     0.032 A 
HETATM    5  C   UNL     1      26.391  44.755  50.306  1.00  0.00     0.019 A 
HETATM    6  C   UNL     1      25.532  45.812  49.985  1.00  0.00     0.030 A 
ENDROOT
BRANCH   4   7
HETATM    7  C   UNL     1      26.809  42.382  50.898  1.00  0.00     0.251 C 
HETATM    8  N   UNL     1      26.927  42.187  52.260  1.00  0.00    -0.357 N 
HETATM    9  H   UNL     1      26.594  42.930  52.863  1.00  0.00     0.162 HD
HETATM   10  O   UNL     1      27.458  41.761  50.064  1.00  0.00    -0.268 OA
BRANCH   8  11
HETATM   11  C   UNL     1      27.980  41.342  52.792  1.00  0.00     0.127 C 
BRANCH  11  12
HETATM   12  C   UNL     1      29.335  42.053  52.855  1.00  0.00     0.058 C 
BRANCH  12  13
HETATM   13  C   UNL     1      29.416  43.164  53.882  1.00  0.00    -0.054 A 
HETATM   14  C   UNL     1      30.414  43.170  54.869  1.00  0.00     0.046 A 
HETATM   15  C   UNL     1      30.483  44.201  55.816  1.00  0.00     0.102 A 
HETATM   16  C   UNL     1      29.523  45.232  55.796  1.00  0.00     0.101 A 
HETATM   17  C   UNL     1      28.525  45.222  54.818  1.00  0.00     0.040 A 
HETATM   18  C   UNL     1      28.473  44.197  53.871  1.00  0.00     0.010 A 
BRANCH  15  19
HETATM   19  O   UNL     1      31.433  44.283  56.804  1.00  0.00    -0.353 OA
HETATM   20  C   UNL     1      32.057  43.077  57.222  1.00  0.00     0.210 C 
ENDBRANCH  15  19
BRANCH  16  21
HETATM   21  O   UNL     1      29.654  46.200  56.761  1.00  0.00    -0.353 OA
HETATM   22  C   UNL     1      28.667  46.247  57.781  1.00  0.00     0.210 C 
ENDBRANCH  16  21
ENDBRANCH  12  13
ENDBRANCH  11  12
ENDBRANCH   8  11
ENDBRANCH   4   7
BRANCH   1  23
HETATM   23  N   UNL     1      23.355  46.720  49.568  1.00  0.00    -0.322 N 
HETATM   24  C   UNL     1      22.646  47.024  48.419  1.00  0.00     0.265 C 
HETATM   25  O   UNL     1      22.677  46.374  47.380  1.00  0.00    -0.267 OA
HETATM   26  H   UNL     1      23.257  47.391  50.323  1.00  0.00     0.169 HD
BRANCH  24  27
HETATM   27  C   UNL     1      21.784  48.278  48.550  1.00  0.00     0.097 C 
HETATM   28  C   UNL     1      20.438  48.194  48.704  1.00  0.00     0.064 C 
HETATM   29  C   UNL     1      19.689  46.893  48.844  1.00  0.00     0.078 C 
HETATM   30  O   UNL     1      19.569  49.270  48.800  1.00  0.00    -0.353 OA
HETATM   31  C   UNL     1      20.048  50.532  48.340  1.00  0.00     0.185 C 
HETATM   32  C   UNL     1      21.328  50.924  49.045  1.00  0.00     0.106 C 
HETATM   33  S   UNL     1      22.642  49.807  48.501  1.00  0.00    -0.120 SA
ENDBRANCH  24  27
ENDBRANCH   1  23
TORSDOF 8
ENDMDL
MODEL 4
REMARK VINA RESULT:      -8.6      5.657     13.432
REMARK  8 active torsions:
REMARK  status: ('A' for Active; 'I' for Inactive)
REMARK    1  A    between atoms: C_7  and  C_8 
REMARK       I    between atoms: C_8  and  N_9 
REMARK    2  A    between atoms: N_9  and  C_10 
REMARK    3  A    between atoms: C_13  and  C_14 
REMARK       I    between atoms: C_14  and  N_15 
REMARK    4  A    between atoms: N_15  and  C_16 
REMARK    5  A    between atoms: C_16  and  C_17 
REMARK    6  A    between atoms: C_17  and  C_18 
REMARK    7  A    between atoms: C_20  and  O_21 
REMARK    8  A    between atoms: C_23  and  O_24 
ROOT
HETATM    1  C   UNL     1      20.775  50.187  49.331  1.00  0.00     0.035 A 
HETATM    2  C   UNL     1      20.570  51.452  48.779  1.00  0.00     0.030 A 
HETATM    3  C   UNL     1      19.280  51.987  48.678  1.00  0.00     0.019 A 
HETATM    4  C   UNL     1      18.180  51.256  49.136  1.00  0.00     0.032 A 
HETATM    5  C   UNL     1      18.372  49.969  49.645  1.00  0.00     0.019 A 
HETATM    6  C   UNL     1      19.663  49.440  49.745  1.00  0.00     0.030 A 
ENDROOT
BRANCH   4   7
HETATM    7  C   UNL     1      16.801  51.817  49.120  1.00  0.00     0.251 C 
HETATM    8  N   UNL     1      16.705  53.179  49.323  1.00  0.00    -0.357 N 
HETATM    9  H   UNL     1      17.514  53.647  49.714  1.00  0.00     0.162 HD
HETATM   10  O   UNL     1      15.832  51.079  48.992  1.00  0.00    -0.268 OA
BRANCH   8  11
HETATM   11  C   UNL     1      15.415  53.793  49.580  1.00  0.00     0.127 C 
BRANCH  11  12
HETATM   12  C   UNL     1      15.151  54.016  51.072  1.00  0.00     0.058 C 
BRANCH  12  13
HETATM   13  C   UNL     1      15.178  55.466  51.507  1.00  0.00    -0.054 A 
HETATM   14  C   UNL     1      15.114  55.820  52.863  1.00  0.00     0.046 A 
HETATM   15  C   UNL     1      15.140  57.165  53.259  1.00  0.00     0.102 A 
HETATM   16  C   UNL     1      15.202  58.177  52.282  1.00  0.00     0.101 A 
HETATM   17  C   UNL     1      15.258  57.826  50.930  1.00  0.00     0.040 A 
HETATM   18  C   UNL     1      15.245  56.483  50.548  1.00  0.00     0.010 A 
BRANCH  15  19
HETATM   19  O   UNL     1      15.092  57.590  54.564  1.00  0.00    -0.353 OA
HETATM   20  C   UNL     1      13.820  57.642  55.195  1.00  0.00     0.210 C 
ENDBRANCH  15  19
BRANCH  16  21
HETATM   21  O   UNL     1      15.215  59.468  52.749  1.00  0.00    -0.353 OA
HETATM   22  C   UNL     1      14.117  60.302  52.404  1.00  0.00     0.210 C 
ENDBRANCH  16  21
ENDBRANCH  12  13
ENDBRANCH  11  12
ENDBRANCH   8  11
ENDBRANCH   4   7
BRANCH   1  23
HETATM   23  N   UNL     1      22.043  49.609  49.529  1.00  0.00    -0.322 N 
HETATM   24  C   UNL     1      22.742  48.768  48.682  1.00  0.00     0.265 C 
HETATM   25  O   UNL     1      22.311  48.313  47.628  1.00  0.00    -0.267 OA
HETATM   26  H   UNL     1      22.527  49.853  50.387  1.00  0.00     0.169 HD
BRANCH  24  27
HETATM   27  C   UNL     1      24.149  48.436  49.176  1.00  0.00     0.097 C 
HETATM   28  C   UNL     1      25.221  49.175  48.794  1.00  0.00     0.064 C 
HETATM   29  C   UNL     1      25.126  50.413  47.938  1.00  0.00     0.078 C 
HETATM   30  O   UNL     1      26.537  48.938  49.163  1.00  0.00    -0.353 OA
HETATM   31  C   UNL     1      26.844  47.638  49.662  1.00  0.00     0.185 C 
HETATM   32  C   UNL     1      25.974  47.285  50.848  1.00  0.00     0.106 C 
HETATM   33  S   UNL     1      24.276  47.066  50.264  1.00  0.00    -0.120 SA
ENDBRANCH  24  27
ENDBRANCH   1  23
TORSDOF 8
ENDMDL
MODEL 5
REMARK VINA RESULT:      -8.5      2.912     10.706
REMARK  8 active torsions:
REMARK  status: ('A' for Active; 'I' for Inactive)
REMARK    1  A    between atoms: C_7  and  C_8 
REMARK       I    between atoms: C_8  and  N_9 
REMARK    2  A    between atoms: N_9  and  C_10 
REMARK    3  A    between atoms: C_13  and  C_14 
REMARK       I    between atoms: C_14  and  N_15 
REMARK    4  A    between atoms: N_15  and  C_16 
REMARK    5  A    between atoms: C_16  and  C_17 
REMARK    6  A    between atoms: C_17  and  C_18 
REMARK    7  A    between atoms: C_20  and  O_21 
REMARK    8  A    between atoms: C_23  and  O_24 
ROOT
HETATM    1  C   UNL     1      26.612  45.526  52.148  1.00  0.00     0.035 A 
HETATM    2  C   UNL     1      25.689  46.573  52.113  1.00  0.00     0.030 A 
HETATM    3  C   UNL     1      24.718  46.634  51.106  1.00  0.00     0.019 A 
HETATM    4  C   UNL     1      24.660  45.640  50.125  1.00  0.00     0.032 A 
HETATM    5  C   UNL     1      25.611  44.617  50.126  1.00  0.00     0.019 A 
HETATM    6  C   UNL     1      26.579  44.559  51.134  1.00  0.00     0.030 A 
ENDROOT
BRANCH   4   7
HETATM    7  C   UNL     1      23.596  45.623  49.084  1.00  0.00     0.251 C 
HETATM    8  N   UNL     1      22.801  46.750  49.019  1.00  0.00    -0.357 N 
HETATM    9  H   UNL     1      22.819  47.376  49.816  1.00  0.00     0.162 HD
HETATM   10  O   UNL     1      23.426  44.631  48.386  1.00  0.00    -0.268 OA
BRANCH   8  11
HETATM   11  C   UNL     1      21.586  46.746  48.226  1.00  0.00     0.127 C 
BRANCH  11  12
HETATM   12  C   UNL     1      21.407  48.030  47.410  1.00  0.00     0.058 C 
BRANCH  12  13
HETATM   13  C   UNL     1      20.678  49.142  48.135  1.00  0.00    -0.054 A 
HETATM   14  C   UNL     1      19.953  48.890  49.310  1.00  0.00     0.046 A 
HETATM   15  C   UNL     1      19.281  49.924  49.977  1.00  0.00     0.102 A 
HETATM   16  C   UNL     1      19.310  51.229  49.448  1.00  0.00     0.101 A 
HETATM   17  C   UNL     1      20.026  51.478  48.274  1.00  0.00     0.040 A 
HETATM   18  C   UNL     1      20.703  50.444  47.625  1.00  0.00     0.010 A 
BRANCH  15  19
HETATM   19  O   UNL     1      18.560  49.760  51.134  1.00  0.00    -0.353 OA
HETATM   20  C   UNL     1      18.448  48.445  51.661  1.00  0.00     0.210 C 
ENDBRANCH  15  19
BRANCH  16  21
HETATM   21  O   UNL     1      18.621  52.184  50.154  1.00  0.00    -0.353 OA
HETATM   22  C   UNL     1      17.429  52.696  49.575  1.00  0.00     0.210 C 
ENDBRANCH  16  21
ENDBRANCH  12  13
ENDBRANCH  11  12
ENDBRANCH   8  11
ENDBRANCH   4   7
BRANCH   1  23
HETATM   23  N   UNL     1      27.574  45.358  53.162  1.00  0.00    -0.322 N 
HETATM   24  C   UNL     1      27.559  44.460  54.215  1.00  0.00     0.265 C 
HETATM   25  O   UNL     1      26.632  43.703  54.482  1.00  0.00    -0.267 OA
HETATM   26  H   UNL     1      28.398  45.947  53.112  1.00  0.00     0.169 HD
BRANCH  24  27
HETATM   27  C   UNL     1      28.837  44.480  55.051  1.00  0.00     0.097 C 
HETATM   28  C   UNL     1      29.838  43.591  54.827  1.00  0.00     0.064 C 
HETATM   29  C   UNL     1      29.828  42.579  53.710  1.00  0.00     0.078 C 
HETATM   30  O   UNL     1      31.020  43.509  55.549  1.00  0.00    -0.353 OA
HETATM   31  C   UNL     1      31.039  44.135  56.830  1.00  0.00     0.185 C 
HETATM   32  C   UNL     1      30.673  45.599  56.733  1.00  0.00     0.106 C 
HETATM   33  S   UNL     1      28.924  45.720  56.288  1.00  0.00    -0.120 SA
ENDBRANCH  24  27
ENDBRANCH   1  23
TORSDOF 8
ENDMDL
MODEL 6
REMARK VINA RESULT:      -8.3      5.639     13.657
REMARK  8 active torsions:
REMARK  status: ('A' for Active; 'I' for Inactive)
REMARK    1  A    between atoms: C_7  and  C_8 
REMARK       I    between atoms: C_8  and  N_9 
REMARK    2  A    between atoms: N_9  and  C_10 
REMARK    3  A    between atoms: C_13  and  C_14 
REMARK       I    between atoms: C_14  and  N_15 
REMARK    4  A    between atoms: N_15  and  C_16 
REMARK    5  A    between atoms: C_16  and  C_17 
REMARK    6  A    between atoms: C_17  and  C_18 
REMARK    7  A    between atoms: C_20  and  O_21 
REMARK    8  A    between atoms: C_23  and  O_24 
ROOT
HETATM    1  C   UNL     1      20.769  50.288  49.588  1.00  0.00     0.035 A 
HETATM    2  C   UNL     1      19.700  49.648  50.216  1.00  0.00     0.030 A 
HETATM    3  C   UNL     1      18.405  50.175  50.138  1.00  0.00     0.019 A 
HETATM    4  C   UNL     1      18.170  51.352  49.421  1.00  0.00     0.032 A 
HETATM    5  C   UNL     1      19.243  52.025  48.831  1.00  0.00     0.019 A 
HETATM    6  C   UNL     1      20.534  51.492  48.911  1.00  0.00     0.030 A 
ENDROOT
BRANCH   4   7
HETATM    7  C   UNL     1      16.799  51.905  49.245  1.00  0.00     0.251 C 
HETATM    8  N   UNL     1      16.666  53.261  49.466  1.00  0.00    -0.357 N 
HETATM    9  H   UNL     1      17.416  53.725  49.965  1.00  0.00     0.162 HD
HETATM   10  O   UNL     1      15.860  51.164  48.981  1.00  0.00    -0.268 OA
BRANCH   8  11
HETATM   11  C   UNL     1      15.349  53.861  49.572  1.00  0.00     0.127 C 
BRANCH  11  12
HETATM   12  C   UNL     1      14.913  54.080  51.024  1.00  0.00     0.058 C 
BRANCH  12  13
HETATM   13  C   UNL     1      14.989  55.518  51.495  1.00  0.00    -0.054 A 
HETATM   14  C   UNL     1      14.958  56.584  50.583  1.00  0.00     0.046 A 
HETATM   15  C   UNL     1      15.028  57.913  51.025  1.00  0.00     0.102 A 
HETATM   16  C   UNL     1      15.161  58.182  52.401  1.00  0.00     0.101 A 
HETATM   17  C   UNL     1      15.199  57.120  53.309  1.00  0.00     0.040 A 
HETATM   18  C   UNL     1      15.115  55.801  52.859  1.00  0.00     0.010 A 
BRANCH  15  19
HETATM   19  O   UNL     1      14.994  59.008  50.198  1.00  0.00    -0.353 OA
HETATM   20  C   UNL     1      14.006  59.034  49.178  1.00  0.00     0.210 C 
ENDBRANCH  15  19
BRANCH  16  21
HETATM   21  O   UNL     1      15.231  59.507  52.754  1.00  0.00    -0.353 OA
HETATM   22  C   UNL     1      14.098  60.077  53.395  1.00  0.00     0.210 C 
ENDBRANCH  16  21
ENDBRANCH  12  13
ENDBRANCH  11  12
ENDBRANCH   8  11
ENDBRANCH   4   7
BRANCH   1  23
HETATM   23  N   UNL     1      22.084  49.787  49.564  1.00  0.00    -0.322 N 
HETATM   24  C   UNL     1      22.695  49.031  48.578  1.00  0.00     0.265 C 
HETATM   25  O   UNL     1      22.136  48.598  47.577  1.00  0.00    -0.267 OA
HETATM   26  H   UNL     1      22.677  50.022  50.353  1.00  0.00     0.169 HD
BRANCH  24  27
HETATM   27  C   UNL     1      24.177  48.771  48.840  1.00  0.00     0.097 C 
HETATM   28  C   UNL     1      24.600  47.600  49.379  1.00  0.00     0.064 C 
HETATM   29  C   UNL     1      23.689  46.438  49.686  1.00  0.00     0.078 C 
HETATM   30  O   UNL     1      25.916  47.280  49.681  1.00  0.00    -0.353 OA
HETATM   31  C   UNL     1      26.836  48.365  49.788  1.00  0.00     0.185 C 
HETATM   32  C   UNL     1      26.855  49.196  48.524  1.00  0.00     0.106 C 
HETATM   33  S   UNL     1      25.274  50.063  48.390  1.00  0.00    -0.120 SA
ENDBRANCH  24  27
ENDBRANCH   1  23
TORSDOF 8
ENDMDL
MODEL 7
REMARK VINA RESULT:      -8.3      3.191     11.771
REMARK  8 active torsions:
REMARK  status: ('A' for Active; 'I' for Inactive)
REMARK    1  A    between atoms: C_7  and  C_8 
REMARK       I    between atoms: C_8  and  N_9 
REMARK    2  A    between atoms: N_9  and  C_10 
REMARK    3  A    between atoms: C_13  and  C_14 
REMARK       I    between atoms: C_14  and  N_15 
REMARK    4  A    between atoms: N_15  and  C_16 
REMARK    5  A    between atoms: C_16  and  C_17 
REMARK    6  A    between atoms: C_17  and  C_18 
REMARK    7  A    between atoms: C_20  and  O_21 
REMARK    8  A    between atoms: C_23  and  O_24 
ROOT
HETATM    1  C   UNL     1      25.863  46.579  50.417  1.00  0.00     0.035 A 
HETATM    2  C   UNL     1      26.518  47.700  49.906  1.00  0.00     0.030 A 
HETATM    3  C   UNL     1      25.798  48.720  49.270  1.00  0.00     0.019 A 
HETATM    4  C   UNL     1      24.409  48.624  49.144  1.00  0.00     0.032 A 
HETATM    5  C   UNL     1      23.753  47.481  49.609  1.00  0.00     0.019 A 
HETATM    6  C   UNL     1      24.477  46.467  50.246  1.00  0.00     0.030 A 
ENDROOT
BRANCH   4   7
HETATM    7  C   UNL     1      23.597  49.719  48.546  1.00  0.00     0.251 C 
HETATM    8  N   UNL     1      22.533  50.161  49.307  1.00  0.00    -0.357 N 
HETATM    9  H   UNL     1      22.228  49.564  50.067  1.00  0.00     0.162 HD
HETATM   10  O   UNL     1      23.848  50.136  47.422  1.00  0.00    -0.268 OA
BRANCH   8  11
HETATM   11  C   UNL     1      21.530  51.036  48.728  1.00  0.00     0.127 C 
BRANCH  11  12
HETATM   12  C   UNL     1      20.349  51.289  49.670  1.00  0.00     0.058 C 
BRANCH  12  13
HETATM   13  C   UNL     1      19.036  51.575  48.971  1.00  0.00    -0.054 A 
HETATM   14  C   UNL     1      17.864  51.825  49.701  1.00  0.00     0.046 A 
HETATM   15  C   UNL     1      16.652  52.090  49.048  1.00  0.00     0.102 A 
HETATM   16  C   UNL     1      16.602  52.078  47.640  1.00  0.00     0.101 A 
HETATM   17  C   UNL     1      17.768  51.822  46.913  1.00  0.00     0.040 A 
HETATM   18  C   UNL     1      18.973  51.572  47.574  1.00  0.00     0.010 A 
BRANCH  15  19
HETATM   19  O   UNL     1      15.467  52.353  49.690  1.00  0.00    -0.353 OA
HETATM   20  C   UNL     1      15.399  53.519  50.499  1.00  0.00     0.210 C 
ENDBRANCH  15  19
BRANCH  16  21
HETATM   21  O   UNL     1      15.377  52.338  47.076  1.00  0.00    -0.353 OA
HETATM   22  C   UNL     1      14.996  51.561  45.950  1.00  0.00     0.210 C 
ENDBRANCH  16  21
ENDBRANCH  12  13
ENDBRANCH  11  12
ENDBRANCH   8  11
ENDBRANCH   4   7
BRANCH   1  23
HETATM   23  N   UNL     1      26.505  45.547  51.127  1.00  0.00    -0.322 N 
HETATM   24  C   UNL     1      25.940  44.612  51.977  1.00  0.00     0.265 C 
HETATM   25  O   UNL     1      24.762  44.592  52.317  1.00  0.00    -0.267 OA
HETATM   26  H   UNL     1      27.506  45.452  50.988  1.00  0.00     0.169 HD
BRANCH  24  27
HETATM   27  C   UNL     1      26.932  43.564  52.475  1.00  0.00     0.097 C 
HETATM   28  C   UNL     1      27.561  43.702  53.670  1.00  0.00     0.064 C 
HETATM   29  C   UNL     1      27.288  44.827  54.637  1.00  0.00     0.078 C 
HETATM   30  O   UNL     1      28.497  42.824  54.196  1.00  0.00    -0.353 OA
HETATM   31  C   UNL     1      29.121  41.923  53.283  1.00  0.00     0.185 C 
HETATM   32  C   UNL     1      28.096  41.095  52.540  1.00  0.00     0.106 C 
HETATM   33  S   UNL     1      27.187  42.186  51.420  1.00  0.00    -0.120 SA
ENDBRANCH  24  27
ENDBRANCH   1  23
TORSDOF 8
ENDMDL
MODEL 8
REMARK VINA RESULT:      -8.3      3.489     11.597
REMARK  8 active torsions:
REMARK  status: ('A' for Active; 'I' for Inactive)
REMARK    1  A    between atoms: C_7  and  C_8 
REMARK       I    between atoms: C_8  and  N_9 
REMARK    2  A    between atoms: N_9  and  C_10 
REMARK    3  A    between atoms: C_13  and  C_14 
REMARK       I    between atoms: C_14  and  N_15 
REMARK    4  A    between atoms: N_15  and  C_16 
REMARK    5  A    between atoms: C_16  and  C_17 
REMARK    6  A    between atoms: C_17  and  C_18 
REMARK    7  A    between atoms: C_20  and  O_21 
REMARK    8  A    between atoms: C_23  and  O_24 
ROOT
HETATM    1  C   UNL     1      26.034  46.583  50.092  1.00  0.00     0.035 A 
HETATM    2  C   UNL     1      26.746  47.703  49.661  1.00  0.00     0.030 A 
HETATM    3  C   UNL     1      26.081  48.800  49.102  1.00  0.00     0.019 A 
HETATM    4  C   UNL     1      24.689  48.787  48.974  1.00  0.00     0.032 A 
HETATM    5  C   UNL     1      23.974  47.649  49.358  1.00  0.00     0.019 A 
HETATM    6  C   UNL     1      24.644  46.556  49.918  1.00  0.00     0.030 A 
ENDROOT
BRANCH   4   7
HETATM    7  C   UNL     1      23.935  49.961  48.458  1.00  0.00     0.251 C 
HETATM    8  N   UNL     1      22.895  50.402  49.252  1.00  0.00    -0.357 N 
HETATM    9  H   UNL     1      22.559  49.770  49.968  1.00  0.00     0.162 HD
HETATM   10  O   UNL     1      24.208  50.444  47.366  1.00  0.00    -0.268 OA
BRANCH   8  11
HETATM   11  C   UNL     1      21.939  51.367  48.739  1.00  0.00     0.127 C 
BRANCH  11  12
HETATM   12  C   UNL     1      20.771  50.708  47.999  1.00  0.00     0.058 C 
BRANCH  12  13
HETATM   13  C   UNL     1      19.409  51.277  48.339  1.00  0.00    -0.054 A 
HETATM   14  C   UNL     1      18.395  51.361  47.373  1.00  0.00     0.046 A 
HETATM   15  C   UNL     1      17.136  51.889  47.695  1.00  0.00     0.102 A 
HETATM   16  C   UNL     1      16.893  52.366  48.997  1.00  0.00     0.101 A 
HETATM   17  C   UNL     1      17.905  52.289  49.958  1.00  0.00     0.040 A 
HETATM   18  C   UNL     1      19.151  51.749  49.631  1.00  0.00     0.010 A 
BRANCH  15  19
HETATM   19  O   UNL     1      16.091  51.996  46.810  1.00  0.00    -0.353 OA
HETATM   20  C   UNL     1      16.375  52.493  45.510  1.00  0.00     0.210 C 
ENDBRANCH  15  19
BRANCH  16  21
HETATM   21  O   UNL     1      15.639  52.874  49.231  1.00  0.00    -0.353 OA
HETATM   22  C   UNL     1      15.518  53.898  50.209  1.00  0.00     0.210 C 
ENDBRANCH  16  21
ENDBRANCH  12  13
ENDBRANCH  11  12
ENDBRANCH   8  11
ENDBRANCH   4   7
BRANCH   1  23
HETATM   23  N   UNL     1      26.621  45.471  50.725  1.00  0.00    -0.322 N 
HETATM   24  C   UNL     1      26.263  44.880  51.924  1.00  0.00     0.265 C 
HETATM   25  O   UNL     1      25.400  45.302  52.686  1.00  0.00    -0.267 OA
HETATM   26  H   UNL     1      27.390  45.023  50.239  1.00  0.00     0.169 HD
BRANCH  24  27
HETATM   27  C   UNL     1      27.051  43.610  52.237  1.00  0.00     0.097 C 
HETATM   28  C   UNL     1      26.692  42.412  51.712  1.00  0.00     0.064 C 
HETATM   29  C   UNL     1      25.565  42.230  50.727  1.00  0.00     0.078 C 
HETATM   30  O   UNL     1      27.324  41.201  51.958  1.00  0.00    -0.353 OA
HETATM   31  C   UNL     1      28.159  41.132  53.112  1.00  0.00     0.185 C 
HETATM   32  C   UNL     1      29.231  42.198  53.079  1.00  0.00     0.106 C 
HETATM   33  S   UNL     1      28.437  43.809  53.294  1.00  0.00    -0.120 SA
ENDBRANCH  24  27
ENDBRANCH   1  23
TORSDOF 8
ENDMDL
MODEL 9
REMARK VINA RESULT:      -8.0      2.827      3.396
REMARK  8 active torsions:
REMARK  status: ('A' for Active; 'I' for Inactive)
REMARK    1  A    between atoms: C_7  and  C_8 
REMARK       I    between atoms: C_8  and  N_9 
REMARK    2  A    between atoms: N_9  and  C_10 
REMARK    3  A    between atoms: C_13  and  C_14 
REMARK       I    between atoms: C_14  and  N_15 
REMARK    4  A    between atoms: N_15  and  C_16 
REMARK    5  A    between atoms: C_16  and  C_17 
REMARK    6  A    between atoms: C_17  and  C_18 
REMARK    7  A    between atoms: C_20  and  O_21 
REMARK    8  A    between atoms: C_23  and  O_24 
ROOT
HETATM    1  C   UNL     1      22.762  44.467  48.722  1.00  0.00     0.035 A 
HETATM    2  C   UNL     1      22.929  43.154  49.163  1.00  0.00     0.030 A 
HETATM    3  C   UNL     1      23.787  42.862  50.230  1.00  0.00     0.019 A 
HETATM    4  C   UNL     1      24.485  43.891  50.870  1.00  0.00     0.032 A 
HETATM    5  C   UNL     1      24.360  45.202  50.402  1.00  0.00     0.019 A 
HETATM    6  C   UNL     1      23.499  45.487  49.337  1.00  0.00     0.030 A 
ENDROOT
BRANCH   4   7
HETATM    7  C   UNL     1      25.346  43.637  52.057  1.00  0.00     0.251 C 
HETATM    8  N   UNL     1      26.456  42.847  51.836  1.00  0.00    -0.357 N 
HETATM    9  H   UNL     1      26.472  42.299  50.984  1.00  0.00     0.162 HD
HETATM   10  O   UNL     1      25.028  44.069  53.159  1.00  0.00    -0.268 OA
BRANCH   8  11
HETATM   11  C   UNL     1      27.222  42.328  52.955  1.00  0.00     0.127 C 
BRANCH  11  12
HETATM   12  C   UNL     1      28.705  42.702  52.881  1.00  0.00     0.058 C 
BRANCH  12  13
HETATM   13  C   UNL     1      29.196  43.561  54.029  1.00  0.00    -0.054 A 
HETATM   14  C   UNL     1      28.529  44.741  54.390  1.00  0.00     0.046 A 
HETATM   15  C   UNL     1      28.988  45.531  55.454  1.00  0.00     0.102 A 
HETATM   16  C   UNL     1      30.150  45.151  56.153  1.00  0.00     0.101 A 
HETATM   17  C   UNL     1      30.819  43.979  55.788  1.00  0.00     0.040 A 
HETATM   18  C   UNL     1      30.345  43.193  54.736  1.00  0.00     0.010 A 
BRANCH  15  19
HETATM   19  O   UNL     1      28.386  46.691  55.874  1.00  0.00    -0.353 OA
HETATM   20  C   UNL     1      27.244  47.139  55.158  1.00  0.00     0.210 C 
ENDBRANCH  15  19
BRANCH  16  21
HETATM   21  O   UNL     1      30.540  45.980  57.175  1.00  0.00    -0.353 OA
HETATM   22  C   UNL     1      30.422  45.485  58.502  1.00  0.00     0.210 C 
ENDBRANCH  16  21
ENDBRANCH  12  13
ENDBRANCH  11  12
ENDBRANCH   8  11
ENDBRANCH   4   7
BRANCH   1  23
HETATM   23  N   UNL     1      21.868  44.849  47.703  1.00  0.00    -0.322 N 
HETATM   24  C   UNL     1      20.506  45.069  47.798  1.00  0.00     0.265 C 
HETATM   25  O   UNL     1      19.830  44.878  48.803  1.00  0.00    -0.267 OA
HETATM   26  H   UNL     1      22.266  45.008  46.783  1.00  0.00     0.169 HD
BRANCH  24  27
HETATM   27  C   UNL     1      19.882  45.593  46.505  1.00  0.00     0.097 C 
HETATM   28  C   UNL     1      19.735  46.924  46.285  1.00  0.00     0.064 C 
HETATM   29  C   UNL     1      20.234  47.991  47.225  1.00  0.00     0.078 C 
HETATM   30  O   UNL     1      19.156  47.495  45.161  1.00  0.00    -0.353 OA
HETATM   31  C   UNL     1      18.330  46.653  44.360  1.00  0.00     0.185 C 
HETATM   32  C   UNL     1      19.081  45.423  43.901  1.00  0.00     0.106 C 
HETATM   33  S   UNL     1      19.391  44.375  45.342  1.00  0.00    -0.120 SA
ENDBRANCH  24  27
ENDBRANCH   1  23
TORSDOF 8
ENDMDL
MODEL 10
REMARK VINA RESULT:      -8.0      3.874      7.063
REMARK  8 active torsions:
REMARK  status: ('A' for Active; 'I' for Inactive)
REMARK    1  A    between atoms: C_7  and  C_8 
REMARK       I    between atoms: C_8  and  N_9 
REMARK    2  A    between atoms: N_9  and  C_10 
REMARK    3  A    between atoms: C_13  and  C_14 
REMARK       I    between atoms: C_14  and  N_15 
REMARK    4  A    between atoms: N_15  and  C_16 
REMARK    5  A    between atoms: C_16  and  C_17 
REMARK    6  A    between atoms: C_17  and  C_18 
REMARK    7  A    between atoms: C_20  and  O_21 
REMARK    8  A    between atoms: C_23  and  O_24 
ROOT
HETATM    1  C   UNL     1      18.500  51.981  48.959  1.00  0.00     0.035 A 
HETATM    2  C   UNL     1      19.176  51.498  50.080  1.00  0.00     0.030 A 
HETATM    3  C   UNL     1      20.346  50.742  49.939  1.00  0.00     0.019 A 
HETATM    4  C   UNL     1      20.852  50.466  48.666  1.00  0.00     0.032 A 
HETATM    5  C   UNL     1      20.154  50.904  47.537  1.00  0.00     0.019 A 
HETATM    6  C   UNL     1      18.987  51.661  47.685  1.00  0.00     0.030 A 
ENDROOT
BRANCH   4   7
HETATM    7  C   UNL     1      22.134  49.733  48.471  1.00  0.00     0.251 C 
HETATM    8  N   UNL     1      22.616  49.062  49.576  1.00  0.00    -0.357 N 
HETATM    9  H   UNL     1      22.226  49.314  50.477  1.00  0.00     0.162 HD
HETATM   10  O   UNL     1      22.726  49.794  47.400  1.00  0.00    -0.268 OA
BRANCH   8  11
HETATM   11  C   UNL     1      23.966  48.530  49.580  1.00  0.00     0.127 C 
BRANCH  11  12
HETATM   12  C   UNL     1      24.004  47.010  49.391  1.00  0.00     0.058 C 
BRANCH  12  13
HETATM   13  C   UNL     1      24.994  46.289  50.283  1.00  0.00    -0.054 A 
HETATM   14  C   UNL     1      25.004  46.494  51.671  1.00  0.00     0.046 A 
HETATM   15  C   UNL     1      25.923  45.823  52.491  1.00  0.00     0.102 A 
HETATM   16  C   UNL     1      26.867  44.953  51.913  1.00  0.00     0.101 A 
HETATM   17  C   UNL     1      26.861  44.754  50.529  1.00  0.00     0.040 A 
HETATM   18  C   UNL     1      25.933  45.417  49.723  1.00  0.00     0.010 A 
BRANCH  15  19
HETATM   19  O   UNL     1      25.990  45.962  53.856  1.00  0.00    -0.353 OA
HETATM   20  C   UNL     1      26.271  47.255  54.374  1.00  0.00     0.210 C 
ENDBRANCH  15  19
BRANCH  16  21
HETATM   21  O   UNL     1      27.736  44.340  52.781  1.00  0.00    -0.353 OA
HETATM   22  C   UNL     1      28.529  43.275  52.273  1.00  0.00     0.210 C 
ENDBRANCH  16  21
ENDBRANCH  12  13
ENDBRANCH  11  12
ENDBRANCH   8  11
ENDBRANCH   4   7
BRANCH   1  23
HETATM   23  N   UNL     1      17.359  52.803  49.020  1.00  0.00    -0.322 N 
HETATM   24  C   UNL     1      16.034  52.422  49.136  1.00  0.00     0.265 C 
HETATM   25  O   UNL     1      15.631  51.264  49.119  1.00  0.00    -0.267 OA
HETATM   26  H   UNL     1      17.517  53.805  49.001  1.00  0.00     0.169 HD
BRANCH  24  27
HETATM   27  C   UNL     1      15.073  53.598  49.297  1.00  0.00     0.097 C 
HETATM   28  C   UNL     1      14.438  54.138  48.226  1.00  0.00     0.064 C 
HETATM   29  C   UNL     1      14.546  53.596  46.824  1.00  0.00     0.078 C 
HETATM   30  O   UNL     1      13.573  55.222  48.265  1.00  0.00    -0.353 OA
HETATM   31  C   UNL     1      13.635  56.058  49.418  1.00  0.00     0.185 C 
HETATM   32  C   UNL     1      13.413  55.262  50.686  1.00  0.00     0.106 C 
HETATM   33  S   UNL     1      14.841  54.180  50.935  1.00  0.00    -0.120 SA
ENDBRANCH  24  27
ENDBRANCH   1  23
TORSDOF 8
ENDMDL
