MODEL 1
REMARK VINA RESULT:      -7.7      0.000      0.000
REMARK  3 active torsions:
REMARK  status: ('A' for Active; 'I' for Inactive)
REMARK       I    between atoms: C_2  and  N_3 
REMARK    1  A    between atoms: N_3  and  C_4 
REMARK    2  A    between atoms: C_7  and  C_8 
REMARK       I    between atoms: C_8  and  N_9 
REMARK    3  A    between atoms: N_9  and  C_10 
ROOT
HETATM    1  C   UNL     1      17.659  51.919  48.969  1.00  0.00     0.034 A 
HETATM    2  C   UNL     1      17.926  50.962  49.952  1.00  0.00     0.030 A 
HETATM    3  C   UNL     1      19.243  50.573  50.237  1.00  0.00     0.019 A 
HETATM    4  C   UNL     1      20.317  51.151  49.552  1.00  0.00     0.032 A 
HETATM    5  C   UNL     1      20.047  52.092  48.550  1.00  0.00     0.019 A 
HETATM    6  C   UNL     1      18.732  52.470  48.262  1.00  0.00     0.030 A 
ENDROOT
BRANCH   4   7
HETATM    7  C   UNL     1      21.751  50.809  49.822  1.00  0.00     0.257 C 
HETATM    8  N   UNL     1      22.412  50.143  48.808  1.00  0.00    -0.307 N 
HETATM    9  H   UNL     1      21.913  49.925  47.963  1.00  0.00     0.170 HD
HETATM   10  O   UNL     1      22.210  51.124  50.914  1.00  0.00    -0.267 OA
BRANCH   8  11
HETATM   11  C   UNL     1      23.730  49.663  48.880  1.00  0.00     0.130 A 
HETATM   12  N   UNL     1      24.043  48.605  49.649  1.00  0.00    -0.242 NA
HETATM   13  C   UNL     1      25.326  48.172  49.651  1.00  0.00     0.142 A 
HETATM   14  C   UNL     1      26.336  48.763  48.914  1.00  0.00     0.051 A 
HETATM   15 CL   UNL     1      27.940  48.162  48.961  1.00  0.00    -0.083 Cl
HETATM   16  C   UNL     1      26.011  49.860  48.129  1.00  0.00     0.029 A 
HETATM   17  C   UNL     1      24.690  50.314  48.107  1.00  0.00     0.052 A 
ENDBRANCH   8  11
ENDBRANCH   4   7
BRANCH   1  18
HETATM   18  N   UNL     1      16.367  52.368  48.633  1.00  0.00    -0.328 N 
HETATM   19  C   UNL     1      15.611  53.323  49.289  1.00  0.00     0.218 C 
HETATM   20  C   UNL     1      14.269  53.558  48.640  1.00  0.00     0.117 C 
HETATM   21  O   UNL     1      15.942  53.969  50.277  1.00  0.00    -0.274 OA
HETATM   22  H   UNL     1      15.962  51.958  47.802  1.00  0.00     0.169 HD
ENDBRANCH   1  18
TORSDOF 3
ENDMDL
MODEL 2
REMARK VINA RESULT:      -7.6      1.989      2.605
REMARK  3 active torsions:
REMARK  status: ('A' for Active; 'I' for Inactive)
REMARK       I    between atoms: C_2  and  N_3 
REMARK    1  A    between atoms: N_3  and  C_4 
REMARK    2  A    between atoms: C_7  and  C_8 
REMARK       I    between atoms: C_8  and  N_9 
REMARK    3  A    between atoms: N_9  and  C_10 
ROOT
HETATM    1  C   UNL     1      18.604  51.639  49.530  1.00  0.00     0.034 A 
HETATM    2  C   UNL     1      19.562  52.110  48.628  1.00  0.00     0.030 A 
HETATM    3  C   UNL     1      20.714  51.361  48.346  1.00  0.00     0.019 A 
HETATM    4  C   UNL     1      20.916  50.117  48.954  1.00  0.00     0.032 A 
HETATM    5  C   UNL     1      19.968  49.657  49.876  1.00  0.00     0.019 A 
HETATM    6  C   UNL     1      18.825  50.411  50.161  1.00  0.00     0.030 A 
ENDROOT
BRANCH   4   7
HETATM    7  C   UNL     1      22.105  49.247  48.681  1.00  0.00     0.257 C 
HETATM    8  N   UNL     1      22.631  48.586  49.774  1.00  0.00    -0.307 N 
HETATM    9  H   UNL     1      22.204  48.718  50.674  1.00  0.00     0.170 HD
HETATM   10  O   UNL     1      22.523  49.208  47.529  1.00  0.00    -0.267 OA
BRANCH   8  11
HETATM   11  C   UNL     1      23.784  47.785  49.757  1.00  0.00     0.130 A 
HETATM   12  N   UNL     1      24.992  48.298  50.051  1.00  0.00    -0.242 NA
HETATM   13  C   UNL     1      26.060  47.466  50.047  1.00  0.00     0.142 A 
HETATM   14  C   UNL     1      25.980  46.117  49.750  1.00  0.00     0.051 A 
HETATM   15 CL   UNL     1      27.374  45.119  49.765  1.00  0.00    -0.083 Cl
HETATM   16  C   UNL     1      24.734  45.593  49.439  1.00  0.00     0.029 A 
HETATM   17  C   UNL     1      23.620  46.435  49.448  1.00  0.00     0.052 A 
ENDBRANCH   8  11
ENDBRANCH   4   7
BRANCH   1  18
HETATM   18  N   UNL     1      17.419  52.327  49.856  1.00  0.00    -0.328 N 
HETATM   19  C   UNL     1      16.131  52.021  49.455  1.00  0.00     0.218 C 
HETATM   20  C   UNL     1      15.101  52.978  50.005  1.00  0.00     0.117 C 
HETATM   21  O   UNL     1      15.786  51.076  48.753  1.00  0.00    -0.274 OA
HETATM   22  H   UNL     1      17.527  53.121  50.474  1.00  0.00     0.169 HD
ENDBRANCH   1  18
TORSDOF 3
ENDMDL
MODEL 3
REMARK VINA RESULT:      -7.5      6.422     11.475
REMARK  3 active torsions:
REMARK  status: ('A' for Active; 'I' for Inactive)
REMARK       I    between atoms: C_2  and  N_3 
REMARK    1  A    between atoms: N_3  and  C_4 
REMARK    2  A    between atoms: C_7  and  C_8 
REMARK       I    between atoms: C_8  and  N_9 
REMARK    3  A    between atoms: N_9  and  C_10 
ROOT
HETATM    1  C   UNL     1      29.018  45.271  55.449  1.00  0.00     0.034 A 
HETATM    2  C   UNL     1      28.322  44.422  54.586  1.00  0.00     0.030 A 
HETATM    3  C   UNL     1      27.286  44.911  53.778  1.00  0.00     0.019 A 
HETATM    4  C   UNL     1      26.941  46.267  53.810  1.00  0.00     0.032 A 
HETATM    5  C   UNL     1      27.624  47.113  54.693  1.00  0.00     0.019 A 
HETATM    6  C   UNL     1      28.650  46.620  55.504  1.00  0.00     0.030 A 
ENDROOT
BRANCH   4   7
HETATM    7  C   UNL     1      25.868  46.868  52.955  1.00  0.00     0.257 C 
HETATM    8  N   UNL     1      25.662  46.261  51.731  1.00  0.00    -0.307 N 
HETATM    9  H   UNL     1      26.228  45.469  51.480  1.00  0.00     0.170 HD
HETATM   10  O   UNL     1      25.281  47.850  53.394  1.00  0.00    -0.267 OA
BRANCH   8  11
HETATM   11  C   UNL     1      24.764  46.706  50.747  1.00  0.00     0.130 A 
HETATM   12  N   UNL     1      24.612  48.017  50.488  1.00  0.00    -0.242 NA
HETATM   13  C   UNL     1      23.752  48.380  49.506  1.00  0.00     0.142 A 
HETATM   14  C   UNL     1      23.015  47.478  48.760  1.00  0.00     0.051 A 
HETATM   15 CL   UNL     1      21.945  48.006  47.530  1.00  0.00    -0.083 Cl
HETATM   16  C   UNL     1      23.169  46.127  49.037  1.00  0.00     0.029 A 
HETATM   17  C   UNL     1      24.058  45.735  50.039  1.00  0.00     0.052 A 
ENDBRANCH   8  11
ENDBRANCH   4   7
BRANCH   1  18
HETATM   18  N   UNL     1      30.076  44.858  56.283  1.00  0.00    -0.328 N 
HETATM   19  C   UNL     1      30.902  43.762  56.114  1.00  0.00     0.218 C 
HETATM   20  C   UNL     1      31.937  43.631  57.206  1.00  0.00     0.117 C 
HETATM   21  O   UNL     1      30.874  42.958  55.188  1.00  0.00    -0.274 OA
HETATM   22  H   UNL     1      30.262  45.450  57.083  1.00  0.00     0.169 HD
ENDBRANCH   1  18
TORSDOF 3
ENDMDL
MODEL 4
REMARK VINA RESULT:      -7.4      6.309     11.516
REMARK  3 active torsions:
REMARK  status: ('A' for Active; 'I' for Inactive)
REMARK       I    between atoms: C_2  and  N_3 
REMARK    1  A    between atoms: N_3  and  C_4 
REMARK    2  A    between atoms: C_7  and  C_8 
REMARK       I    between atoms: C_8  and  N_9 
REMARK    3  A    between atoms: N_9  and  C_10 
ROOT
HETATM    1  C   UNL     1      29.049  43.625  54.230  1.00  0.00     0.034 A 
HETATM    2  C   UNL     1      29.135  43.204  52.901  1.00  0.00     0.030 A 
HETATM    3  C   UNL     1      28.271  43.723  51.926  1.00  0.00     0.019 A 
HETATM    4  C   UNL     1      27.316  44.688  52.266  1.00  0.00     0.032 A 
HETATM    5  C   UNL     1      27.214  45.091  53.603  1.00  0.00     0.019 A 
HETATM    6  C   UNL     1      28.071  44.565  54.575  1.00  0.00     0.030 A 
ENDROOT
BRANCH   4   7
HETATM    7  C   UNL     1      26.380  45.310  51.275  1.00  0.00     0.257 C 
HETATM    8  N   UNL     1      26.494  46.678  51.115  1.00  0.00    -0.307 N 
HETATM    9  H   UNL     1      27.179  47.175  51.657  1.00  0.00     0.170 HD
HETATM   10  O   UNL     1      25.583  44.570  50.710  1.00  0.00    -0.267 OA
BRANCH   8  11
HETATM   11  C   UNL     1      25.669  47.469  50.300  1.00  0.00     0.130 A 
HETATM   12  N   UNL     1      24.333  47.310  50.301  1.00  0.00    -0.242 NA
HETATM   13  C   UNL     1      23.591  48.125  49.515  1.00  0.00     0.142 A 
HETATM   14  C   UNL     1      24.130  49.108  48.704  1.00  0.00     0.051 A 
HETATM   15 CL   UNL     1      23.131  50.108  47.734  1.00  0.00    -0.083 Cl
HETATM   16  C   UNL     1      25.508  49.263  48.699  1.00  0.00     0.029 A 
HETATM   17  C   UNL     1      26.289  48.437  49.511  1.00  0.00     0.052 A 
ENDBRANCH   8  11
ENDBRANCH   4   7
BRANCH   1  18
HETATM   18  N   UNL     1      29.887  43.159  55.264  1.00  0.00    -0.328 N 
HETATM   19  C   UNL     1      30.729  43.907  56.065  1.00  0.00     0.218 C 
HETATM   20  C   UNL     1      31.474  43.071  57.077  1.00  0.00     0.117 C 
HETATM   21  O   UNL     1      30.885  45.124  56.033  1.00  0.00    -0.274 OA
HETATM   22  H   UNL     1      29.843  42.166  55.450  1.00  0.00     0.169 HD
ENDBRANCH   1  18
TORSDOF 3
ENDMDL
MODEL 5
REMARK VINA RESULT:      -7.4      7.023     12.022
REMARK  3 active torsions:
REMARK  status: ('A' for Active; 'I' for Inactive)
REMARK       I    between atoms: C_2  and  N_3 
REMARK    1  A    between atoms: N_3  and  C_4 
REMARK    2  A    between atoms: C_7  and  C_8 
REMARK       I    between atoms: C_8  and  N_9 
REMARK    3  A    between atoms: N_9  and  C_10 
ROOT
HETATM    1  C   UNL     1      29.529  43.367  54.232  1.00  0.00     0.034 A 
HETATM    2  C   UNL     1      29.845  42.974  52.930  1.00  0.00     0.030 A 
HETATM    3  C   UNL     1      29.032  43.349  51.849  1.00  0.00     0.019 A 
HETATM    4  C   UNL     1      27.897  44.140  52.057  1.00  0.00     0.032 A 
HETATM    5  C   UNL     1      27.568  44.512  53.367  1.00  0.00     0.019 A 
HETATM    6  C   UNL     1      28.375  44.129  54.442  1.00  0.00     0.030 A 
ENDROOT
BRANCH   4   7
HETATM    7  C   UNL     1      26.999  44.605  50.952  1.00  0.00     0.257 C 
HETATM    8  N   UNL     1      25.944  45.413  51.332  1.00  0.00    -0.307 N 
HETATM    9  H   UNL     1      25.833  45.642  52.305  1.00  0.00     0.170 HD
HETATM   10  O   UNL     1      27.255  44.219  49.817  1.00  0.00    -0.267 OA
BRANCH   8  11
HETATM   11  C   UNL     1      24.944  45.895  50.473  1.00  0.00     0.130 A 
HETATM   12  N   UNL     1      24.127  45.052  49.816  1.00  0.00    -0.242 NA
HETATM   13  C   UNL     1      23.162  45.581  49.026  1.00  0.00     0.142 A 
HETATM   14  C   UNL     1      22.974  46.940  48.851  1.00  0.00     0.051 A 
HETATM   15 CL   UNL     1      21.730  47.543  47.837  1.00  0.00    -0.083 Cl
HETATM   16  C   UNL     1      23.824  47.806  49.524  1.00  0.00     0.029 A 
HETATM   17  C   UNL     1      24.819  47.278  50.350  1.00  0.00     0.052 A 
ENDBRANCH   8  11
ENDBRANCH   4   7
BRANCH   1  18
HETATM   18  N   UNL     1      30.299  43.039  55.366  1.00  0.00    -0.328 N 
HETATM   19  C   UNL     1      31.003  43.905  56.183  1.00  0.00     0.218 C 
HETATM   20  C   UNL     1      31.712  43.200  57.314  1.00  0.00     0.117 C 
HETATM   21  O   UNL     1      31.066  45.125  56.078  1.00  0.00    -0.274 OA
HETATM   22  H   UNL     1      30.316  42.060  55.618  1.00  0.00     0.169 HD
ENDBRANCH   1  18
TORSDOF 3
ENDMDL
MODEL 6
REMARK VINA RESULT:      -7.2     12.232     13.825
REMARK  3 active torsions:
REMARK  status: ('A' for Active; 'I' for Inactive)
REMARK       I    between atoms: C_2  and  N_3 
REMARK    1  A    between atoms: N_3  and  C_4 
REMARK    2  A    between atoms: C_7  and  C_8 
REMARK       I    between atoms: C_8  and  N_9 
REMARK    3  A    between atoms: N_9  and  C_10 
ROOT
HETATM    1  C   UNL     1      29.407  44.241  55.077  1.00  0.00     0.034 A 
HETATM    2  C   UNL     1      30.323  43.411  54.427  1.00  0.00     0.030 A 
HETATM    3  C   UNL     1      29.910  42.556  53.394  1.00  0.00     0.019 A 
HETATM    4  C   UNL     1      28.572  42.533  52.985  1.00  0.00     0.032 A 
HETATM    5  C   UNL     1      27.650  43.348  53.655  1.00  0.00     0.019 A 
HETATM    6  C   UNL     1      28.064  44.193  54.690  1.00  0.00     0.030 A 
ENDROOT
BRANCH   4   7
HETATM    7  C   UNL     1      28.061  41.671  51.871  1.00  0.00     0.257 C 
HETATM    8  N   UNL     1      28.992  40.839  51.279  1.00  0.00    -0.307 N 
HETATM    9  H   UNL     1      29.940  40.854  51.614  1.00  0.00     0.170 HD
HETATM   10  O   UNL     1      26.880  41.786  51.564  1.00  0.00    -0.267 OA
BRANCH   8  11
HETATM   11  C   UNL     1      28.748  40.008  50.174  1.00  0.00     0.130 A 
HETATM   12  N   UNL     1      28.267  40.508  49.021  1.00  0.00    -0.242 NA
HETATM   13  C   UNL     1      28.081  39.659  47.983  1.00  0.00     0.142 A 
HETATM   14  C   UNL     1      28.352  38.304  48.043  1.00  0.00     0.051 A 
HETATM   15 CL   UNL     1      28.096  37.285  46.688  1.00  0.00    -0.083 Cl
HETATM   16  C   UNL     1      28.840  37.791  49.235  1.00  0.00     0.029 A 
HETATM   17  C   UNL     1      29.046  38.653  50.314  1.00  0.00     0.052 A 
ENDBRANCH   8  11
ENDBRANCH   4   7
BRANCH   1  18
HETATM   18  N   UNL     1      29.746  45.133  56.114  1.00  0.00    -0.328 N 
HETATM   19  C   UNL     1      30.564  44.887  57.202  1.00  0.00     0.218 C 
HETATM   20  C   UNL     1      30.708  46.082  58.112  1.00  0.00     0.117 C 
HETATM   21  O   UNL     1      31.161  43.845  57.450  1.00  0.00    -0.274 OA
HETATM   22  H   UNL     1      29.362  46.066  56.035  1.00  0.00     0.169 HD
ENDBRANCH   1  18
TORSDOF 3
ENDMDL
MODEL 7
REMARK VINA RESULT:      -7.1      4.487      9.209
REMARK  3 active torsions:
REMARK  status: ('A' for Active; 'I' for Inactive)
REMARK       I    between atoms: C_2  and  N_3 
REMARK    1  A    between atoms: N_3  and  C_4 
REMARK    2  A    between atoms: C_7  and  C_8 
REMARK       I    between atoms: C_8  and  N_9 
REMARK    3  A    between atoms: N_9  and  C_10 
ROOT
HETATM    1  C   UNL     1      20.866  50.254  49.518  1.00  0.00     0.034 A 
HETATM    2  C   UNL     1      20.820  51.392  48.709  1.00  0.00     0.030 A 
HETATM    3  C   UNL     1      19.620  52.094  48.522  1.00  0.00     0.019 A 
HETATM    4  C   UNL     1      18.447  51.674  49.160  1.00  0.00     0.032 A 
HETATM    5  C   UNL     1      18.489  50.519  49.951  1.00  0.00     0.019 A 
HETATM    6  C   UNL     1      19.685  49.817  50.127  1.00  0.00     0.030 A 
ENDROOT
BRANCH   4   7
HETATM    7  C   UNL     1      17.136  52.388  49.033  1.00  0.00     0.257 C 
HETATM    8  N   UNL     1      16.711  53.070  50.157  1.00  0.00    -0.307 N 
HETATM    9  H   UNL     1      17.286  53.054  50.982  1.00  0.00     0.170 HD
HETATM   10  O   UNL     1      16.543  52.293  47.965  1.00  0.00    -0.267 OA
BRANCH   8  11
HETATM   11  C   UNL     1      15.484  53.740  50.281  1.00  0.00     0.130 A 
HETATM   12  N   UNL     1      14.336  53.061  50.459  1.00  0.00    -0.242 NA
HETATM   13  C   UNL     1      13.190  53.767  50.602  1.00  0.00     0.142 A 
HETATM   14  C   UNL     1      13.130  55.148  50.568  1.00  0.00     0.051 A 
HETATM   15 CL   UNL     1      11.643  55.979  50.759  1.00  0.00    -0.083 Cl
HETATM   16  C   UNL     1      14.314  55.845  50.377  1.00  0.00     0.029 A 
HETATM   17  C   UNL     1      15.508  55.134  50.237  1.00  0.00     0.052 A 
ENDBRANCH   8  11
ENDBRANCH   4   7
BRANCH   1  18
HETATM   18  N   UNL     1      22.032  49.503  49.762  1.00  0.00    -0.328 N 
HETATM   19  C   UNL     1      22.745  48.737  48.857  1.00  0.00     0.218 C 
HETATM   20  C   UNL     1      23.953  48.073  49.471  1.00  0.00     0.117 C 
HETATM   21  O   UNL     1      22.497  48.591  47.665  1.00  0.00    -0.274 OA
HETATM   22  H   UNL     1      22.398  49.553  50.704  1.00  0.00     0.169 HD
ENDBRANCH   1  18
TORSDOF 3
ENDMDL
MODEL 8
REMARK VINA RESULT:      -7.0      2.458      3.394
REMARK  3 active torsions:
REMARK  status: ('A' for Active; 'I' for Inactive)
REMARK       I    between atoms: C_2  and  N_3 
REMARK    1  A    between atoms: N_3  and  C_4 
REMARK    2  A    between atoms: C_7  and  C_8 
REMARK       I    between atoms: C_8  and  N_9 
REMARK    3  A    between atoms: N_9  and  C_10 
ROOT
HETATM    1  C   UNL     1      19.673  50.630  48.393  1.00  0.00     0.034 A 
HETATM    2  C   UNL     1      20.799  51.442  48.546  1.00  0.00     0.030 A 
HETATM    3  C   UNL     1      22.045  50.887  48.873  1.00  0.00     0.019 A 
HETATM    4  C   UNL     1      22.185  49.504  49.035  1.00  0.00     0.032 A 
HETATM    5  C   UNL     1      21.050  48.694  48.906  1.00  0.00     0.019 A 
HETATM    6  C   UNL     1      19.807  49.252  48.589  1.00  0.00     0.030 A 
ENDROOT
BRANCH   4   7
HETATM    7  C   UNL     1      23.488  48.837  49.355  1.00  0.00     0.257 C 
HETATM    8  N   UNL     1      23.398  47.569  49.897  1.00  0.00    -0.307 N 
HETATM    9  H   UNL     1      22.488  47.169  50.049  1.00  0.00     0.170 HD
HETATM   10  O   UNL     1      24.515  49.468  49.132  1.00  0.00    -0.267 OA
BRANCH   8  11
HETATM   11  C   UNL     1      24.485  46.799  50.339  1.00  0.00     0.130 A 
HETATM   12  N   UNL     1      25.083  47.051  51.517  1.00  0.00    -0.242 NA
HETATM   13  C   UNL     1      26.108  46.252  51.899  1.00  0.00     0.142 A 
HETATM   14  C   UNL     1      26.580  45.195  51.142  1.00  0.00     0.051 A 
HETATM   15 CL   UNL     1      27.881  44.222  51.688  1.00  0.00    -0.083 Cl
HETATM   16  C   UNL     1      25.967  44.944  49.923  1.00  0.00     0.029 A 
HETATM   17  C   UNL     1      24.902  45.752  49.518  1.00  0.00     0.052 A 
ENDBRANCH   8  11
ENDBRANCH   4   7
BRANCH   1  18
HETATM   18  N   UNL     1      18.391  51.110  48.056  1.00  0.00    -0.328 N 
HETATM   19  C   UNL     1      17.359  51.430  48.918  1.00  0.00     0.218 C 
HETATM   20  C   UNL     1      16.125  51.922  48.202  1.00  0.00     0.117 C 
HETATM   21  O   UNL     1      17.381  51.372  50.143  1.00  0.00    -0.274 OA
HETATM   22  H   UNL     1      18.223  51.257  47.069  1.00  0.00     0.169 HD
ENDBRANCH   1  18
TORSDOF 3
ENDMDL
MODEL 9
REMARK VINA RESULT:      -6.9      3.227      4.960
REMARK  3 active torsions:
REMARK  status: ('A' for Active; 'I' for Inactive)
REMARK       I    between atoms: C_2  and  N_3 
REMARK    1  A    between atoms: N_3  and  C_4 
REMARK    2  A    between atoms: C_7  and  C_8 
REMARK       I    between atoms: C_8  and  N_9 
REMARK    3  A    between atoms: N_9  and  C_10 
ROOT
HETATM    1  C   UNL     1      21.770  50.273  48.467  1.00  0.00     0.034 A 
HETATM    2  C   UNL     1      21.578  48.922  48.763  1.00  0.00     0.030 A 
HETATM    3  C   UNL     1      22.659  48.105  49.126  1.00  0.00     0.019 A 
HETATM    4  C   UNL     1      23.950  48.637  49.216  1.00  0.00     0.032 A 
HETATM    5  C   UNL     1      24.145  49.986  48.895  1.00  0.00     0.019 A 
HETATM    6  C   UNL     1      23.067  50.795  48.524  1.00  0.00     0.030 A 
ENDROOT
BRANCH   4   7
HETATM    7  C   UNL     1      25.148  47.835  49.626  1.00  0.00     0.257 C 
HETATM    8  N   UNL     1      24.883  46.602  50.189  1.00  0.00    -0.307 N 
HETATM    9  H   UNL     1      23.927  46.310  50.293  1.00  0.00     0.170 HD
HETATM   10  O   UNL     1      26.251  48.341  49.453  1.00  0.00    -0.267 OA
BRANCH   8  11
HETATM   11  C   UNL     1      25.849  45.726  50.710  1.00  0.00     0.130 A 
HETATM   12  N   UNL     1      26.582  44.940  49.902  1.00  0.00    -0.242 NA
HETATM   13  C   UNL     1      27.519  44.139  50.464  1.00  0.00     0.142 A 
HETATM   14  C   UNL     1      27.758  44.079  51.825  1.00  0.00     0.051 A 
HETATM   15 CL   UNL     1      28.962  43.043  52.471  1.00  0.00    -0.083 Cl
HETATM   16  C   UNL     1      26.994  44.885  52.656  1.00  0.00     0.029 A 
HETATM   17  C   UNL     1      26.030  45.724  52.092  1.00  0.00     0.052 A 
ENDBRANCH   8  11
ENDBRANCH   4   7
BRANCH   1  18
HETATM   18  N   UNL     1      20.735  51.159  48.105  1.00  0.00    -0.328 N 
HETATM   19  C   UNL     1      19.772  51.710  48.930  1.00  0.00     0.218 C 
HETATM   20  C   UNL     1      18.823  52.626  48.196  1.00  0.00     0.117 C 
HETATM   21  O   UNL     1      19.658  51.541  50.140  1.00  0.00    -0.274 OA
HETATM   22  H   UNL     1      20.715  51.437  47.132  1.00  0.00     0.169 HD
ENDBRANCH   1  18
TORSDOF 3
ENDMDL
MODEL 10
REMARK VINA RESULT:      -6.9      9.594     12.333
REMARK  3 active torsions:
REMARK  status: ('A' for Active; 'I' for Inactive)
REMARK       I    between atoms: C_2  and  N_3 
REMARK    1  A    between atoms: N_3  and  C_4 
REMARK    2  A    between atoms: C_7  and  C_8 
REMARK       I    between atoms: C_8  and  N_9 
REMARK    3  A    between atoms: N_9  and  C_10 
ROOT
HETATM    1  C   UNL     1      29.505  44.600  55.254  1.00  0.00     0.034 A 
HETATM    2  C   UNL     1      29.741  43.473  54.464  1.00  0.00     0.030 A 
HETATM    3  C   UNL     1      28.945  43.203  53.341  1.00  0.00     0.019 A 
HETATM    4  C   UNL     1      27.909  44.072  52.982  1.00  0.00     0.032 A 
HETATM    5  C   UNL     1      27.658  45.189  53.788  1.00  0.00     0.019 A 
HETATM    6  C   UNL     1      28.447  45.449  54.913  1.00  0.00     0.030 A 
ENDROOT
BRANCH   4   7
HETATM    7  C   UNL     1      27.037  43.867  51.780  1.00  0.00     0.257 C 
HETATM    8  N   UNL     1      26.009  42.956  51.930  1.00  0.00    -0.307 N 
HETATM    9  H   UNL     1      25.900  42.487  52.813  1.00  0.00     0.170 HD
HETATM   10  O   UNL     1      27.314  44.499  50.767  1.00  0.00    -0.267 OA
BRANCH   8  11
HETATM   11  C   UNL     1      25.126  42.558  50.914  1.00  0.00     0.130 A 
HETATM   12  N   UNL     1      23.898  43.099  50.810  1.00  0.00    -0.242 NA
HETATM   13  C   UNL     1      23.105  42.694  49.790  1.00  0.00     0.142 A 
HETATM   14  C   UNL     1      23.483  41.749  48.852  1.00  0.00     0.051 A 
HETATM   15 CL   UNL     1      22.429  41.284  47.584  1.00  0.00    -0.083 Cl
HETATM   16  C   UNL     1      24.746  41.188  48.969  1.00  0.00     0.029 A 
HETATM   17  C   UNL     1      25.581  41.600  50.009  1.00  0.00     0.052 A 
ENDBRANCH   8  11
ENDBRANCH   4   7
BRANCH   1  18
HETATM   18  N   UNL     1      30.266  44.944  56.389  1.00  0.00    -0.328 N 
HETATM   19  C   UNL     1      29.852  45.672  57.490  1.00  0.00     0.218 C 
HETATM   20  C   UNL     1      30.938  45.842  58.524  1.00  0.00     0.117 C 
HETATM   21  O   UNL     1      28.733  46.135  57.685  1.00  0.00    -0.274 OA
HETATM   22  H   UNL     1      31.215  44.595  56.404  1.00  0.00     0.169 HD
ENDBRANCH   1  18
TORSDOF 3
ENDMDL
