MODEL 1
REMARK VINA RESULT:      -9.6      0.000      0.000
REMARK  8 active torsions:
REMARK  status: ('A' for Active; 'I' for Inactive)
REMARK    1  A    between atoms: C_4  and  N_5 
REMARK    2  A    between atoms: C_7  and  C_8 
REMARK    3  A    between atoms: C_8  and  N_9 
REMARK       I    between atoms: N_9  and  C_10 
REMARK       I    between atoms: C_10  and  N_11 
REMARK    4  A    between atoms: N_11  and  C_12 
REMARK    5  A    between atoms: C_12  and  C_13 
REMARK    6  A    between atoms: C_13  and  N_14 
REMARK       I    between atoms: N_14  and  C_15 
REMARK    7  A    between atoms: C_15  and  C_16 
REMARK    8  A    between atoms: C_17  and  O_18 
ROOT
HETATM    1  N   UNL     1      26.461  44.202  51.358  1.00  0.00    -0.337 N 
HETATM    2  C   UNL     1      25.239  44.762  51.147  1.00  0.00     0.316 C 
HETATM    3  N   UNL     1      25.235  45.582  50.053  1.00  0.00    -0.342 N 
HETATM    4  O   UNL     1      24.263  44.559  51.857  1.00  0.00    -0.248 OA
HETATM    5  H   UNL     1      27.116  44.152  50.590  1.00  0.00     0.164 HD
HETATM    6  H   UNL     1      26.127  45.954  49.763  1.00  0.00     0.164 HD
ENDROOT
BRANCH   1   7
HETATM    7  C   UNL     1      26.626  43.176  52.364  1.00  0.00     0.185 C 
BRANCH   7   8
HETATM    8  C   UNL     1      28.000  43.250  52.959  1.00  0.00     0.074 A 
HETATM    9  N   UNL     1      28.219  43.770  54.178  1.00  0.00    -0.171 NA
HETATM   10  N   UNL     1      29.559  43.647  54.382  1.00  0.00    -0.245 N 
HETATM   11  C   UNL     1      30.179  43.101  53.279  1.00  0.00     0.121 A 
HETATM   12  C   UNL     1      29.201  42.829  52.354  1.00  0.00     0.050 A 
BRANCH  10  13
HETATM   13  C   UNL     1      30.152  44.050  55.612  1.00  0.00     0.058 A 
HETATM   14  C   UNL     1      29.772  45.269  56.196  1.00  0.00     0.031 A 
HETATM   15  C   UNL     1      30.332  45.675  57.409  1.00  0.00     0.002 A 
HETATM   16  C   UNL     1      31.275  44.872  58.046  1.00  0.00     0.000 A 
HETATM   17  C   UNL     1      31.661  43.662  57.473  1.00  0.00     0.002 A 
HETATM   18  C   UNL     1      31.103  43.248  56.259  1.00  0.00     0.031 A 
ENDBRANCH  10  13
ENDBRANCH   7   8
ENDBRANCH   1   7
BRANCH   3  19
HETATM   19  C   UNL     1      24.053  46.351  49.700  1.00  0.00     0.144 C 
BRANCH  19  20
HETATM   20  C   UNL     1      24.330  47.859  49.654  1.00  0.00     0.142 C 
BRANCH  20  21
HETATM   21  N   UNL     1      23.107  48.654  49.647  1.00  0.00    -0.355 N 
HETATM   22  C   UNL     1      22.813  49.496  48.597  1.00  0.00     0.254 C 
HETATM   23  O   UNL     1      23.557  49.635  47.627  1.00  0.00    -0.268 OA
HETATM   24  H   UNL     1      22.416  48.438  50.349  1.00  0.00     0.162 HD
BRANCH  22  25
HETATM   25  C   UNL     1      21.524  50.245  48.632  1.00  0.00     0.065 A 
HETATM   26  C   UNL     1      21.130  50.880  49.822  1.00  0.00     0.081 A 
HETATM   27  C   UNL     1      19.933  51.591  49.891  1.00  0.00     0.037 A 
HETATM   28  C   UNL     1      19.103  51.664  48.774  1.00  0.00     0.003 A 
HETATM   29  C   UNL     1      19.469  51.022  47.593  1.00  0.00     0.001 A 
HETATM   30  C   UNL     1      20.672  50.311  47.519  1.00  0.00     0.020 A 
BRANCH  26  31
HETATM   31  O   UNL     1      21.871  50.846  50.975  1.00  0.00    -0.360 OA
HETATM   32  H   UNL     1      22.323  51.717  51.067  1.00  0.00     0.217 HD
ENDBRANCH  26  31
ENDBRANCH  22  25
ENDBRANCH  20  21
ENDBRANCH  19  20
ENDBRANCH   3  19
TORSDOF 8
ENDMDL
MODEL 2
REMARK VINA RESULT:      -9.5     11.868     14.358
REMARK  8 active torsions:
REMARK  status: ('A' for Active; 'I' for Inactive)
REMARK    1  A    between atoms: C_4  and  N_5 
REMARK    2  A    between atoms: C_7  and  C_8 
REMARK    3  A    between atoms: C_8  and  N_9 
REMARK       I    between atoms: N_9  and  C_10 
REMARK       I    between atoms: C_10  and  N_11 
REMARK    4  A    between atoms: N_11  and  C_12 
REMARK    5  A    between atoms: C_12  and  C_13 
REMARK    6  A    between atoms: C_13  and  N_14 
REMARK       I    between atoms: N_14  and  C_15 
REMARK    7  A    between atoms: C_15  and  C_16 
REMARK    8  A    between atoms: C_17  and  O_18 
ROOT
HETATM    1  N   UNL     1      27.767  52.006  38.899  1.00  0.00    -0.337 N 
HETATM    2  C   UNL     1      27.313  50.741  38.682  1.00  0.00     0.316 C 
HETATM    3  N   UNL     1      26.170  50.482  39.386  1.00  0.00    -0.342 N 
HETATM    4  O   UNL     1      27.867  49.933  37.949  1.00  0.00    -0.248 OA
HETATM    5  H   UNL     1      27.124  52.705  39.245  1.00  0.00     0.164 HD
HETATM    6  H   UNL     1      26.001  51.051  40.201  1.00  0.00     0.164 HD
ENDROOT
BRANCH   1   7
HETATM    7  C   UNL     1      28.866  52.527  38.118  1.00  0.00     0.185 C 
BRANCH   7   8
HETATM    8  C   UNL     1      30.174  52.104  38.716  1.00  0.00     0.074 A 
HETATM    9  N   UNL     1      30.461  52.305  40.012  1.00  0.00    -0.171 NA
HETATM   10  N   UNL     1      31.704  51.780  40.188  1.00  0.00    -0.245 N 
HETATM   11  C   UNL     1      32.211  51.300  38.999  1.00  0.00     0.121 A 
HETATM   12  C   UNL     1      31.247  51.488  38.039  1.00  0.00     0.050 A 
BRANCH  10  13
HETATM   13  C   UNL     1      32.318  51.765  41.472  1.00  0.00     0.058 A 
HETATM   14  C   UNL     1      31.549  52.056  42.609  1.00  0.00     0.031 A 
HETATM   15  C   UNL     1      32.129  52.033  43.879  1.00  0.00     0.002 A 
HETATM   16  C   UNL     1      33.479  51.722  44.024  1.00  0.00     0.000 A 
HETATM   17  C   UNL     1      34.252  51.434  42.901  1.00  0.00     0.002 A 
HETATM   18  C   UNL     1      33.677  51.453  41.626  1.00  0.00     0.031 A 
ENDBRANCH  10  13
ENDBRANCH   7   8
ENDBRANCH   1   7
BRANCH   3  19
HETATM   19  C   UNL     1      25.566  49.159  39.368  1.00  0.00     0.144 C 
BRANCH  19  20
HETATM   20  C   UNL     1      25.997  48.304  40.566  1.00  0.00     0.142 C 
BRANCH  20  21
HETATM   21  N   UNL     1      27.440  48.094  40.615  1.00  0.00    -0.355 N 
HETATM   22  C   UNL     1      28.253  48.914  41.366  1.00  0.00     0.254 C 
HETATM   23  O   UNL     1      27.820  49.863  42.017  1.00  0.00    -0.268 OA
HETATM   24  H   UNL     1      27.791  47.235  40.218  1.00  0.00     0.162 HD
BRANCH  22  25
HETATM   25  C   UNL     1      29.713  48.615  41.407  1.00  0.00     0.065 A 
HETATM   26  C   UNL     1      30.370  48.232  40.226  1.00  0.00     0.081 A 
HETATM   27  C   UNL     1      31.735  47.947  40.227  1.00  0.00     0.037 A 
HETATM   28  C   UNL     1      32.460  48.025  41.413  1.00  0.00     0.003 A 
HETATM   29  C   UNL     1      31.819  48.383  42.598  1.00  0.00     0.001 A 
HETATM   30  C   UNL     1      30.451  48.673  42.600  1.00  0.00     0.020 A 
BRANCH  26  31
HETATM   31  O   UNL     1      29.735  48.110  39.016  1.00  0.00    -0.360 OA
HETATM   32  H   UNL     1      29.185  48.916  38.884  1.00  0.00     0.217 HD
ENDBRANCH  26  31
ENDBRANCH  22  25
ENDBRANCH  20  21
ENDBRANCH  19  20
ENDBRANCH   3  19
TORSDOF 8
ENDMDL
MODEL 3
REMARK VINA RESULT:      -9.5      3.789      5.485
REMARK  8 active torsions:
REMARK  status: ('A' for Active; 'I' for Inactive)
REMARK    1  A    between atoms: C_4  and  N_5 
REMARK    2  A    between atoms: C_7  and  C_8 
REMARK    3  A    between atoms: C_8  and  N_9 
REMARK       I    between atoms: N_9  and  C_10 
REMARK       I    between atoms: C_10  and  N_11 
REMARK    4  A    between atoms: N_11  and  C_12 
REMARK    5  A    between atoms: C_12  and  C_13 
REMARK    6  A    between atoms: C_13  and  N_14 
REMARK       I    between atoms: N_14  and  C_15 
REMARK    7  A    between atoms: C_15  and  C_16 
REMARK    8  A    between atoms: C_17  and  O_18 
ROOT
HETATM    1  N   UNL     1      27.461  40.993  52.529  1.00  0.00    -0.337 N 
HETATM    2  C   UNL     1      27.309  40.982  51.176  1.00  0.00     0.316 C 
HETATM    3  N   UNL     1      25.991  40.966  50.811  1.00  0.00    -0.342 N 
HETATM    4  O   UNL     1      28.241  40.982  50.383  1.00  0.00    -0.248 OA
HETATM    5  H   UNL     1      26.692  41.305  53.106  1.00  0.00     0.164 HD
HETATM    6  H   UNL     1      25.336  40.616  51.495  1.00  0.00     0.164 HD
ENDROOT
BRANCH   1   7
HETATM    7  C   UNL     1      28.771  41.180  53.110  1.00  0.00     0.185 C 
BRANCH   7   8
HETATM    8  C   UNL     1      28.856  42.518  53.780  1.00  0.00     0.074 A 
HETATM    9  N   UNL     1      27.953  43.485  53.551  1.00  0.00    -0.171 NA
HETATM   10  N   UNL     1      28.339  44.527  54.338  1.00  0.00    -0.245 N 
HETATM   11  C   UNL     1      29.503  44.230  55.015  1.00  0.00     0.121 A 
HETATM   12  C   UNL     1      29.853  42.945  54.681  1.00  0.00     0.050 A 
BRANCH  10  13
HETATM   13  C   UNL     1      27.571  45.724  54.396  1.00  0.00     0.058 A 
HETATM   14  C   UNL     1      27.839  46.668  55.400  1.00  0.00     0.031 A 
HETATM   15  C   UNL     1      27.107  47.856  55.466  1.00  0.00     0.002 A 
HETATM   16  C   UNL     1      26.103  48.109  54.534  1.00  0.00     0.000 A 
HETATM   17  C   UNL     1      25.828  47.177  53.536  1.00  0.00     0.002 A 
HETATM   18  C   UNL     1      26.559  45.986  53.463  1.00  0.00     0.031 A 
ENDBRANCH  10  13
ENDBRANCH   7   8
ENDBRANCH   1   7
BRANCH   3  19
HETATM   19  C   UNL     1      25.604  40.862  49.413  1.00  0.00     0.144 C 
BRANCH  19  20
HETATM   20  C   UNL     1      24.414  41.766  49.069  1.00  0.00     0.142 C 
BRANCH  20  21
HETATM   21  N   UNL     1      24.782  43.175  48.995  1.00  0.00    -0.355 N 
HETATM   22  C   UNL     1      24.581  44.020  50.064  1.00  0.00     0.254 C 
HETATM   23  O   UNL     1      24.075  43.646  51.121  1.00  0.00    -0.268 OA
HETATM   24  H   UNL     1      25.337  43.463  48.202  1.00  0.00     0.162 HD
BRANCH  22  25
HETATM   25  C   UNL     1      25.023  45.438  49.936  1.00  0.00     0.065 A 
HETATM   26  C   UNL     1      26.388  45.721  49.760  1.00  0.00     0.081 A 
HETATM   27  C   UNL     1      26.835  47.035  49.633  1.00  0.00     0.037 A 
HETATM   28  C   UNL     1      25.927  48.088  49.698  1.00  0.00     0.003 A 
HETATM   29  C   UNL     1      24.572  47.826  49.894  1.00  0.00     0.001 A 
HETATM   30  C   UNL     1      24.118  46.509  50.017  1.00  0.00     0.020 A 
BRANCH  26  31
HETATM   31  O   UNL     1      27.356  44.752  49.703  1.00  0.00    -0.360 OA
HETATM   32  H   UNL     1      28.170  45.162  49.332  1.00  0.00     0.217 HD
ENDBRANCH  26  31
ENDBRANCH  22  25
ENDBRANCH  20  21
ENDBRANCH  19  20
ENDBRANCH   3  19
TORSDOF 8
ENDMDL
MODEL 4
REMARK VINA RESULT:      -9.4      1.499      1.977
REMARK  8 active torsions:
REMARK  status: ('A' for Active; 'I' for Inactive)
REMARK    1  A    between atoms: C_4  and  N_5 
REMARK    2  A    between atoms: C_7  and  C_8 
REMARK    3  A    between atoms: C_8  and  N_9 
REMARK       I    between atoms: N_9  and  C_10 
REMARK       I    between atoms: C_10  and  N_11 
REMARK    4  A    between atoms: N_11  and  C_12 
REMARK    5  A    between atoms: C_12  and  C_13 
REMARK    6  A    between atoms: C_13  and  N_14 
REMARK       I    between atoms: N_14  and  C_15 
REMARK    7  A    between atoms: C_15  and  C_16 
REMARK    8  A    between atoms: C_17  and  O_18 
ROOT
HETATM    1  N   UNL     1      24.963  44.313  51.376  1.00  0.00    -0.337 N 
HETATM    2  C   UNL     1      24.927  45.166  50.316  1.00  0.00     0.316 C 
HETATM    3  N   UNL     1      23.725  45.811  50.220  1.00  0.00    -0.342 N 
HETATM    4  O   UNL     1      25.858  45.330  49.539  1.00  0.00    -0.248 OA
HETATM    5  H   UNL     1      24.312  44.452  52.137  1.00  0.00     0.164 HD
HETATM    6  H   UNL     1      22.935  45.365  50.662  1.00  0.00     0.164 HD
ENDROOT
BRANCH   1   7
HETATM    7  C   UNL     1      26.201  43.666  51.745  1.00  0.00     0.185 C 
BRANCH   7   8
HETATM    8  C   UNL     1      26.862  44.410  52.866  1.00  0.00     0.074 A 
HETATM    9  N   UNL     1      27.852  43.867  53.593  1.00  0.00    -0.171 NA
HETATM   10  N   UNL     1      28.208  44.830  54.487  1.00  0.00    -0.245 N 
HETATM   11  C   UNL     1      27.411  45.948  54.352  1.00  0.00     0.121 A 
HETATM   12  C   UNL     1      26.544  45.708  53.315  1.00  0.00     0.050 A 
BRANCH  10  13
HETATM   13  C   UNL     1      29.282  44.624  55.398  1.00  0.00     0.058 A 
HETATM   14  C   UNL     1      30.112  43.502  55.243  1.00  0.00     0.031 A 
HETATM   15  C   UNL     1      31.180  43.289  56.118  1.00  0.00     0.002 A 
HETATM   16  C   UNL     1      31.425  44.189  57.153  1.00  0.00     0.000 A 
HETATM   17  C   UNL     1      30.604  45.303  57.316  1.00  0.00     0.002 A 
HETATM   18  C   UNL     1      29.534  45.524  56.442  1.00  0.00     0.031 A 
ENDBRANCH  10  13
ENDBRANCH   7   8
ENDBRANCH   1   7
BRANCH   3  19
HETATM   19  C   UNL     1      23.441  46.701  49.105  1.00  0.00     0.144 C 
BRANCH  19  20
HETATM   20  C   UNL     1      23.774  48.163  49.426  1.00  0.00     0.142 C 
BRANCH  20  21
HETATM   21  N   UNL     1      22.583  48.969  49.672  1.00  0.00    -0.355 N 
HETATM   22  C   UNL     1      21.901  49.564  48.634  1.00  0.00     0.254 C 
HETATM   23  O   UNL     1      22.257  49.466  47.461  1.00  0.00    -0.268 OA
HETATM   24  H   UNL     1      22.189  48.932  50.601  1.00  0.00     0.162 HD
BRANCH  22  25
HETATM   25  C   UNL     1      20.666  50.336  48.952  1.00  0.00     0.065 A 
HETATM   26  C   UNL     1      19.689  49.760  49.783  1.00  0.00     0.081 A 
HETATM   27  C   UNL     1      18.524  50.454  50.103  1.00  0.00     0.037 A 
HETATM   28  C   UNL     1      18.309  51.729  49.585  1.00  0.00     0.003 A 
HETATM   29  C   UNL     1      19.258  52.306  48.742  1.00  0.00     0.001 A 
HETATM   30  C   UNL     1      20.431  51.615  48.422  1.00  0.00     0.020 A 
BRANCH  26  31
HETATM   31  O   UNL     1      19.805  48.505  50.322  1.00  0.00    -0.360 OA
HETATM   32  H   UNL     1      20.758  48.258  50.306  1.00  0.00     0.217 HD
ENDBRANCH  26  31
ENDBRANCH  22  25
ENDBRANCH  20  21
ENDBRANCH  19  20
ENDBRANCH   3  19
TORSDOF 8
ENDMDL
MODEL 5
REMARK VINA RESULT:      -9.2      4.358      5.211
REMARK  8 active torsions:
REMARK  status: ('A' for Active; 'I' for Inactive)
REMARK    1  A    between atoms: C_4  and  N_5 
REMARK    2  A    between atoms: C_7  and  C_8 
REMARK    3  A    between atoms: C_8  and  N_9 
REMARK       I    between atoms: N_9  and  C_10 
REMARK       I    between atoms: C_10  and  N_11 
REMARK    4  A    between atoms: N_11  and  C_12 
REMARK    5  A    between atoms: C_12  and  C_13 
REMARK    6  A    between atoms: C_13  and  N_14 
REMARK       I    between atoms: N_14  and  C_15 
REMARK    7  A    between atoms: C_15  and  C_16 
REMARK    8  A    between atoms: C_17  and  O_18 
ROOT
HETATM    1  N   UNL     1      27.265  40.728  52.074  1.00  0.00    -0.337 N 
HETATM    2  C   UNL     1      27.055  40.888  50.739  1.00  0.00     0.316 C 
HETATM    3  N   UNL     1      25.724  40.973  50.438  1.00  0.00    -0.342 N 
HETATM    4  O   UNL     1      27.952  40.942  49.908  1.00  0.00    -0.248 OA
HETATM    5  H   UNL     1      26.536  41.001  52.720  1.00  0.00     0.164 HD
HETATM    6  H   UNL     1      25.082  40.572  51.105  1.00  0.00     0.164 HD
ENDROOT
BRANCH   1   7
HETATM    7  C   UNL     1      28.605  40.786  52.610  1.00  0.00     0.185 C 
BRANCH   7   8
HETATM    8  C   UNL     1      28.859  42.127  53.230  1.00  0.00     0.074 A 
HETATM    9  N   UNL     1      29.397  42.253  54.454  1.00  0.00    -0.171 NA
HETATM   10  N   UNL     1      29.493  43.595  54.664  1.00  0.00    -0.245 N 
HETATM   11  C   UNL     1      28.971  44.300  53.601  1.00  0.00     0.121 A 
HETATM   12  C   UNL     1      28.563  43.384  52.664  1.00  0.00     0.050 A 
BRANCH  10  13
HETATM   13  C   UNL     1      30.080  44.110  55.855  1.00  0.00     0.058 A 
HETATM   14  C   UNL     1      29.609  45.320  56.389  1.00  0.00     0.031 A 
HETATM   15  C   UNL     1      30.162  45.835  57.564  1.00  0.00     0.002 A 
HETATM   16  C   UNL     1      31.187  45.149  58.212  1.00  0.00     0.000 A 
HETATM   17  C   UNL     1      31.662  43.949  57.688  1.00  0.00     0.002 A 
HETATM   18  C   UNL     1      31.112  43.426  56.512  1.00  0.00     0.031 A 
ENDBRANCH  10  13
ENDBRANCH   7   8
ENDBRANCH   1   7
BRANCH   3  19
HETATM   19  C   UNL     1      25.274  41.056  49.058  1.00  0.00     0.144 C 
BRANCH  19  20
HETATM   20  C   UNL     1      24.540  42.370  48.761  1.00  0.00     0.142 C 
BRANCH  20  21
HETATM   21  N   UNL     1      25.046  43.485  49.552  1.00  0.00    -0.355 N 
HETATM   22  C   UNL     1      24.443  43.847  50.737  1.00  0.00     0.254 C 
HETATM   23  O   UNL     1      23.453  43.270  51.183  1.00  0.00    -0.268 OA
HETATM   24  H   UNL     1      25.942  43.867  49.287  1.00  0.00     0.162 HD
BRANCH  22  25
HETATM   25  C   UNL     1      25.039  44.968  51.519  1.00  0.00     0.065 A 
HETATM   26  C   UNL     1      25.197  44.831  52.909  1.00  0.00     0.081 A 
HETATM   27  C   UNL     1      25.753  45.858  53.670  1.00  0.00     0.037 A 
HETATM   28  C   UNL     1      26.145  47.044  53.055  1.00  0.00     0.003 A 
HETATM   29  C   UNL     1      25.976  47.205  51.681  1.00  0.00     0.001 A 
HETATM   30  C   UNL     1      25.422  46.175  50.913  1.00  0.00     0.020 A 
BRANCH  26  31
HETATM   31  O   UNL     1      24.823  43.709  53.602  1.00  0.00    -0.360 OA
HETATM   32  H   UNL     1      24.049  43.314  53.138  1.00  0.00     0.217 HD
ENDBRANCH  26  31
ENDBRANCH  22  25
ENDBRANCH  20  21
ENDBRANCH  19  20
ENDBRANCH   3  19
TORSDOF 8
ENDMDL
MODEL 6
REMARK VINA RESULT:      -9.2      1.818      2.307
REMARK  8 active torsions:
REMARK  status: ('A' for Active; 'I' for Inactive)
REMARK    1  A    between atoms: C_4  and  N_5 
REMARK    2  A    between atoms: C_7  and  C_8 
REMARK    3  A    between atoms: C_8  and  N_9 
REMARK       I    between atoms: N_9  and  C_10 
REMARK       I    between atoms: C_10  and  N_11 
REMARK    4  A    between atoms: N_11  and  C_12 
REMARK    5  A    between atoms: C_12  and  C_13 
REMARK    6  A    between atoms: C_13  and  N_14 
REMARK       I    between atoms: N_14  and  C_15 
REMARK    7  A    between atoms: C_15  and  C_16 
REMARK    8  A    between atoms: C_17  and  O_18 
ROOT
HETATM    1  N   UNL     1      25.822  45.836  51.113  1.00  0.00    -0.337 N 
HETATM    2  C   UNL     1      26.561  46.357  50.096  1.00  0.00     0.316 C 
HETATM    3  N   UNL     1      26.633  47.721  50.163  1.00  0.00    -0.342 N 
HETATM    4  O   UNL     1      27.092  45.683  49.223  1.00  0.00    -0.248 OA
HETATM    5  H   UNL     1      25.683  46.387  51.949  1.00  0.00     0.164 HD
HETATM    6  H   UNL     1      25.901  48.188  50.677  1.00  0.00     0.164 HD
ENDROOT
BRANCH   1   7
HETATM    7  C   UNL     1      25.768  44.405  51.312  1.00  0.00     0.185 C 
BRANCH   7   8
HETATM    8  C   UNL     1      27.025  43.925  51.973  1.00  0.00     0.074 A 
HETATM    9  N   UNL     1      27.501  44.495  53.092  1.00  0.00    -0.171 NA
HETATM   10  N   UNL     1      28.624  43.789  53.401  1.00  0.00    -0.245 N 
HETATM   11  C   UNL     1      28.874  42.820  52.453  1.00  0.00     0.121 A 
HETATM   12  C   UNL     1      27.860  42.880  51.529  1.00  0.00     0.050 A 
BRANCH  10  13
HETATM   13  C   UNL     1      29.372  44.082  54.575  1.00  0.00     0.058 A 
HETATM   14  C   UNL     1      29.064  45.229  55.323  1.00  0.00     0.031 A 
HETATM   15  C   UNL     1      29.778  45.526  56.486  1.00  0.00     0.002 A 
HETATM   16  C   UNL     1      30.803  44.684  56.910  1.00  0.00     0.000 A 
HETATM   17  C   UNL     1      31.118  43.544  56.173  1.00  0.00     0.002 A 
HETATM   18  C   UNL     1      30.406  43.239  55.008  1.00  0.00     0.031 A 
ENDBRANCH  10  13
ENDBRANCH   7   8
ENDBRANCH   1   7
BRANCH   3  19
HETATM   19  C   UNL     1      27.300  48.486  49.122  1.00  0.00     0.144 C 
BRANCH  19  20
HETATM   20  C   UNL     1      26.369  49.511  48.464  1.00  0.00     0.142 C 
BRANCH  20  21
HETATM   21  N   UNL     1      24.983  49.369  48.895  1.00  0.00    -0.355 N 
HETATM   22  C   UNL     1      23.969  50.059  48.268  1.00  0.00     0.254 C 
HETATM   23  O   UNL     1      24.169  50.832  47.334  1.00  0.00    -0.268 OA
HETATM   24  H   UNL     1      24.781  48.627  49.549  1.00  0.00     0.162 HD
BRANCH  22  25
HETATM   25  C   UNL     1      22.569  49.831  48.731  1.00  0.00     0.065 A 
HETATM   26  C   UNL     1      21.925  48.625  48.407  1.00  0.00     0.081 A 
HETATM   27  C   UNL     1      20.619  48.377  48.825  1.00  0.00     0.037 A 
HETATM   28  C   UNL     1      19.930  49.340  49.559  1.00  0.00     0.003 A 
HETATM   29  C   UNL     1      20.547  50.550  49.871  1.00  0.00     0.001 A 
HETATM   30  C   UNL     1      21.860  50.800  49.457  1.00  0.00     0.020 A 
BRANCH  26  31
HETATM   31  O   UNL     1      22.516  47.629  47.672  1.00  0.00    -0.360 OA
HETATM   32  H   UNL     1      21.853  46.911  47.551  1.00  0.00     0.217 HD
ENDBRANCH  26  31
ENDBRANCH  22  25
ENDBRANCH  20  21
ENDBRANCH  19  20
ENDBRANCH   3  19
TORSDOF 8
ENDMDL
MODEL 7
REMARK VINA RESULT:      -9.2     12.233     13.186
REMARK  8 active torsions:
REMARK  status: ('A' for Active; 'I' for Inactive)
REMARK    1  A    between atoms: C_4  and  N_5 
REMARK    2  A    between atoms: C_7  and  C_8 
REMARK    3  A    between atoms: C_8  and  N_9 
REMARK       I    between atoms: N_9  and  C_10 
REMARK       I    between atoms: C_10  and  N_11 
REMARK    4  A    between atoms: N_11  and  C_12 
REMARK    5  A    between atoms: C_12  and  C_13 
REMARK    6  A    between atoms: C_13  and  N_14 
REMARK       I    between atoms: N_14  and  C_15 
REMARK    7  A    between atoms: C_15  and  C_16 
REMARK    8  A    between atoms: C_17  and  O_18 
ROOT
HETATM    1  N   UNL     1      28.918  47.063  39.085  1.00  0.00    -0.337 N 
HETATM    2  C   UNL     1      27.739  47.363  39.698  1.00  0.00     0.316 C 
HETATM    3  N   UNL     1      26.684  47.308  38.830  1.00  0.00    -0.342 N 
HETATM    4  O   UNL     1      27.640  47.653  40.883  1.00  0.00    -0.248 OA
HETATM    5  H   UNL     1      28.900  46.540  38.220  1.00  0.00     0.164 HD
HETATM    6  H   UNL     1      26.898  47.414  37.850  1.00  0.00     0.164 HD
ENDROOT
BRANCH   1   7
HETATM    7  C   UNL     1      30.122  46.902  39.867  1.00  0.00     0.185 C 
BRANCH   7   8
HETATM    8  C   UNL     1      30.793  48.228  40.065  1.00  0.00     0.074 A 
HETATM    9  N   UNL     1      31.292  48.601  41.255  1.00  0.00    -0.171 NA
HETATM   10  N   UNL     1      31.831  49.833  41.045  1.00  0.00    -0.245 N 
HETATM   11  C   UNL     1      31.625  50.248  39.746  1.00  0.00     0.121 A 
HETATM   12  C   UNL     1      30.967  49.235  39.094  1.00  0.00     0.050 A 
BRANCH  10  13
HETATM   13  C   UNL     1      32.509  50.524  42.089  1.00  0.00     0.058 A 
HETATM   14  C   UNL     1      33.874  50.822  41.947  1.00  0.00     0.031 A 
HETATM   15  C   UNL     1      34.553  51.511  42.954  1.00  0.00     0.002 A 
HETATM   16  C   UNL     1      33.880  51.905  44.107  1.00  0.00     0.000 A 
HETATM   17  C   UNL     1      32.526  51.612  44.258  1.00  0.00     0.002 A 
HETATM   18  C   UNL     1      31.838  50.923  43.253  1.00  0.00     0.031 A 
ENDBRANCH  10  13
ENDBRANCH   7   8
ENDBRANCH   1   7
BRANCH   3  19
HETATM   19  C   UNL     1      25.345  47.681  39.257  1.00  0.00     0.144 C 
BRANCH  19  20
HETATM   20  C   UNL     1      25.026  49.151  38.960  1.00  0.00     0.142 C 
BRANCH  20  21
HETATM   21  N   UNL     1      25.965  50.069  39.594  1.00  0.00    -0.355 N 
HETATM   22  C   UNL     1      27.065  50.544  38.914  1.00  0.00     0.254 C 
HETATM   23  O   UNL     1      27.323  50.217  37.757  1.00  0.00    -0.268 OA
HETATM   24  H   UNL     1      25.689  50.468  40.480  1.00  0.00     0.162 HD
BRANCH  22  25
HETATM   25  C   UNL     1      27.959  51.514  39.608  1.00  0.00     0.065 A 
HETATM   26  C   UNL     1      28.144  51.408  40.997  1.00  0.00     0.081 A 
HETATM   27  C   UNL     1      28.976  52.296  41.677  1.00  0.00     0.037 A 
HETATM   28  C   UNL     1      29.621  53.316  40.982  1.00  0.00     0.003 A 
HETATM   29  C   UNL     1      29.431  53.448  39.607  1.00  0.00     0.001 A 
HETATM   30  C   UNL     1      28.602  52.556  38.920  1.00  0.00     0.020 A 
BRANCH  26  31
HETATM   31  O   UNL     1      27.536  50.450  41.766  1.00  0.00    -0.360 OA
HETATM   32  H   UNL     1      26.575  50.664  41.807  1.00  0.00     0.217 HD
ENDBRANCH  26  31
ENDBRANCH  22  25
ENDBRANCH  20  21
ENDBRANCH  19  20
ENDBRANCH   3  19
TORSDOF 8
ENDMDL
MODEL 8
REMARK VINA RESULT:      -9.1      3.518      6.145
REMARK  8 active torsions:
REMARK  status: ('A' for Active; 'I' for Inactive)
REMARK    1  A    between atoms: C_4  and  N_5 
REMARK    2  A    between atoms: C_7  and  C_8 
REMARK    3  A    between atoms: C_8  and  N_9 
REMARK       I    between atoms: N_9  and  C_10 
REMARK       I    between atoms: C_10  and  N_11 
REMARK    4  A    between atoms: N_11  and  C_12 
REMARK    5  A    between atoms: C_12  and  C_13 
REMARK    6  A    between atoms: C_13  and  N_14 
REMARK       I    between atoms: N_14  and  C_15 
REMARK    7  A    between atoms: C_15  and  C_16 
REMARK    8  A    between atoms: C_17  and  O_18 
ROOT
HETATM    1  N   UNL     1      20.967  46.104  49.070  1.00  0.00    -0.337 N 
HETATM    2  C   UNL     1      20.625  47.305  48.528  1.00  0.00     0.316 C 
HETATM    3  N   UNL     1      20.486  48.275  49.481  1.00  0.00    -0.342 N 
HETATM    4  O   UNL     1      20.456  47.490  47.330  1.00  0.00    -0.248 OA
HETATM    5  H   UNL     1      21.389  46.084  49.988  1.00  0.00     0.164 HD
HETATM    6  H   UNL     1      20.296  47.962  50.421  1.00  0.00     0.164 HD
ENDROOT
BRANCH   1   7
HETATM    7  C   UNL     1      21.323  44.996  48.214  1.00  0.00     0.185 C 
BRANCH   7   8
HETATM    8  C   UNL     1      22.468  44.230  48.804  1.00  0.00     0.074 A 
HETATM    9  N   UNL     1      23.359  44.807  49.627  1.00  0.00    -0.171 NA
HETATM   10  N   UNL     1      24.223  43.813  49.971  1.00  0.00    -0.245 N 
HETATM   11  C   UNL     1      23.904  42.637  49.326  1.00  0.00     0.121 A 
HETATM   12  C   UNL     1      22.779  42.874  48.577  1.00  0.00     0.050 A 
BRANCH  10  13
HETATM   13  C   UNL     1      25.283  44.050  50.891  1.00  0.00     0.058 A 
HETATM   14  C   UNL     1      26.608  43.814  50.493  1.00  0.00     0.031 A 
HETATM   15  C   UNL     1      27.664  44.053  51.376  1.00  0.00     0.002 A 
HETATM   16  C   UNL     1      27.406  44.526  52.660  1.00  0.00     0.000 A 
HETATM   17  C   UNL     1      26.093  44.760  53.066  1.00  0.00     0.002 A 
HETATM   18  C   UNL     1      25.031  44.524  52.186  1.00  0.00     0.031 A 
ENDBRANCH  10  13
ENDBRANCH   7   8
ENDBRANCH   1   7
BRANCH   3  19
HETATM   19  C   UNL     1      20.037  49.612  49.127  1.00  0.00     0.144 C 
BRANCH  19  20
HETATM   20  C   UNL     1      21.198  50.610  49.027  1.00  0.00     0.142 C 
BRANCH  20  21
HETATM   21  N   UNL     1      22.486  50.005  49.343  1.00  0.00    -0.355 N 
HETATM   22  C   UNL     1      23.463  49.869  48.381  1.00  0.00     0.254 C 
HETATM   23  O   UNL     1      23.304  50.230  47.216  1.00  0.00    -0.268 OA
HETATM   24  H   UNL     1      22.692  49.849  50.319  1.00  0.00     0.162 HD
BRANCH  22  25
HETATM   25  C   UNL     1      24.774  49.284  48.784  1.00  0.00     0.065 A 
HETATM   26  C   UNL     1      24.796  48.164  49.632  1.00  0.00     0.081 A 
HETATM   27  C   UNL     1      26.003  47.589  50.027  1.00  0.00     0.037 A 
HETATM   28  C   UNL     1      27.208  48.136  49.593  1.00  0.00     0.003 A 
HETATM   29  C   UNL     1      27.204  49.260  48.768  1.00  0.00     0.001 A 
HETATM   30  C   UNL     1      25.995  49.837  48.366  1.00  0.00     0.020 A 
BRANCH  26  31
HETATM   31  O   UNL     1      23.662  47.570  50.124  1.00  0.00    -0.360 OA
HETATM   32  H   UNL     1      22.908  48.181  49.959  1.00  0.00     0.217 HD
ENDBRANCH  26  31
ENDBRANCH  22  25
ENDBRANCH  20  21
ENDBRANCH  19  20
ENDBRANCH   3  19
TORSDOF 8
ENDMDL
MODEL 9
REMARK VINA RESULT:      -9.0      2.396     10.194
REMARK  8 active torsions:
REMARK  status: ('A' for Active; 'I' for Inactive)
REMARK    1  A    between atoms: C_4  and  N_5 
REMARK    2  A    between atoms: C_7  and  C_8 
REMARK    3  A    between atoms: C_8  and  N_9 
REMARK       I    between atoms: N_9  and  C_10 
REMARK       I    between atoms: C_10  and  N_11 
REMARK    4  A    between atoms: N_11  and  C_12 
REMARK    5  A    between atoms: C_12  and  C_13 
REMARK    6  A    between atoms: C_13  and  N_14 
REMARK       I    between atoms: N_14  and  C_15 
REMARK    7  A    between atoms: C_15  and  C_16 
REMARK    8  A    between atoms: C_17  and  O_18 
ROOT
HETATM    1  N   UNL     1      25.968  46.899  50.744  1.00  0.00    -0.337 N 
HETATM    2  C   UNL     1      25.782  45.630  50.287  1.00  0.00     0.316 C 
HETATM    3  N   UNL     1      25.014  44.887  51.140  1.00  0.00    -0.342 N 
HETATM    4  O   UNL     1      26.252  45.206  49.240  1.00  0.00    -0.248 OA
HETATM    5  H   UNL     1      25.319  47.274  51.423  1.00  0.00     0.164 HD
HETATM    6  H   UNL     1      24.980  45.192  52.101  1.00  0.00     0.164 HD
ENDROOT
BRANCH   1   7
HETATM    7  C   UNL     1      26.608  47.886  49.906  1.00  0.00     0.185 C 
BRANCH   7   8
HETATM    8  C   UNL     1      25.581  48.772  49.268  1.00  0.00     0.074 A 
HETATM    9  N   UNL     1      24.276  48.680  49.574  1.00  0.00    -0.171 NA
HETATM   10  N   UNL     1      23.667  49.640  48.826  1.00  0.00    -0.245 N 
HETATM   11  C   UNL     1      24.577  50.292  48.021  1.00  0.00     0.121 A 
HETATM   12  C   UNL     1      25.814  49.760  48.290  1.00  0.00     0.050 A 
BRANCH  10  13
HETATM   13  C   UNL     1      22.267  49.875  48.935  1.00  0.00     0.058 A 
HETATM   14  C   UNL     1      21.405  48.799  49.199  1.00  0.00     0.031 A 
HETATM   15  C   UNL     1      20.030  49.010  49.323  1.00  0.00     0.002 A 
HETATM   16  C   UNL     1      19.505  50.292  49.182  1.00  0.00     0.000 A 
HETATM   17  C   UNL     1      20.353  51.366  48.917  1.00  0.00     0.002 A 
HETATM   18  C   UNL     1      21.731  51.163  48.793  1.00  0.00     0.031 A 
ENDBRANCH  10  13
ENDBRANCH   7   8
ENDBRANCH   1   7
BRANCH   3  19
HETATM   19  C   UNL     1      24.767  43.477  50.887  1.00  0.00     0.144 C 
BRANCH  19  20
HETATM   20  C   UNL     1      25.851  42.576  51.493  1.00  0.00     0.142 C 
BRANCH  20  21
HETATM   21  N   UNL     1      26.541  43.205  52.613  1.00  0.00    -0.355 N 
HETATM   22  C   UNL     1      27.917  43.222  52.681  1.00  0.00     0.254 C 
HETATM   23  O   UNL     1      28.631  42.706  51.824  1.00  0.00    -0.268 OA
HETATM   24  H   UNL     1      25.982  43.765  53.239  1.00  0.00     0.162 HD
BRANCH  22  25
HETATM   25  C   UNL     1      28.557  43.922  53.832  1.00  0.00     0.065 A 
HETATM   26  C   UNL     1      28.056  45.168  54.245  1.00  0.00     0.081 A 
HETATM   27  C   UNL     1      28.629  45.849  55.318  1.00  0.00     0.037 A 
HETATM   28  C   UNL     1      29.723  45.302  55.984  1.00  0.00     0.003 A 
HETATM   29  C   UNL     1      30.245  44.076  55.574  1.00  0.00     0.001 A 
HETATM   30  C   UNL     1      29.671  43.388  54.500  1.00  0.00     0.020 A 
BRANCH  26  31
HETATM   31  O   UNL     1      26.997  45.793  53.638  1.00  0.00    -0.360 OA
HETATM   32  H   UNL     1      26.473  45.105  53.167  1.00  0.00     0.217 HD
ENDBRANCH  26  31
ENDBRANCH  22  25
ENDBRANCH  20  21
ENDBRANCH  19  20
ENDBRANCH   3  19
TORSDOF 8
ENDMDL
MODEL 10
REMARK VINA RESULT:      -9.0      2.113     11.595
REMARK  8 active torsions:
REMARK  status: ('A' for Active; 'I' for Inactive)
REMARK    1  A    between atoms: C_4  and  N_5 
REMARK    2  A    between atoms: C_7  and  C_8 
REMARK    3  A    between atoms: C_8  and  N_9 
REMARK       I    between atoms: N_9  and  C_10 
REMARK       I    between atoms: C_10  and  N_11 
REMARK    4  A    between atoms: N_11  and  C_12 
REMARK    5  A    between atoms: C_12  and  C_13 
REMARK    6  A    between atoms: C_13  and  N_14 
REMARK       I    between atoms: N_14  and  C_15 
REMARK    7  A    between atoms: C_15  and  C_16 
REMARK    8  A    between atoms: C_17  and  O_18 
ROOT
HETATM    1  N   UNL     1      24.790  46.792  50.072  1.00  0.00    -0.337 N 
HETATM    2  C   UNL     1      25.417  46.583  51.263  1.00  0.00     0.316 C 
HETATM    3  N   UNL     1      25.733  45.266  51.449  1.00  0.00    -0.342 N 
HETATM    4  O   UNL     1      25.663  47.469  52.070  1.00  0.00    -0.248 OA
HETATM    5  H   UNL     1      24.897  46.108  49.336  1.00  0.00     0.164 HD
HETATM    6  H   UNL     1      25.194  44.593  50.925  1.00  0.00     0.164 HD
ENDROOT
BRANCH   1   7
HETATM    7  C   UNL     1      24.527  48.138  49.617  1.00  0.00     0.185 C 
BRANCH   7   8
HETATM    8  C   UNL     1      23.075  48.300  49.285  1.00  0.00     0.074 A 
HETATM    9  N   UNL     1      22.407  49.435  49.549  1.00  0.00    -0.171 NA
HETATM   10  N   UNL     1      21.142  49.218  49.096  1.00  0.00    -0.245 N 
HETATM   11  C   UNL     1      21.007  47.939  48.599  1.00  0.00     0.121 A 
HETATM   12  C   UNL     1      22.233  47.330  48.702  1.00  0.00     0.050 A 
BRANCH  10  13
HETATM   13  C   UNL     1      20.156  50.242  49.160  1.00  0.00     0.058 A 
HETATM   14  C   UNL     1      20.335  51.421  48.419  1.00  0.00     0.031 A 
HETATM   15  C   UNL     1      19.371  52.432  48.457  1.00  0.00     0.002 A 
HETATM   16  C   UNL     1      18.227  52.276  49.235  1.00  0.00     0.000 A 
HETATM   17  C   UNL     1      18.041  51.110  49.976  1.00  0.00     0.002 A 
HETATM   18  C   UNL     1      19.001  50.093  49.941  1.00  0.00     0.031 A 
ENDBRANCH  10  13
ENDBRANCH   7   8
ENDBRANCH   1   7
BRANCH   3  19
HETATM   19  C   UNL     1      26.328  44.809  52.695  1.00  0.00     0.144 C 
BRANCH  19  20
HETATM   20  C   UNL     1      27.793  44.388  52.522  1.00  0.00     0.142 C 
BRANCH  20  21
HETATM   21  N   UNL     1      28.598  44.664  53.706  1.00  0.00    -0.355 N 
HETATM   22  C   UNL     1      29.022  43.644  54.531  1.00  0.00     0.254 C 
HETATM   23  O   UNL     1      28.739  42.465  54.329  1.00  0.00    -0.268 OA
HETATM   24  H   UNL     1      28.969  45.598  53.801  1.00  0.00     0.162 HD
BRANCH  22  25
HETATM   25  C   UNL     1      29.881  43.993  55.699  1.00  0.00     0.065 A 
HETATM   26  C   UNL     1      29.575  45.132  56.463  1.00  0.00     0.081 A 
HETATM   27  C   UNL     1      30.355  45.485  57.563  1.00  0.00     0.037 A 
HETATM   28  C   UNL     1      31.463  44.714  57.906  1.00  0.00     0.003 A 
HETATM   29  C   UNL     1      31.793  43.593  57.146  1.00  0.00     0.001 A 
HETATM   30  C   UNL     1      31.010  43.233  56.044  1.00  0.00     0.020 A 
BRANCH  26  31
HETATM   31  O   UNL     1      28.517  45.960  56.189  1.00  0.00    -0.360 OA
HETATM   32  H   UNL     1      28.102  46.209  57.047  1.00  0.00     0.217 HD
ENDBRANCH  26  31
ENDBRANCH  22  25
ENDBRANCH  20  21
ENDBRANCH  19  20
ENDBRANCH   3  19
TORSDOF 8
ENDMDL
