MODEL 1
REMARK VINA RESULT:      -9.3      0.000      0.000
REMARK  8 active torsions:
REMARK  status: ('A' for Active; 'I' for Inactive)
REMARK    1  A    between atoms: C_7  and  C_8 
REMARK       I    between atoms: C_8  and  N_9 
REMARK    2  A    between atoms: N_9  and  C_10 
REMARK    3  A    between atoms: C_12  and  C_13 
REMARK       I    between atoms: C_13  and  N_14 
REMARK    4  A    between atoms: N_14  and  C_15 
REMARK    5  A    between atoms: C_15  and  C_16 
REMARK    6  A    between atoms: C_16  and  C_17 
REMARK    7  A    between atoms: C_18  and  O_19 
REMARK    8  A    between atoms: C_23  and  O_24 
ROOT
HETATM    1  C   UNL     1      24.300  48.082  49.587  1.00  0.00     0.035 A 
HETATM    2  C   UNL     1      24.787  46.834  49.985  1.00  0.00     0.046 A 
HETATM    3  C   UNL     1      26.163  46.565  49.938  1.00  0.00     0.034 A 
HETATM    4  C   UNL     1      27.053  47.539  49.472  1.00  0.00     0.017 A 
HETATM    5  C   UNL     1      26.574  48.787  49.085  1.00  0.00     0.003 A 
HETATM    6  C   UNL     1      25.206  49.058  49.148  1.00  0.00     0.029 A 
ENDROOT
BRANCH   3   7
HETATM    7  C   UNL     1      26.708  45.242  50.334  1.00  0.00     0.251 C 
HETATM    8  N   UNL     1      26.583  44.903  51.664  1.00  0.00    -0.357 N 
HETATM    9  H   UNL     1      26.133  45.543  52.307  1.00  0.00     0.162 HD
HETATM   10  O   UNL     1      27.252  44.531  49.496  1.00  0.00    -0.268 OA
BRANCH   8  11
HETATM   11  C   UNL     1      26.954  43.587  52.151  1.00  0.00     0.127 C 
BRANCH  11  12
HETATM   12  C   UNL     1      26.899  43.473  53.679  1.00  0.00     0.061 C 
BRANCH  12  13
HETATM   13  C   UNL     1      28.029  44.074  54.500  1.00  0.00    -0.021 A 
HETATM   14  C   UNL     1      27.892  45.397  54.978  1.00  0.00     0.074 A 
HETATM   15  C   UNL     1      28.912  45.973  55.737  1.00  0.00     0.040 A 
HETATM   16  C   UNL     1      30.078  45.256  56.008  1.00  0.00     0.039 A 
HETATM   17  C   UNL     1      30.245  43.961  55.520  1.00  0.00     0.068 A 
HETATM   18  C   UNL     1      29.226  43.379  54.763  1.00  0.00     0.046 A 
BRANCH  14  19
HETATM   19  O   UNL     1      26.720  46.031  54.651  1.00  0.00    -0.355 OA
HETATM   20  C   UNL     1      26.792  47.416  54.334  1.00  0.00     0.210 C 
ENDBRANCH  14  19
BRANCH  17  21
HETATM   21  O   UNL     1      31.439  43.381  55.849  1.00  0.00    -0.356 OA
HETATM   22  C   UNL     1      31.831  43.439  57.215  1.00  0.00     0.210 C 
ENDBRANCH  17  21
ENDBRANCH  12  13
ENDBRANCH  11  12
ENDBRANCH   8  11
ENDBRANCH   3   7
BRANCH   1  23
HETATM   23  N   UNL     1      22.935  48.430  49.590  1.00  0.00    -0.322 N 
HETATM   24  C   UNL     1      22.031  48.356  48.547  1.00  0.00     0.265 C 
HETATM   25  O   UNL     1      22.293  47.973  47.411  1.00  0.00    -0.267 OA
HETATM   26  H   UNL     1      22.569  48.835  50.446  1.00  0.00     0.169 HD
BRANCH  24  27
HETATM   27  C   UNL     1      20.631  48.832  48.916  1.00  0.00     0.097 C 
HETATM   28  C   UNL     1      20.331  50.153  48.970  1.00  0.00     0.064 C 
HETATM   29  C   UNL     1      21.278  51.249  48.552  1.00  0.00     0.078 C 
HETATM   30  O   UNL     1      19.112  50.684  49.365  1.00  0.00    -0.353 OA
HETATM   31  C   UNL     1      18.262  49.832  50.132  1.00  0.00     0.185 C 
HETATM   32  C   UNL     1      17.955  48.553  49.385  1.00  0.00     0.106 C 
HETATM   33  S   UNL     1      19.470  47.570  49.284  1.00  0.00    -0.120 SA
ENDBRANCH  24  27
ENDBRANCH   1  23
TORSDOF 8
ENDMDL
MODEL 2
REMARK VINA RESULT:      -8.8      1.550      2.340
REMARK  8 active torsions:
REMARK  status: ('A' for Active; 'I' for Inactive)
REMARK    1  A    between atoms: C_7  and  C_8 
REMARK       I    between atoms: C_8  and  N_9 
REMARK    2  A    between atoms: N_9  and  C_10 
REMARK    3  A    between atoms: C_12  and  C_13 
REMARK       I    between atoms: C_13  and  N_14 
REMARK    4  A    between atoms: N_14  and  C_15 
REMARK    5  A    between atoms: C_15  and  C_16 
REMARK    6  A    between atoms: C_16  and  C_17 
REMARK    7  A    between atoms: C_18  and  O_19 
REMARK    8  A    between atoms: C_23  and  O_24 
ROOT
HETATM    1  C   UNL     1      24.206  48.573  49.467  1.00  0.00     0.035 A 
HETATM    2  C   UNL     1      24.730  47.363  49.930  1.00  0.00     0.046 A 
HETATM    3  C   UNL     1      26.106  47.105  49.831  1.00  0.00     0.034 A 
HETATM    4  C   UNL     1      26.957  48.049  49.248  1.00  0.00     0.017 A 
HETATM    5  C   UNL     1      26.441  49.260  48.794  1.00  0.00     0.003 A 
HETATM    6  C   UNL     1      25.074  49.521  48.910  1.00  0.00     0.029 A 
ENDROOT
BRANCH   3   7
HETATM    7  C   UNL     1      26.688  45.820  50.295  1.00  0.00     0.251 C 
HETATM    8  N   UNL     1      26.223  45.338  51.499  1.00  0.00    -0.357 N 
HETATM    9  H   UNL     1      25.518  45.854  52.010  1.00  0.00     0.162 HD
HETATM   10  O   UNL     1      27.550  45.264  49.623  1.00  0.00    -0.268 OA
BRANCH   8  11
HETATM   11  C   UNL     1      26.614  44.031  51.997  1.00  0.00     0.127 C 
BRANCH  11  12
HETATM   12  C   UNL     1      26.614  43.946  53.527  1.00  0.00     0.061 C 
BRANCH  12  13
HETATM   13  C   UNL     1      27.945  43.967  54.262  1.00  0.00    -0.021 A 
HETATM   14  C   UNL     1      28.725  42.789  54.285  1.00  0.00     0.074 A 
HETATM   15  C   UNL     1      29.954  42.779  54.950  1.00  0.00     0.040 A 
HETATM   16  C   UNL     1      30.404  43.922  55.611  1.00  0.00     0.039 A 
HETATM   17  C   UNL     1      29.636  45.084  55.625  1.00  0.00     0.068 A 
HETATM   18  C   UNL     1      28.408  45.101  54.959  1.00  0.00     0.046 A 
BRANCH  14  19
HETATM   19  O   UNL     1      28.198  41.710  53.622  1.00  0.00    -0.355 OA
HETATM   20  C   UNL     1      28.982  41.131  52.586  1.00  0.00     0.210 C 
ENDBRANCH  14  19
BRANCH  17  21
HETATM   21  O   UNL     1      30.191  46.123  56.321  1.00  0.00    -0.356 OA
HETATM   22  C   UNL     1      30.479  45.900  57.695  1.00  0.00     0.210 C 
ENDBRANCH  17  21
ENDBRANCH  12  13
ENDBRANCH  11  12
ENDBRANCH   8  11
ENDBRANCH   3   7
BRANCH   1  23
HETATM   23  N   UNL     1      22.839  48.907  49.516  1.00  0.00    -0.322 N 
HETATM   24  C   UNL     1      21.889  48.775  48.520  1.00  0.00     0.265 C 
HETATM   25  O   UNL     1      22.105  48.343  47.392  1.00  0.00    -0.267 OA
HETATM   26  H   UNL     1      22.507  49.347  50.369  1.00  0.00     0.169 HD
BRANCH  24  27
HETATM   27  C   UNL     1      20.502  49.253  48.930  1.00  0.00     0.097 C 
HETATM   28  C   UNL     1      19.469  48.383  49.052  1.00  0.00     0.064 C 
HETATM   29  C   UNL     1      19.609  46.887  48.931  1.00  0.00     0.078 C 
HETATM   30  O   UNL     1      18.159  48.729  49.349  1.00  0.00    -0.353 OA
HETATM   31  C   UNL     1      17.790  50.089  49.122  1.00  0.00     0.185 C 
HETATM   32  C   UNL     1      18.674  51.031  49.908  1.00  0.00     0.106 C 
HETATM   33  S   UNL     1      20.339  50.977  49.203  1.00  0.00    -0.120 SA
ENDBRANCH  24  27
ENDBRANCH   1  23
TORSDOF 8
ENDMDL
MODEL 3
REMARK VINA RESULT:      -8.7      1.006      2.393
REMARK  8 active torsions:
REMARK  status: ('A' for Active; 'I' for Inactive)
REMARK    1  A    between atoms: C_7  and  C_8 
REMARK       I    between atoms: C_8  and  N_9 
REMARK    2  A    between atoms: N_9  and  C_10 
REMARK    3  A    between atoms: C_12  and  C_13 
REMARK       I    between atoms: C_13  and  N_14 
REMARK    4  A    between atoms: N_14  and  C_15 
REMARK    5  A    between atoms: C_15  and  C_16 
REMARK    6  A    between atoms: C_16  and  C_17 
REMARK    7  A    between atoms: C_18  and  O_19 
REMARK    8  A    between atoms: C_23  and  O_24 
ROOT
HETATM    1  C   UNL     1      24.211  48.142  49.574  1.00  0.00     0.035 A 
HETATM    2  C   UNL     1      24.713  46.910  50.004  1.00  0.00     0.046 A 
HETATM    3  C   UNL     1      26.092  46.657  49.964  1.00  0.00     0.034 A 
HETATM    4  C   UNL     1      26.970  47.628  49.472  1.00  0.00     0.017 A 
HETATM    5  C   UNL     1      26.477  48.860  49.051  1.00  0.00     0.003 A 
HETATM    6  C   UNL     1      25.105  49.116  49.109  1.00  0.00     0.029 A 
ENDROOT
BRANCH   3   7
HETATM    7  C   UNL     1      26.653  45.351  50.395  1.00  0.00     0.251 C 
HETATM    8  N   UNL     1      26.141  44.821  51.560  1.00  0.00    -0.357 N 
HETATM    9  H   UNL     1      25.418  45.319  52.065  1.00  0.00     0.162 HD
HETATM   10  O   UNL     1      27.537  44.819  49.734  1.00  0.00    -0.268 OA
BRANCH   8  11
HETATM   11  C   UNL     1      26.508  43.493  52.017  1.00  0.00     0.127 C 
BRANCH  11  12
HETATM   12  C   UNL     1      26.656  43.400  53.539  1.00  0.00     0.061 C 
BRANCH  12  13
HETATM   13  C   UNL     1      27.523  44.424  54.255  1.00  0.00    -0.021 A 
HETATM   14  C   UNL     1      28.837  44.059  54.627  1.00  0.00     0.074 A 
HETATM   15  C   UNL     1      29.656  44.980  55.283  1.00  0.00     0.040 A 
HETATM   16  C   UNL     1      29.176  46.253  55.593  1.00  0.00     0.039 A 
HETATM   17  C   UNL     1      27.875  46.622  55.262  1.00  0.00     0.068 A 
HETATM   18  C   UNL     1      27.051  45.706  54.603  1.00  0.00     0.046 A 
BRANCH  14  19
HETATM   19  O   UNL     1      29.219  42.784  54.295  1.00  0.00    -0.355 OA
HETATM   20  C   UNL     1      30.142  42.636  53.223  1.00  0.00     0.210 C 
ENDBRANCH  14  19
BRANCH  17  21
HETATM   21  O   UNL     1      27.532  47.892  55.636  1.00  0.00    -0.356 OA
HETATM   22  C   UNL     1      26.183  48.286  55.420  1.00  0.00     0.210 C 
ENDBRANCH  17  21
ENDBRANCH  12  13
ENDBRANCH  11  12
ENDBRANCH   8  11
ENDBRANCH   3   7
BRANCH   1  23
HETATM   23  N   UNL     1      22.842  48.473  49.567  1.00  0.00    -0.322 N 
HETATM   24  C   UNL     1      21.965  48.470  48.498  1.00  0.00     0.265 C 
HETATM   25  O   UNL     1      22.261  48.179  47.344  1.00  0.00    -0.267 OA
HETATM   26  H   UNL     1      22.450  48.806  50.442  1.00  0.00     0.169 HD
BRANCH  24  27
HETATM   27  C   UNL     1      20.551  48.900  48.867  1.00  0.00     0.097 C 
HETATM   28  C   UNL     1      20.203  50.210  48.902  1.00  0.00     0.064 C 
HETATM   29  C   UNL     1      21.108  51.334  48.464  1.00  0.00     0.078 C 
HETATM   30  O   UNL     1      18.967  50.703  49.294  1.00  0.00    -0.353 OA
HETATM   31  C   UNL     1      18.151  49.831  50.078  1.00  0.00     0.185 C 
HETATM   32  C   UNL     1      17.888  48.531  49.351  1.00  0.00     0.106 C 
HETATM   33  S   UNL     1      19.438  47.603  49.258  1.00  0.00    -0.120 SA
ENDBRANCH  24  27
ENDBRANCH   1  23
TORSDOF 8
ENDMDL
MODEL 4
REMARK VINA RESULT:      -8.5      2.411      4.763
REMARK  8 active torsions:
REMARK  status: ('A' for Active; 'I' for Inactive)
REMARK    1  A    between atoms: C_7  and  C_8 
REMARK       I    between atoms: C_8  and  N_9 
REMARK    2  A    between atoms: N_9  and  C_10 
REMARK    3  A    between atoms: C_12  and  C_13 
REMARK       I    between atoms: C_13  and  N_14 
REMARK    4  A    between atoms: N_14  and  C_15 
REMARK    5  A    between atoms: C_15  and  C_16 
REMARK    6  A    between atoms: C_16  and  C_17 
REMARK    7  A    between atoms: C_18  and  O_19 
REMARK    8  A    between atoms: C_23  and  O_24 
ROOT
HETATM    1  C   UNL     1      25.602  43.333  49.220  1.00  0.00     0.035 A 
HETATM    2  C   UNL     1      26.649  43.018  50.091  1.00  0.00     0.046 A 
HETATM    3  C   UNL     1      27.104  41.695  50.200  1.00  0.00     0.034 A 
HETATM    4  C   UNL     1      26.495  40.680  49.454  1.00  0.00     0.017 A 
HETATM    5  C   UNL     1      25.458  40.990  48.578  1.00  0.00     0.003 A 
HETATM    6  C   UNL     1      25.020  42.311  48.459  1.00  0.00     0.029 A 
ENDROOT
BRANCH   3   7
HETATM    7  C   UNL     1      28.200  41.327  51.131  1.00  0.00     0.251 C 
HETATM    8  N   UNL     1      28.836  42.371  51.768  1.00  0.00    -0.357 N 
HETATM    9  H   UNL     1      28.542  43.323  51.592  1.00  0.00     0.162 HD
HETATM   10  O   UNL     1      28.506  40.149  51.278  1.00  0.00    -0.268 OA
BRANCH   8  11
HETATM   11  C   UNL     1      29.832  42.138  52.799  1.00  0.00     0.127 C 
BRANCH  11  12
HETATM   12  C   UNL     1      29.281  42.315  54.218  1.00  0.00     0.061 C 
BRANCH  12  13
HETATM   13  C   UNL     1      29.126  43.721  54.775  1.00  0.00    -0.021 A 
HETATM   14  C   UNL     1      30.136  44.231  55.622  1.00  0.00     0.074 A 
HETATM   15  C   UNL     1      30.021  45.520  56.146  1.00  0.00     0.040 A 
HETATM   16  C   UNL     1      28.902  46.301  55.854  1.00  0.00     0.039 A 
HETATM   17  C   UNL     1      27.882  45.806  55.045  1.00  0.00     0.068 A 
HETATM   18  C   UNL     1      27.992  44.518  54.516  1.00  0.00     0.046 A 
BRANCH  14  19
HETATM   19  O   UNL     1      31.191  43.389  55.866  1.00  0.00    -0.355 OA
HETATM   20  C   UNL     1      31.781  43.438  57.160  1.00  0.00     0.210 C 
ENDBRANCH  14  19
BRANCH  17  21
HETATM   21  O   UNL     1      26.840  46.671  54.852  1.00  0.00    -0.356 OA
HETATM   22  C   UNL     1      27.040  48.021  55.251  1.00  0.00     0.210 C 
ENDBRANCH  17  21
ENDBRANCH  12  13
ENDBRANCH  11  12
ENDBRANCH   8  11
ENDBRANCH   3   7
BRANCH   1  23
HETATM   23  N   UNL     1      25.077  44.630  49.059  1.00  0.00    -0.322 N 
HETATM   24  C   UNL     1      24.389  45.395  49.982  1.00  0.00     0.265 C 
HETATM   25  O   UNL     1      24.108  45.042  51.123  1.00  0.00    -0.267 OA
HETATM   26  H   UNL     1      25.165  45.047  48.138  1.00  0.00     0.169 HD
BRANCH  24  27
HETATM   27  C   UNL     1      23.961  46.757  49.450  1.00  0.00     0.097 C 
HETATM   28  C   UNL     1      24.732  47.856  49.635  1.00  0.00     0.064 C 
HETATM   29  C   UNL     1      26.110  47.825  50.247  1.00  0.00     0.078 C 
HETATM   30  O   UNL     1      24.397  49.147  49.254  1.00  0.00    -0.353 OA
HETATM   31  C   UNL     1      23.012  49.404  49.017  1.00  0.00     0.185 C 
HETATM   32  C   UNL     1      22.461  48.480  47.953  1.00  0.00     0.106 C 
HETATM   33  S   UNL     1      22.418  46.799  48.619  1.00  0.00    -0.120 SA
ENDBRANCH  24  27
ENDBRANCH   1  23
TORSDOF 8
ENDMDL
MODEL 5
REMARK VINA RESULT:      -8.4      2.754     11.091
REMARK  8 active torsions:
REMARK  status: ('A' for Active; 'I' for Inactive)
REMARK    1  A    between atoms: C_7  and  C_8 
REMARK       I    between atoms: C_8  and  N_9 
REMARK    2  A    between atoms: N_9  and  C_10 
REMARK    3  A    between atoms: C_12  and  C_13 
REMARK       I    between atoms: C_13  and  N_14 
REMARK    4  A    between atoms: N_14  and  C_15 
REMARK    5  A    between atoms: C_15  and  C_16 
REMARK    6  A    between atoms: C_16  and  C_17 
REMARK    7  A    between atoms: C_18  and  O_19 
REMARK    8  A    between atoms: C_23  and  O_24 
ROOT
HETATM    1  C   UNL     1      25.871  47.644  50.357  1.00  0.00     0.035 A 
HETATM    2  C   UNL     1      24.525  47.743  49.993  1.00  0.00     0.046 A 
HETATM    3  C   UNL     1      24.125  48.658  49.007  1.00  0.00     0.034 A 
HETATM    4  C   UNL     1      25.069  49.492  48.400  1.00  0.00     0.017 A 
HETATM    5  C   UNL     1      26.412  49.391  48.752  1.00  0.00     0.003 A 
HETATM    6  C   UNL     1      26.810  48.467  49.721  1.00  0.00     0.029 A 
ENDROOT
BRANCH   3   7
HETATM    7  C   UNL     1      22.700  48.800  48.614  1.00  0.00     0.251 C 
HETATM    8  N   UNL     1      21.854  49.326  49.566  1.00  0.00    -0.357 N 
HETATM    9  H   UNL     1      22.219  49.597  50.471  1.00  0.00     0.162 HD
HETATM   10  O   UNL     1      22.335  48.434  47.503  1.00  0.00    -0.268 OA
BRANCH   8  11
HETATM   11  C   UNL     1      20.468  49.638  49.263  1.00  0.00     0.127 C 
BRANCH  11  12
HETATM   12  C   UNL     1      20.249  51.110  48.898  1.00  0.00     0.061 C 
BRANCH  12  13
HETATM   13  C   UNL     1      18.826  51.618  48.722  1.00  0.00    -0.021 A 
HETATM   14  C   UNL     1      18.199  51.456  47.466  1.00  0.00     0.074 A 
HETATM   15  C   UNL     1      16.892  51.910  47.277  1.00  0.00     0.040 A 
HETATM   16  C   UNL     1      16.210  52.543  48.316  1.00  0.00     0.039 A 
HETATM   17  C   UNL     1      16.821  52.738  49.553  1.00  0.00     0.068 A 
HETATM   18  C   UNL     1      18.127  52.283  49.749  1.00  0.00     0.046 A 
BRANCH  14  19
HETATM   19  O   UNL     1      18.950  50.838  46.499  1.00  0.00    -0.355 OA
HETATM   20  C   UNL     1      18.439  49.630  45.947  1.00  0.00     0.210 C 
ENDBRANCH  14  19
BRANCH  17  21
HETATM   21  O   UNL     1      16.043  53.382  50.475  1.00  0.00    -0.356 OA
HETATM   22  C   UNL     1      14.930  54.116  49.981  1.00  0.00     0.210 C 
ENDBRANCH  17  21
ENDBRANCH  12  13
ENDBRANCH  11  12
ENDBRANCH   8  11
ENDBRANCH   3   7
BRANCH   1  23
HETATM   23  N   UNL     1      26.355  46.763  51.344  1.00  0.00    -0.322 N 
HETATM   24  C   UNL     1      26.115  46.788  52.705  1.00  0.00     0.265 C 
HETATM   25  O   UNL     1      25.427  47.622  53.286  1.00  0.00    -0.267 OA
HETATM   26  H   UNL     1      27.003  46.045  51.036  1.00  0.00     0.169 HD
BRANCH  24  27
HETATM   27  C   UNL     1      26.819  45.675  53.470  1.00  0.00     0.097 C 
HETATM   28  C   UNL     1      27.734  45.954  54.431  1.00  0.00     0.064 C 
HETATM   29  C   UNL     1      28.041  47.347  54.922  1.00  0.00     0.078 C 
HETATM   30  O   UNL     1      28.479  45.015  55.130  1.00  0.00    -0.353 OA
HETATM   31  C   UNL     1      28.587  43.719  54.540  1.00  0.00     0.185 C 
HETATM   32  C   UNL     1      27.222  43.108  54.314  1.00  0.00     0.106 C 
HETATM   33  S   UNL     1      26.386  44.040  53.008  1.00  0.00    -0.120 SA
ENDBRANCH  24  27
ENDBRANCH   1  23
TORSDOF 8
ENDMDL
MODEL 6
REMARK VINA RESULT:      -8.3      2.128      2.741
REMARK  8 active torsions:
REMARK  status: ('A' for Active; 'I' for Inactive)
REMARK    1  A    between atoms: C_7  and  C_8 
REMARK       I    between atoms: C_8  and  N_9 
REMARK    2  A    between atoms: N_9  and  C_10 
REMARK    3  A    between atoms: C_12  and  C_13 
REMARK       I    between atoms: C_13  and  N_14 
REMARK    4  A    between atoms: N_14  and  C_15 
REMARK    5  A    between atoms: C_15  and  C_16 
REMARK    6  A    between atoms: C_16  and  C_17 
REMARK    7  A    between atoms: C_18  and  O_19 
REMARK    8  A    between atoms: C_23  and  O_24 
ROOT
HETATM    1  C   UNL     1      23.256  48.889  48.523  1.00  0.00     0.035 A 
HETATM    2  C   UNL     1      23.404  47.767  49.343  1.00  0.00     0.046 A 
HETATM    3  C   UNL     1      24.659  47.449  49.884  1.00  0.00     0.034 A 
HETATM    4  C   UNL     1      25.773  48.240  49.586  1.00  0.00     0.017 A 
HETATM    5  C   UNL     1      25.629  49.364  48.778  1.00  0.00     0.003 A 
HETATM    6  C   UNL     1      24.375  49.688  48.255  1.00  0.00     0.029 A 
ENDROOT
BRANCH   3   7
HETATM    7  C   UNL     1      24.851  46.252  50.742  1.00  0.00     0.251 C 
HETATM    8  N   UNL     1      25.767  46.375  51.764  1.00  0.00    -0.357 N 
HETATM    9  H   UNL     1      26.259  47.249  51.898  1.00  0.00     0.162 HD
HETATM   10  O   UNL     1      24.226  45.225  50.504  1.00  0.00    -0.268 OA
BRANCH   8  11
HETATM   11  C   UNL     1      25.950  45.325  52.751  1.00  0.00     0.127 C 
BRANCH  11  12
HETATM   12  C   UNL     1      27.202  44.477  52.502  1.00  0.00     0.061 C 
BRANCH  12  13
HETATM   13  C   UNL     1      28.264  44.400  53.588  1.00  0.00    -0.021 A 
HETATM   14  C   UNL     1      29.221  43.362  53.528  1.00  0.00     0.074 A 
HETATM   15  C   UNL     1      30.209  43.268  54.511  1.00  0.00     0.040 A 
HETATM   16  C   UNL     1      30.242  44.182  55.564  1.00  0.00     0.039 A 
HETATM   17  C   UNL     1      29.290  45.195  55.657  1.00  0.00     0.068 A 
HETATM   18  C   UNL     1      28.301  45.295  54.675  1.00  0.00     0.046 A 
BRANCH  14  19
HETATM   19  O   UNL     1      29.103  42.501  52.467  1.00  0.00    -0.355 OA
HETATM   20  C   UNL     1      28.869  41.128  52.761  1.00  0.00     0.210 C 
ENDBRANCH  14  19
BRANCH  17  21
HETATM   21  O   UNL     1      29.433  46.011  56.745  1.00  0.00    -0.356 OA
HETATM   22  C   UNL     1      30.436  45.658  57.689  1.00  0.00     0.210 C 
ENDBRANCH  17  21
ENDBRANCH  12  13
ENDBRANCH  11  12
ENDBRANCH   8  11
ENDBRANCH   3   7
BRANCH   1  23
HETATM   23  N   UNL     1      22.037  49.272  47.929  1.00  0.00    -0.322 N 
HETATM   24  C   UNL     1      20.769  49.237  48.478  1.00  0.00     0.265 C 
HETATM   25  O   UNL     1      20.499  48.840  49.607  1.00  0.00    -0.267 OA
HETATM   26  H   UNL     1      22.076  49.564  46.957  1.00  0.00     0.169 HD
BRANCH  24  27
HETATM   27  C   UNL     1      19.679  49.722  47.530  1.00  0.00     0.097 C 
HETATM   28  C   UNL     1      19.197  50.988  47.605  1.00  0.00     0.064 C 
HETATM   29  C   UNL     1      19.764  52.053  48.511  1.00  0.00     0.078 C 
HETATM   30  O   UNL     1      18.160  51.499  46.839  1.00  0.00    -0.353 OA
HETATM   31  C   UNL     1      17.289  50.548  46.226  1.00  0.00     0.185 C 
HETATM   32  C   UNL     1      18.060  49.600  45.335  1.00  0.00     0.106 C 
HETATM   33  S   UNL     1      19.089  48.540  46.378  1.00  0.00    -0.120 SA
ENDBRANCH  24  27
ENDBRANCH   1  23
TORSDOF 8
ENDMDL
MODEL 7
REMARK VINA RESULT:      -8.3      1.899      2.756
REMARK  8 active torsions:
REMARK  status: ('A' for Active; 'I' for Inactive)
REMARK    1  A    between atoms: C_7  and  C_8 
REMARK       I    between atoms: C_8  and  N_9 
REMARK    2  A    between atoms: N_9  and  C_10 
REMARK    3  A    between atoms: C_12  and  C_13 
REMARK       I    between atoms: C_13  and  N_14 
REMARK    4  A    between atoms: N_14  and  C_15 
REMARK    5  A    between atoms: C_15  and  C_16 
REMARK    6  A    between atoms: C_16  and  C_17 
REMARK    7  A    between atoms: C_18  and  O_19 
REMARK    8  A    between atoms: C_23  and  O_24 
ROOT
HETATM    1  C   UNL     1      22.868  49.268  48.639  1.00  0.00     0.035 A 
HETATM    2  C   UNL     1      23.470  48.190  49.293  1.00  0.00     0.046 A 
HETATM    3  C   UNL     1      24.868  48.112  49.386  1.00  0.00     0.034 A 
HETATM    4  C   UNL     1      25.666  49.101  48.804  1.00  0.00     0.017 A 
HETATM    5  C   UNL     1      25.072  50.183  48.160  1.00  0.00     0.003 A 
HETATM    6  C   UNL     1      23.680  50.267  48.084  1.00  0.00     0.029 A 
ENDROOT
BRANCH   3   7
HETATM    7  C   UNL     1      25.536  46.968  50.057  1.00  0.00     0.251 C 
HETATM    8  N   UNL     1      25.020  46.589  51.277  1.00  0.00    -0.357 N 
HETATM    9  H   UNL     1      24.224  47.082  51.663  1.00  0.00     0.162 HD
HETATM   10  O   UNL     1      26.506  46.434  49.530  1.00  0.00    -0.268 OA
BRANCH   8  11
HETATM   11  C   UNL     1      25.498  45.406  51.971  1.00  0.00     0.127 C 
BRANCH  11  12
HETATM   12  C   UNL     1      26.541  45.721  53.048  1.00  0.00     0.061 C 
BRANCH  12  13
HETATM   13  C   UNL     1      27.541  44.644  53.438  1.00  0.00    -0.021 A 
HETATM   14  C   UNL     1      28.524  44.950  54.406  1.00  0.00     0.074 A 
HETATM   15  C   UNL     1      29.454  43.979  54.785  1.00  0.00     0.040 A 
HETATM   16  C   UNL     1      29.430  42.715  54.196  1.00  0.00     0.039 A 
HETATM   17  C   UNL     1      28.488  42.404  53.218  1.00  0.00     0.068 A 
HETATM   18  C   UNL     1      27.554  43.369  52.837  1.00  0.00     0.046 A 
BRANCH  14  19
HETATM   19  O   UNL     1      28.481  46.221  54.920  1.00  0.00    -0.355 OA
HETATM   20  C   UNL     1      28.482  46.354  56.337  1.00  0.00     0.210 C 
ENDBRANCH  14  19
BRANCH  17  21
HETATM   21  O   UNL     1      28.588  41.135  52.717  1.00  0.00    -0.356 OA
HETATM   22  C   UNL     1      28.224  40.948  51.355  1.00  0.00     0.210 C 
ENDBRANCH  17  21
ENDBRANCH  12  13
ENDBRANCH  11  12
ENDBRANCH   8  11
ENDBRANCH   3   7
BRANCH   1  23
HETATM   23  N   UNL     1      21.475  49.418  48.488  1.00  0.00    -0.322 N 
HETATM   24  C   UNL     1      20.590  50.077  49.321  1.00  0.00     0.265 C 
HETATM   25  O   UNL     1      20.893  50.643  50.366  1.00  0.00    -0.267 OA
HETATM   26  H   UNL     1      21.048  48.943  47.699  1.00  0.00     0.169 HD
BRANCH  24  27
HETATM   27  C   UNL     1      19.144  50.022  48.843  1.00  0.00     0.097 C 
HETATM   28  C   UNL     1      18.499  51.143  48.435  1.00  0.00     0.064 C 
HETATM   29  C   UNL     1      19.160  52.490  48.287  1.00  0.00     0.078 C 
HETATM   30  O   UNL     1      17.167  51.208  48.052  1.00  0.00    -0.353 OA
HETATM   31  C   UNL     1      16.325  50.139  48.484  1.00  0.00     0.185 C 
HETATM   32  C   UNL     1      16.849  48.804  48.003  1.00  0.00     0.106 C 
HETATM   33  S   UNL     1      18.388  48.442  48.882  1.00  0.00    -0.120 SA
ENDBRANCH  24  27
ENDBRANCH   1  23
TORSDOF 8
ENDMDL
MODEL 8
REMARK VINA RESULT:      -8.2      2.577     10.280
REMARK  8 active torsions:
REMARK  status: ('A' for Active; 'I' for Inactive)
REMARK    1  A    between atoms: C_7  and  C_8 
REMARK       I    between atoms: C_8  and  N_9 
REMARK    2  A    between atoms: N_9  and  C_10 
REMARK    3  A    between atoms: C_12  and  C_13 
REMARK       I    between atoms: C_13  and  N_14 
REMARK    4  A    between atoms: N_14  and  C_15 
REMARK    5  A    between atoms: C_15  and  C_16 
REMARK    6  A    between atoms: C_16  and  C_17 
REMARK    7  A    between atoms: C_18  and  O_19 
REMARK    8  A    between atoms: C_23  and  O_24 
ROOT
HETATM    1  C   UNL     1      25.974  47.783  50.294  1.00  0.00     0.035 A 
HETATM    2  C   UNL     1      24.636  48.004  49.957  1.00  0.00     0.046 A 
HETATM    3  C   UNL     1      24.303  48.929  48.955  1.00  0.00     0.034 A 
HETATM    4  C   UNL     1      25.308  49.651  48.305  1.00  0.00     0.017 A 
HETATM    5  C   UNL     1      26.644  49.428  48.630  1.00  0.00     0.003 A 
HETATM    6  C   UNL     1      26.973  48.494  49.615  1.00  0.00     0.029 A 
ENDROOT
BRANCH   3   7
HETATM    7  C   UNL     1      22.889  49.200  48.590  1.00  0.00     0.251 C 
HETATM    8  N   UNL     1      22.020  49.421  49.636  1.00  0.00    -0.357 N 
HETATM    9  H   UNL     1      22.362  49.400  50.589  1.00  0.00     0.162 HD
HETATM   10  O   UNL     1      22.552  49.193  47.411  1.00  0.00    -0.268 OA
BRANCH   8  11
HETATM   11  C   UNL     1      20.644  49.826  49.408  1.00  0.00     0.127 C 
BRANCH  11  12
HETATM   12  C   UNL     1      19.625  48.880  50.052  1.00  0.00     0.061 C 
BRANCH  12  13
HETATM   13  C   UNL     1      18.670  48.109  49.153  1.00  0.00    -0.021 A 
HETATM   14  C   UNL     1      19.150  46.963  48.479  1.00  0.00     0.074 A 
HETATM   15  C   UNL     1      18.295  46.234  47.649  1.00  0.00     0.040 A 
HETATM   16  C   UNL     1      16.974  46.645  47.465  1.00  0.00     0.039 A 
HETATM   17  C   UNL     1      16.491  47.789  48.097  1.00  0.00     0.068 A 
HETATM   18  C   UNL     1      17.341  48.520  48.931  1.00  0.00     0.046 A 
BRANCH  14  19
HETATM   19  O   UNL     1      20.464  46.642  48.706  1.00  0.00    -0.355 OA
HETATM   20  C   UNL     1      20.827  45.270  48.618  1.00  0.00     0.210 C 
ENDBRANCH  14  19
BRANCH  17  21
HETATM   21  O   UNL     1      15.185  48.082  47.819  1.00  0.00    -0.356 OA
HETATM   22  C   UNL     1      14.935  48.898  46.681  1.00  0.00     0.210 C 
ENDBRANCH  17  21
ENDBRANCH  12  13
ENDBRANCH  11  12
ENDBRANCH   8  11
ENDBRANCH   3   7
BRANCH   1  23
HETATM   23  N   UNL     1      26.394  46.885  51.294  1.00  0.00    -0.322 N 
HETATM   24  C   UNL     1      26.052  46.874  52.633  1.00  0.00     0.265 C 
HETATM   25  O   UNL     1      25.311  47.685  53.179  1.00  0.00    -0.267 OA
HETATM   26  H   UNL     1      27.073  46.182  51.019  1.00  0.00     0.169 HD
BRANCH  24  27
HETATM   27  C   UNL     1      26.711  45.750  53.424  1.00  0.00     0.097 C 
HETATM   28  C   UNL     1      27.631  46.015  54.384  1.00  0.00     0.064 C 
HETATM   29  C   UNL     1      27.986  47.405  54.850  1.00  0.00     0.078 C 
HETATM   30  O   UNL     1      28.337  45.063  55.104  1.00  0.00    -0.353 OA
HETATM   31  C   UNL     1      28.401  43.753  54.540  1.00  0.00     0.185 C 
HETATM   32  C   UNL     1      27.016  43.188  54.318  1.00  0.00     0.106 C 
HETATM   33  S   UNL     1      26.221  44.124  52.990  1.00  0.00    -0.120 SA
ENDBRANCH  24  27
ENDBRANCH   1  23
TORSDOF 8
ENDMDL
MODEL 9
REMARK VINA RESULT:      -8.2      2.820      9.917
REMARK  8 active torsions:
REMARK  status: ('A' for Active; 'I' for Inactive)
REMARK    1  A    between atoms: C_7  and  C_8 
REMARK       I    between atoms: C_8  and  N_9 
REMARK    2  A    between atoms: N_9  and  C_10 
REMARK    3  A    between atoms: C_12  and  C_13 
REMARK       I    between atoms: C_13  and  N_14 
REMARK    4  A    between atoms: N_14  and  C_15 
REMARK    5  A    between atoms: C_15  and  C_16 
REMARK    6  A    between atoms: C_16  and  C_17 
REMARK    7  A    between atoms: C_18  and  O_19 
REMARK    8  A    between atoms: C_23  and  O_24 
ROOT
HETATM    1  C   UNL     1      24.871  43.819  51.007  1.00  0.00     0.035 A 
HETATM    2  C   UNL     1      23.772  44.412  50.380  1.00  0.00     0.046 A 
HETATM    3  C   UNL     1      23.026  43.693  49.433  1.00  0.00     0.034 A 
HETATM    4  C   UNL     1      23.394  42.387  49.095  1.00  0.00     0.017 A 
HETATM    5  C   UNL     1      24.483  41.788  49.723  1.00  0.00     0.003 A 
HETATM    6  C   UNL     1      25.212  42.500  50.678  1.00  0.00     0.029 A 
ENDROOT
BRANCH   3   7
HETATM    7  C   UNL     1      21.866  44.304  48.736  1.00  0.00     0.251 C 
HETATM    8  N   UNL     1      21.421  45.510  49.233  1.00  0.00    -0.357 N 
HETATM    9  H   UNL     1      21.887  45.931  50.027  1.00  0.00     0.162 HD
HETATM   10  O   UNL     1      21.348  43.722  47.790  1.00  0.00    -0.268 OA
BRANCH   8  11
HETATM   11  C   UNL     1      20.382  46.271  48.562  1.00  0.00     0.127 C 
BRANCH  11  12
HETATM   12  C   UNL     1      20.920  47.506  47.829  1.00  0.00     0.061 C 
BRANCH  12  13
HETATM   13  C   UNL     1      20.585  48.885  48.375  1.00  0.00    -0.021 A 
HETATM   14  C   UNL     1      21.487  49.946  48.134  1.00  0.00     0.074 A 
HETATM   15  C   UNL     1      21.204  51.225  48.620  1.00  0.00     0.040 A 
HETATM   16  C   UNL     1      20.045  51.454  49.361  1.00  0.00     0.039 A 
HETATM   17  C   UNL     1      19.158  50.416  49.634  1.00  0.00     0.068 A 
HETATM   18  C   UNL     1      19.434  49.136  49.148  1.00  0.00     0.046 A 
BRANCH  14  19
HETATM   19  O   UNL     1      22.607  49.626  47.410  1.00  0.00    -0.355 OA
HETATM   20  C   UNL     1      23.870  49.927  47.992  1.00  0.00     0.210 C 
ENDBRANCH  14  19
BRANCH  17  21
HETATM   21  O   UNL     1      18.071  50.778  50.381  1.00  0.00    -0.356 OA
HETATM   22  C   UNL     1      17.147  51.677  49.781  1.00  0.00     0.210 C 
ENDBRANCH  17  21
ENDBRANCH  12  13
ENDBRANCH  11  12
ENDBRANCH   8  11
ENDBRANCH   3   7
BRANCH   1  23
HETATM   23  N   UNL     1      25.680  44.472  51.957  1.00  0.00    -0.322 N 
HETATM   24  C   UNL     1      25.510  44.535  53.328  1.00  0.00     0.265 C 
HETATM   25  O   UNL     1      24.584  44.022  53.948  1.00  0.00    -0.267 OA
HETATM   26  H   UNL     1      26.462  45.010  51.598  1.00  0.00     0.169 HD
BRANCH  24  27
HETATM   27  C   UNL     1      26.585  45.346  54.041  1.00  0.00     0.097 C 
HETATM   28  C   UNL     1      27.707  44.755  54.519  1.00  0.00     0.064 C 
HETATM   29  C   UNL     1      28.062  43.308  54.286  1.00  0.00     0.078 C 
HETATM   30  O   UNL     1      28.705  45.391  55.243  1.00  0.00    -0.353 OA
HETATM   31  C   UNL     1      28.354  46.630  55.861  1.00  0.00     0.185 C 
HETATM   32  C   UNL     1      27.857  47.627  54.839  1.00  0.00     0.106 C 
HETATM   33  S   UNL     1      26.257  47.060  54.215  1.00  0.00    -0.120 SA
ENDBRANCH  24  27
ENDBRANCH   1  23
TORSDOF 8
ENDMDL
MODEL 10
REMARK VINA RESULT:      -8.1      3.435     11.037
REMARK  8 active torsions:
REMARK  status: ('A' for Active; 'I' for Inactive)
REMARK    1  A    between atoms: C_7  and  C_8 
REMARK       I    between atoms: C_8  and  N_9 
REMARK    2  A    between atoms: N_9  and  C_10 
REMARK    3  A    between atoms: C_12  and  C_13 
REMARK       I    between atoms: C_13  and  N_14 
REMARK    4  A    between atoms: N_14  and  C_15 
REMARK    5  A    between atoms: C_15  and  C_16 
REMARK    6  A    between atoms: C_16  and  C_17 
REMARK    7  A    between atoms: C_18  and  O_19 
REMARK    8  A    between atoms: C_23  and  O_24 
ROOT
HETATM    1  C   UNL     1      24.512  45.277  49.627  1.00  0.00     0.035 A 
HETATM    2  C   UNL     1      24.384  46.651  49.844  1.00  0.00     0.046 A 
HETATM    3  C   UNL     1      23.370  47.377  49.201  1.00  0.00     0.034 A 
HETATM    4  C   UNL     1      22.496  46.731  48.320  1.00  0.00     0.017 A 
HETATM    5  C   UNL     1      22.613  45.360  48.108  1.00  0.00     0.003 A 
HETATM    6  C   UNL     1      23.613  44.638  48.763  1.00  0.00     0.029 A 
ENDROOT
BRANCH   3   7
HETATM    7  C   UNL     1      23.222  48.841  49.396  1.00  0.00     0.251 C 
HETATM    8  N   UNL     1      21.936  49.308  49.562  1.00  0.00    -0.357 N 
HETATM    9  H   UNL     1      21.158  48.659  49.552  1.00  0.00     0.162 HD
HETATM   10  O   UNL     1      24.213  49.562  49.380  1.00  0.00    -0.268 OA
BRANCH   8  11
HETATM   11  C   UNL     1      21.668  50.697  49.892  1.00  0.00     0.127 C 
BRANCH  11  12
HETATM   12  C   UNL     1      20.840  51.420  48.823  1.00  0.00     0.061 C 
BRANCH  12  13
HETATM   13  C   UNL     1      19.325  51.299  48.864  1.00  0.00    -0.021 A 
HETATM   14  C   UNL     1      18.705  50.278  48.109  1.00  0.00     0.074 A 
HETATM   15  C   UNL     1      17.315  50.141  48.129  1.00  0.00     0.040 A 
HETATM   16  C   UNL     1      16.534  51.023  48.876  1.00  0.00     0.039 A 
HETATM   17  C   UNL     1      17.123  52.055  49.603  1.00  0.00     0.068 A 
HETATM   18  C   UNL     1      18.513  52.194  49.589  1.00  0.00     0.046 A 
BRANCH  14  19
HETATM   19  O   UNL     1      19.550  49.467  47.394  1.00  0.00    -0.355 OA
HETATM   20  C   UNL     1      19.140  48.122  47.180  1.00  0.00     0.210 C 
ENDBRANCH  14  19
BRANCH  17  21
HETATM   21  O   UNL     1      16.239  52.852  50.277  1.00  0.00    -0.356 OA
HETATM   22  C   UNL     1      15.137  53.364  49.537  1.00  0.00     0.210 C 
ENDBRANCH  17  21
ENDBRANCH  12  13
ENDBRANCH  11  12
ENDBRANCH   8  11
ENDBRANCH   3   7
BRANCH   1  23
HETATM   23  N   UNL     1      25.508  44.477  50.221  1.00  0.00    -0.322 N 
HETATM   24  C   UNL     1      25.473  43.832  51.443  1.00  0.00     0.265 C 
HETATM   25  O   UNL     1      24.535  43.870  52.234  1.00  0.00    -0.267 OA
HETATM   26  H   UNL     1      26.388  44.398  49.720  1.00  0.00     0.169 HD
BRANCH  24  27
HETATM   27  C   UNL     1      26.746  43.061  51.765  1.00  0.00     0.097 C 
HETATM   28  C   UNL     1      26.901  41.771  51.377  1.00  0.00     0.064 C 
HETATM   29  C   UNL     1      25.922  41.032  50.500  1.00  0.00     0.078 C 
HETATM   30  O   UNL     1      27.988  40.965  51.683  1.00  0.00    -0.353 OA
HETATM   31  C   UNL     1      28.795  41.373  52.788  1.00  0.00     0.185 C 
HETATM   32  C   UNL     1      29.336  42.770  52.581  1.00  0.00     0.106 C 
HETATM   33  S   UNL     1      27.959  43.939  52.676  1.00  0.00    -0.120 SA
ENDBRANCH  24  27
ENDBRANCH   1  23
TORSDOF 8
ENDMDL
