MODEL 1
REMARK VINA RESULT:     -10.5      0.000      0.000
REMARK  9 active torsions:
REMARK  status: ('A' for Active; 'I' for Inactive)
REMARK    1  A    between atoms: N_2  and  C_5 
REMARK    2  A    between atoms: C_10  and  N_11 
REMARK       I    between atoms: N_11  and  C_12 
REMARK    3  A    between atoms: C_12  and  C_14 
REMARK    4  A    between atoms: C_18  and  C_19 
REMARK    5  A    between atoms: C_19  and  N_20 
REMARK       I    between atoms: N_20  and  C_21 
REMARK    6  A    between atoms: C_21  and  C_23 
REMARK    7  A    between atoms: N_26  and  C_34 
REMARK    8  A    between atoms: C_27  and  C_28 
REMARK    9  A    between atoms: C_38  and  N_39 
ROOT
HETATM    1  C   UNL     1      25.710  46.536  51.223  1.00  0.00     0.161 C 
ENDROOT
BRANCH   1   2
HETATM    2  C   UNL     1      25.689  47.677  50.239  1.00  0.00    -0.040 A 
HETATM    3  C   UNL     1      26.894  48.211  49.758  1.00  0.00     0.009 A 
HETATM    4  C   UNL     1      26.887  49.243  48.822  1.00  0.00     0.002 A 
HETATM    5  C   UNL     1      25.675  49.761  48.366  1.00  0.00     0.017 A 
HETATM    6  C   UNL     1      24.459  49.250  48.841  1.00  0.00     0.033 A 
HETATM    7  C   UNL     1      24.471  48.192  49.762  1.00  0.00     0.026 A 
BRANCH   6   8
HETATM    8  C   UNL     1      23.197  49.858  48.315  1.00  0.00     0.257 C 
HETATM    9  N   UNL     1      22.090  49.725  49.124  1.00  0.00    -0.301 N 
HETATM   10  H   UNL     1      22.160  49.273  50.023  1.00  0.00     0.171 HD
HETATM   11  O   UNL     1      23.248  50.443  47.239  1.00  0.00    -0.267 OA
BRANCH   9  12
HETATM   12  C   UNL     1      20.833  50.220  48.879  1.00  0.00     0.174 A 
HETATM   13  N   UNL     1      20.264  51.079  49.700  1.00  0.00    -0.228 NA
HETATM   14  C   UNL     1      19.019  51.417  49.226  1.00  0.00     0.050 A 
HETATM   15  C   UNL     1      18.143  52.385  49.948  1.00  0.00     0.062 C 
HETATM   16  C   UNL     1      18.672  50.831  48.027  1.00  0.00     0.013 A 
HETATM   17  C   UNL     1      16.701  52.345  49.399  1.00  0.00     0.039 C 
HETATM   18  C   UNL     1      16.692  52.307  47.852  1.00  0.00     0.192 C 
HETATM   19  C   UNL     1      17.391  51.039  47.296  1.00  0.00     0.081 C 
HETATM   20  S   UNL     1      19.907  49.791  47.507  1.00  0.00    -0.055 SA
BRANCH  18  21
HETATM   21  N   UNL     1      15.265  52.478  47.323  1.00  0.00    -0.074 N 
HETATM   22  C   UNL     1      14.544  53.638  47.970  1.00  0.00     0.269 C 
HETATM   23  H   UNL     1      14.751  51.642  47.633  1.00  0.00     0.279 HD
HETATM   24  C   UNL     1      15.106  52.515  45.825  1.00  0.00     0.269 C 
ENDBRANCH  18  21
ENDBRANCH   9  12
ENDBRANCH   6   8
ENDBRANCH   1   2
BRANCH   1  25
HETATM   25  N   UNL     1      25.859  45.273  50.549  1.00  0.00    -0.351 N 
HETATM   26  C   UNL     1      25.185  44.152  50.984  1.00  0.00     0.274 C 
HETATM   27  O   UNL     1      24.323  44.197  51.854  1.00  0.00    -0.266 OA
HETATM   28  H   UNL     1      26.635  45.133  49.911  1.00  0.00     0.163 HD
BRANCH  26  29
HETATM   29  C   UNL     1      25.624  42.926  50.326  1.00  0.00     0.177 A 
HETATM   30  N   UNL     1      24.950  42.410  49.249  1.00  0.00    -0.124 NA
HETATM   31  N   UNL     1      25.564  41.306  48.865  1.00  0.00    -0.058 NA
HETATM   32  N   UNL     1      26.658  41.101  49.658  1.00  0.00    -0.188 N 
HETATM   33  C   UNL     1      26.701  42.104  50.634  1.00  0.00     0.109 A 
BRANCH  32  34
HETATM   34  C   UNL     1      27.548  40.023  49.417  1.00  0.00     0.230 A 
HETATM   35  N   UNL     1      28.765  40.226  48.913  1.00  0.00    -0.081 NA
HETATM   36  O   UNL     1      29.308  38.948  48.805  1.00  0.00    -0.103 OA
HETATM   37  N   UNL     1      28.411  37.980  49.245  1.00  0.00    -0.083 NA
HETATM   38  C   UNL     1      27.324  38.649  49.624  1.00  0.00     0.201 A 
BRANCH  38  39
HETATM   39  N   UNL     1      26.216  38.071  50.126  1.00  0.00    -0.379 N 
HETATM   40  H   UNL     1      26.171  37.853  51.116  1.00  0.00     0.158 HD
HETATM   41  H   UNL     1      25.573  37.542  49.540  1.00  0.00     0.158 HD
ENDBRANCH  38  39
ENDBRANCH  32  34
BRANCH  33  42
HETATM   42  C   UNL     1      27.672  42.194  51.719  1.00  0.00    -0.005 A 
HETATM   43  C   UNL     1      27.773  41.169  52.667  1.00  0.00     0.014 A 
HETATM   44  C   UNL     1      28.709  41.256  53.700  1.00  0.00     0.001 A 
HETATM   45  C   UNL     1      29.550  42.364  53.792  1.00  0.00     0.000 A 
HETATM   46  C   UNL     1      29.461  43.384  52.846  1.00  0.00     0.001 A 
HETATM   47  C   UNL     1      28.530  43.298  51.810  1.00  0.00     0.014 A 
ENDBRANCH  33  42
ENDBRANCH  26  29
ENDBRANCH   1  25
TORSDOF 9
ENDMDL
MODEL 2
REMARK VINA RESULT:     -10.4      3.948     11.585
REMARK  9 active torsions:
REMARK  status: ('A' for Active; 'I' for Inactive)
REMARK    1  A    between atoms: N_2  and  C_5 
REMARK    2  A    between atoms: C_10  and  N_11 
REMARK       I    between atoms: N_11  and  C_12 
REMARK    3  A    between atoms: C_12  and  C_14 
REMARK    4  A    between atoms: C_18  and  C_19 
REMARK    5  A    between atoms: C_19  and  N_20 
REMARK       I    between atoms: N_20  and  C_21 
REMARK    6  A    between atoms: C_21  and  C_23 
REMARK    7  A    between atoms: N_26  and  C_34 
REMARK    8  A    between atoms: C_27  and  C_28 
REMARK    9  A    between atoms: C_38  and  N_39 
ROOT
HETATM    1  C   UNL     1      25.909  47.084  53.226  1.00  0.00     0.161 C 
ENDROOT
BRANCH   1   2
HETATM    2  C   UNL     1      26.928  46.080  53.696  1.00  0.00    -0.040 A 
HETATM    3  C   UNL     1      27.740  46.368  54.802  1.00  0.00     0.009 A 
HETATM    4  C   UNL     1      28.663  45.433  55.266  1.00  0.00     0.002 A 
HETATM    5  C   UNL     1      28.793  44.204  54.622  1.00  0.00     0.017 A 
HETATM    6  C   UNL     1      28.000  43.898  53.507  1.00  0.00     0.033 A 
HETATM    7  C   UNL     1      27.053  44.832  53.060  1.00  0.00     0.026 A 
BRANCH   6   8
HETATM    8  C   UNL     1      28.197  42.564  52.859  1.00  0.00     0.257 C 
HETATM    9  N   UNL     1      27.484  42.354  51.699  1.00  0.00    -0.301 N 
HETATM   10  H   UNL     1      26.901  43.082  51.315  1.00  0.00     0.171 HD
HETATM   11  O   UNL     1      28.984  41.783  53.381  1.00  0.00    -0.267 OA
BRANCH   9  12
HETATM   12  C   UNL     1      27.517  41.232  50.908  1.00  0.00     0.174 A 
HETATM   13  N   UNL     1      28.659  40.678  50.555  1.00  0.00    -0.228 NA
HETATM   14  C   UNL     1      28.415  39.573  49.773  1.00  0.00     0.050 A 
HETATM   15  C   UNL     1      29.525  38.737  49.232  1.00  0.00     0.062 C 
HETATM   16  C   UNL     1      27.082  39.285  49.571  1.00  0.00     0.013 A 
HETATM   17  C   UNL     1      29.013  37.773  48.141  1.00  0.00     0.039 C 
HETATM   18  C   UNL     1      27.683  37.105  48.564  1.00  0.00     0.192 C 
HETATM   19  C   UNL     1      26.551  38.143  48.777  1.00  0.00     0.081 C 
HETATM   20  S   UNL     1      26.110  40.451  50.329  1.00  0.00    -0.055 SA
BRANCH  18  21
HETATM   21  N   UNL     1      27.300  36.004  47.571  1.00  0.00    -0.074 N 
HETATM   22  C   UNL     1      25.808  35.776  47.507  1.00  0.00     0.269 C 
HETATM   23  H   UNL     1      27.684  35.132  47.961  1.00  0.00     0.279 HD
HETATM   24  C   UNL     1      27.887  36.118  46.187  1.00  0.00     0.269 C 
ENDBRANCH  18  21
ENDBRANCH   9  12
ENDBRANCH   6   8
ENDBRANCH   1   2
BRANCH   1  25
HETATM   25  N   UNL     1      25.121  46.554  52.143  1.00  0.00    -0.351 N 
HETATM   26  C   UNL     1      25.228  47.069  50.869  1.00  0.00     0.274 C 
HETATM   27  O   UNL     1      26.090  47.883  50.557  1.00  0.00    -0.266 OA
HETATM   28  H   UNL     1      24.312  45.977  52.347  1.00  0.00     0.163 HD
BRANCH  26  29
HETATM   29  C   UNL     1      24.205  46.567  49.958  1.00  0.00     0.177 A 
HETATM   30  N   UNL     1      24.014  45.223  49.765  1.00  0.00    -0.124 NA
HETATM   31  N   UNL     1      23.034  45.064  48.896  1.00  0.00    -0.058 NA
HETATM   32  N   UNL     1      22.551  46.290  48.532  1.00  0.00    -0.188 N 
HETATM   33  C   UNL     1      23.311  47.279  49.168  1.00  0.00     0.109 A 
BRANCH  32  34
HETATM   34  C   UNL     1      21.437  46.412  47.663  1.00  0.00     0.230 A 
HETATM   35  N   UNL     1      21.593  46.532  46.345  1.00  0.00    -0.081 NA
HETATM   36  O   UNL     1      20.294  46.648  45.855  1.00  0.00    -0.103 OA
HETATM   37  N   UNL     1      19.361  46.599  46.886  1.00  0.00    -0.083 NA
HETATM   38  C   UNL     1      20.071  46.452  48.003  1.00  0.00     0.201 A 
BRANCH  38  39
HETATM   39  N   UNL     1      19.535  46.352  49.234  1.00  0.00    -0.379 N 
HETATM   40  H   UNL     1      20.141  46.187  50.030  1.00  0.00     0.158 HD
HETATM   41  H   UNL     1      18.559  46.100  49.376  1.00  0.00     0.158 HD
ENDBRANCH  38  39
ENDBRANCH  32  34
BRANCH  33  42
HETATM   42  C   UNL     1      23.163  48.718  48.979  1.00  0.00    -0.005 A 
HETATM   43  C   UNL     1      24.079  49.429  48.195  1.00  0.00     0.014 A 
HETATM   44  C   UNL     1      23.929  50.805  48.011  1.00  0.00     0.001 A 
HETATM   45  C   UNL     1      22.863  51.479  48.606  1.00  0.00     0.000 A 
HETATM   46  C   UNL     1      21.942  50.776  49.381  1.00  0.00     0.001 A 
HETATM   47  C   UNL     1      22.087  49.400  49.563  1.00  0.00     0.014 A 
ENDBRANCH  33  42
ENDBRANCH  26  29
ENDBRANCH   1  25
TORSDOF 9
ENDMDL
MODEL 3
REMARK VINA RESULT:     -10.2      3.922     11.826
REMARK  9 active torsions:
REMARK  status: ('A' for Active; 'I' for Inactive)
REMARK    1  A    between atoms: N_2  and  C_5 
REMARK    2  A    between atoms: C_10  and  N_11 
REMARK       I    between atoms: N_11  and  C_12 
REMARK    3  A    between atoms: C_12  and  C_14 
REMARK    4  A    between atoms: C_18  and  C_19 
REMARK    5  A    between atoms: C_19  and  N_20 
REMARK       I    between atoms: N_20  and  C_21 
REMARK    6  A    between atoms: C_21  and  C_23 
REMARK    7  A    between atoms: N_26  and  C_34 
REMARK    8  A    between atoms: C_27  and  C_28 
REMARK    9  A    between atoms: C_38  and  N_39 
ROOT
HETATM    1  C   UNL     1      22.963  44.197  46.217  1.00  0.00     0.161 C 
ENDROOT
BRANCH   1   2
HETATM    2  C   UNL     1      23.528  43.353  47.328  1.00  0.00    -0.040 A 
HETATM    3  C   UNL     1      23.452  41.954  47.256  1.00  0.00     0.009 A 
HETATM    4  C   UNL     1      24.002  41.162  48.261  1.00  0.00     0.002 A 
HETATM    5  C   UNL     1      24.623  41.759  49.357  1.00  0.00     0.017 A 
HETATM    6  C   UNL     1      24.702  43.155  49.456  1.00  0.00     0.033 A 
HETATM    7  C   UNL     1      24.171  43.948  48.428  1.00  0.00     0.026 A 
BRANCH   6   8
HETATM    8  C   UNL     1      25.376  43.730  50.663  1.00  0.00     0.257 C 
HETATM    9  N   UNL     1      26.541  43.105  51.048  1.00  0.00    -0.301 N 
HETATM   10  H   UNL     1      26.912  42.333  50.514  1.00  0.00     0.171 HD
HETATM   11  O   UNL     1      24.867  44.713  51.189  1.00  0.00    -0.267 OA
BRANCH   9  12
HETATM   12  C   UNL     1      27.354  43.461  52.096  1.00  0.00     0.174 A 
HETATM   13  N   UNL     1      27.105  44.532  52.821  1.00  0.00    -0.228 NA
HETATM   14  C   UNL     1      28.061  44.658  53.802  1.00  0.00     0.050 A 
HETATM   15  C   UNL     1      28.030  45.779  54.785  1.00  0.00     0.062 C 
HETATM   16  C   UNL     1      29.007  43.656  53.827  1.00  0.00     0.013 A 
HETATM   17  C   UNL     1      29.363  45.879  55.555  1.00  0.00     0.039 C 
HETATM   18  C   UNL     1      29.858  44.482  56.000  1.00  0.00     0.192 C 
HETATM   19  C   UNL     1      30.137  43.551  54.792  1.00  0.00     0.081 C 
HETATM   20  S   UNL     1      28.730  42.559  52.562  1.00  0.00    -0.055 SA
BRANCH  18  21
HETATM   21  N   UNL     1      31.063  44.616  56.936  1.00  0.00    -0.074 N 
HETATM   22  C   UNL     1      30.710  45.301  58.237  1.00  0.00     0.269 C 
HETATM   23  H   UNL     1      31.711  45.262  56.465  1.00  0.00     0.279 HD
HETATM   24  C   UNL     1      31.857  43.360  57.189  1.00  0.00     0.269 C 
ENDBRANCH  18  21
ENDBRANCH   9  12
ENDBRANCH   6   8
ENDBRANCH   1   2
BRANCH   1  25
HETATM   25  N   UNL     1      21.838  44.971  46.676  1.00  0.00    -0.351 N 
HETATM   26  C   UNL     1      21.284  45.955  45.886  1.00  0.00     0.274 C 
HETATM   27  O   UNL     1      21.609  46.123  44.716  1.00  0.00    -0.266 OA
HETATM   28  H   UNL     1      21.600  44.974  47.662  1.00  0.00     0.163 HD
BRANCH  26  29
HETATM   29  C   UNL     1      20.307  46.778  46.593  1.00  0.00     0.177 A 
HETATM   30  N   UNL     1      18.959  46.585  46.433  1.00  0.00    -0.124 NA
HETATM   31  N   UNL     1      18.322  47.464  47.184  1.00  0.00    -0.058 NA
HETATM   32  N   UNL     1      19.236  48.219  47.866  1.00  0.00    -0.188 N 
HETATM   33  C   UNL     1      20.522  47.828  47.476  1.00  0.00     0.109 A 
BRANCH  32  34
HETATM   34  C   UNL     1      18.824  49.194  48.810  1.00  0.00     0.230 A 
HETATM   35  N   UNL     1      18.494  50.430  48.435  1.00  0.00    -0.081 NA
HETATM   36  O   UNL     1      18.177  51.075  49.628  1.00  0.00    -0.103 OA
HETATM   37  N   UNL     1      18.320  50.222  50.717  1.00  0.00    -0.083 NA
HETATM   38  C   UNL     1      18.719  49.058  50.208  1.00  0.00     0.201 A 
BRANCH  38  39
HETATM   39  N   UNL     1      18.964  47.955  50.940  1.00  0.00    -0.379 N 
HETATM   40  H   UNL     1      19.529  47.210  50.547  1.00  0.00     0.158 HD
HETATM   41  H   UNL     1      18.358  47.675  51.709  1.00  0.00     0.158 HD
ENDBRANCH  38  39
ENDBRANCH  32  34
BRANCH  33  42
HETATM   42  C   UNL     1      21.769  48.445  47.917  1.00  0.00    -0.005 A 
HETATM   43  C   UNL     1      22.105  49.740  47.503  1.00  0.00     0.014 A 
HETATM   44  C   UNL     1      23.295  50.329  47.934  1.00  0.00     0.001 A 
HETATM   45  C   UNL     1      24.155  49.632  48.781  1.00  0.00     0.000 A 
HETATM   46  C   UNL     1      23.824  48.346  49.204  1.00  0.00     0.001 A 
HETATM   47  C   UNL     1      22.633  47.756  48.779  1.00  0.00     0.014 A 
ENDBRANCH  33  42
ENDBRANCH  26  29
ENDBRANCH   1  25
TORSDOF 9
ENDMDL
MODEL 4
REMARK VINA RESULT:     -10.2     12.441     17.315
REMARK  9 active torsions:
REMARK  status: ('A' for Active; 'I' for Inactive)
REMARK    1  A    between atoms: N_2  and  C_5 
REMARK    2  A    between atoms: C_10  and  N_11 
REMARK       I    between atoms: N_11  and  C_12 
REMARK    3  A    between atoms: C_12  and  C_14 
REMARK    4  A    between atoms: C_18  and  C_19 
REMARK    5  A    between atoms: C_19  and  N_20 
REMARK       I    between atoms: N_20  and  C_21 
REMARK    6  A    between atoms: C_21  and  C_23 
REMARK    7  A    between atoms: N_26  and  C_34 
REMARK    8  A    between atoms: C_27  and  C_28 
REMARK    9  A    between atoms: C_38  and  N_39 
ROOT
HETATM    1  C   UNL     1      33.752  49.541  40.979  1.00  0.00     0.161 C 
ENDROOT
BRANCH   1   2
HETATM    2  C   UNL     1      33.831  50.479  42.155  1.00  0.00    -0.040 A 
HETATM    3  C   UNL     1      32.692  50.725  42.935  1.00  0.00     0.009 A 
HETATM    4  C   UNL     1      32.761  51.564  44.045  1.00  0.00     0.002 A 
HETATM    5  C   UNL     1      33.967  52.177  44.380  1.00  0.00     0.017 A 
HETATM    6  C   UNL     1      35.117  51.955  43.608  1.00  0.00     0.033 A 
HETATM    7  C   UNL     1      35.049  51.087  42.508  1.00  0.00     0.026 A 
BRANCH   6   8
HETATM    8  C   UNL     1      36.376  52.650  44.021  1.00  0.00     0.257 C 
HETATM    9  N   UNL     1      37.140  51.992  44.959  1.00  0.00    -0.301 N 
HETATM   10  H   UNL     1      36.863  51.086  45.304  1.00  0.00     0.171 HD
HETATM   11  O   UNL     1      36.644  53.717  43.481  1.00  0.00    -0.267 OA
BRANCH   9  12
HETATM   12  C   UNL     1      38.345  52.406  45.471  1.00  0.00     0.174 A 
HETATM   13  N   UNL     1      38.427  52.965  46.661  1.00  0.00    -0.228 NA
HETATM   14  C   UNL     1      39.738  53.279  46.935  1.00  0.00     0.050 A 
HETATM   15  C   UNL     1      40.136  53.918  48.223  1.00  0.00     0.062 C 
HETATM   16  C   UNL     1      40.640  52.921  45.957  1.00  0.00     0.013 A 
HETATM   17  C   UNL     1      41.581  54.456  48.151  1.00  0.00     0.039 C 
HETATM   18  C   UNL     1      42.526  53.433  47.476  1.00  0.00     0.192 C 
HETATM   19  C   UNL     1      42.113  53.136  46.012  1.00  0.00     0.081 C 
HETATM   20  S   UNL     1      39.828  52.225  44.639  1.00  0.00    -0.055 SA
BRANCH  18  21
HETATM   21  N   UNL     1      43.982  53.890  47.602  1.00  0.00    -0.074 N 
HETATM   22  C   UNL     1      44.191  54.846  48.753  1.00  0.00     0.269 C 
HETATM   23  H   UNL     1      44.172  54.447  46.758  1.00  0.00     0.279 HD
HETATM   24  C   UNL     1      45.026  52.803  47.610  1.00  0.00     0.269 C 
ENDBRANCH  18  21
ENDBRANCH   9  12
ENDBRANCH   6   8
ENDBRANCH   1   2
BRANCH   1  25
HETATM   25  N   UNL     1      32.383  49.288  40.610  1.00  0.00    -0.351 N 
HETATM   26  C   UNL     1      31.890  48.002  40.549  1.00  0.00     0.274 C 
HETATM   27  O   UNL     1      32.527  47.032  40.946  1.00  0.00    -0.266 OA
HETATM   28  H   UNL     1      31.843  50.017  40.156  1.00  0.00     0.163 HD
BRANCH  26  29
HETATM   29  C   UNL     1      30.563  47.923  39.948  1.00  0.00     0.177 A 
HETATM   30  N   UNL     1      30.095  46.758  39.396  1.00  0.00    -0.124 NA
HETATM   31  N   UNL     1      28.880  46.978  38.931  1.00  0.00    -0.058 NA
HETATM   32  N   UNL     1      28.524  48.271  39.196  1.00  0.00    -0.188 N 
HETATM   33  C   UNL     1      29.601  48.916  39.815  1.00  0.00     0.109 A 
BRANCH  32  34
HETATM   34  C   UNL     1      27.231  48.758  38.873  1.00  0.00     0.230 A 
HETATM   35  N   UNL     1      26.953  49.243  37.664  1.00  0.00    -0.081 NA
HETATM   36  O   UNL     1      25.618  49.632  37.749  1.00  0.00    -0.103 OA
HETATM   37  N   UNL     1      25.099  49.378  39.015  1.00  0.00    -0.083 NA
HETATM   38  C   UNL     1      26.100  48.836  39.708  1.00  0.00     0.201 A 
BRANCH  38  39
HETATM   39  N   UNL     1      26.003  48.434  40.989  1.00  0.00    -0.379 N 
HETATM   40  H   UNL     1      26.000  47.442  41.202  1.00  0.00     0.158 HD
HETATM   41  H   UNL     1      25.602  49.030  41.711  1.00  0.00     0.158 HD
ENDBRANCH  38  39
ENDBRANCH  32  34
BRANCH  33  42
HETATM   42  C   UNL     1      29.649  50.326  40.186  1.00  0.00    -0.005 A 
HETATM   43  C   UNL     1      30.047  51.293  39.254  1.00  0.00     0.014 A 
HETATM   44  C   UNL     1      30.083  52.642  39.611  1.00  0.00     0.001 A 
HETATM   45  C   UNL     1      29.722  53.035  40.899  1.00  0.00     0.000 A 
HETATM   46  C   UNL     1      29.317  52.080  41.830  1.00  0.00     0.001 A 
HETATM   47  C   UNL     1      29.274  50.731  41.474  1.00  0.00     0.014 A 
ENDBRANCH  33  42
ENDBRANCH  26  29
ENDBRANCH   1  25
TORSDOF 9
ENDMDL
MODEL 5
REMARK VINA RESULT:     -10.1      3.754     11.751
REMARK  9 active torsions:
REMARK  status: ('A' for Active; 'I' for Inactive)
REMARK    1  A    between atoms: N_2  and  C_5 
REMARK    2  A    between atoms: C_10  and  N_11 
REMARK       I    between atoms: N_11  and  C_12 
REMARK    3  A    between atoms: C_12  and  C_14 
REMARK    4  A    between atoms: C_18  and  C_19 
REMARK    5  A    between atoms: C_19  and  N_20 
REMARK       I    between atoms: N_20  and  C_21 
REMARK    6  A    between atoms: C_21  and  C_23 
REMARK    7  A    between atoms: N_26  and  C_34 
REMARK    8  A    between atoms: C_27  and  C_28 
REMARK    9  A    between atoms: C_38  and  N_39 
ROOT
HETATM    1  C   UNL     1      22.837  44.023  46.024  1.00  0.00     0.161 C 
ENDROOT
BRANCH   1   2
HETATM    2  C   UNL     1      23.410  43.032  47.004  1.00  0.00    -0.040 A 
HETATM    3  C   UNL     1      23.497  41.675  46.660  1.00  0.00     0.009 A 
HETATM    4  C   UNL     1      24.057  40.755  47.544  1.00  0.00     0.002 A 
HETATM    5  C   UNL     1      24.524  41.180  48.787  1.00  0.00     0.017 A 
HETATM    6  C   UNL     1      24.437  42.529  49.157  1.00  0.00     0.033 A 
HETATM    7  C   UNL     1      23.899  43.457  48.252  1.00  0.00     0.026 A 
BRANCH   6   8
HETATM    8  C   UNL     1      24.951  42.915  50.508  1.00  0.00     0.257 C 
HETATM    9  N   UNL     1      26.319  43.046  50.610  1.00  0.00    -0.301 N 
HETATM   10  H   UNL     1      26.910  42.919  49.803  1.00  0.00     0.171 HD
HETATM   11  O   UNL     1      24.132  43.110  51.399  1.00  0.00    -0.267 OA
BRANCH   9  12
HETATM   12  C   UNL     1      27.025  43.418  51.727  1.00  0.00     0.174 A 
HETATM   13  N   UNL     1      28.158  42.827  52.049  1.00  0.00    -0.228 NA
HETATM   14  C   UNL     1      28.661  43.387  53.200  1.00  0.00     0.050 A 
HETATM   15  C   UNL     1      29.945  42.922  53.799  1.00  0.00     0.062 C 
HETATM   16  C   UNL     1      27.915  44.424  53.718  1.00  0.00     0.013 A 
HETATM   17  C   UNL     1      30.120  43.471  55.231  1.00  0.00     0.039 C 
HETATM   18  C   UNL     1      29.734  44.967  55.308  1.00  0.00     0.192 C 
HETATM   19  C   UNL     1      28.245  45.204  54.943  1.00  0.00     0.081 C 
HETATM   20  S   UNL     1      26.524  44.670  52.779  1.00  0.00    -0.055 SA
BRANCH  18  21
HETATM   21  N   UNL     1      30.109  45.545  56.676  1.00  0.00    -0.074 N 
HETATM   22  C   UNL     1      28.906  46.038  57.445  1.00  0.00     0.269 C 
HETATM   23  H   UNL     1      30.662  46.391  56.478  1.00  0.00     0.279 HD
HETATM   24  C   UNL     1      30.988  44.685  57.547  1.00  0.00     0.269 C 
ENDBRANCH  18  21
ENDBRANCH   9  12
ENDBRANCH   6   8
ENDBRANCH   1   2
BRANCH   1  25
HETATM   25  N   UNL     1      21.731  44.741  46.603  1.00  0.00    -0.351 N 
HETATM   26  C   UNL     1      21.186  45.837  45.968  1.00  0.00     0.274 C 
HETATM   27  O   UNL     1      21.502  46.164  44.829  1.00  0.00    -0.266 OA
HETATM   28  H   UNL     1      21.503  44.608  47.582  1.00  0.00     0.163 HD
BRANCH  26  29
HETATM   29  C   UNL     1      20.231  46.566  46.796  1.00  0.00     0.177 A 
HETATM   30  N   UNL     1      18.894  46.265  46.781  1.00  0.00    -0.124 NA
HETATM   31  N   UNL     1      18.276  47.078  47.618  1.00  0.00    -0.058 NA
HETATM   32  N   UNL     1      19.196  47.897  48.211  1.00  0.00    -0.188 N 
HETATM   33  C   UNL     1      20.458  47.618  47.674  1.00  0.00     0.109 A 
BRANCH  32  34
HETATM   34  C   UNL     1      18.815  48.821  49.217  1.00  0.00     0.230 A 
HETATM   35  N   UNL     1      19.091  48.604  50.502  1.00  0.00    -0.081 NA
HETATM   36  O   UNL     1      18.546  49.704  51.160  1.00  0.00    -0.103 OA
HETATM   37  N   UNL     1      17.941  50.580  50.263  1.00  0.00    -0.083 NA
HETATM   38  C   UNL     1      18.111  50.031  49.062  1.00  0.00     0.201 A 
BRANCH  38  39
HETATM   39  N   UNL     1      17.674  50.578  47.912  1.00  0.00    -0.379 N 
HETATM   40  H   UNL     1      17.645  50.012  47.070  1.00  0.00     0.158 HD
HETATM   41  H   UNL     1      17.691  51.583  47.754  1.00  0.00     0.158 HD
ENDBRANCH  38  39
ENDBRANCH  32  34
BRANCH  33  42
HETATM   42  C   UNL     1      21.692  48.331  47.988  1.00  0.00    -0.005 A 
HETATM   43  C   UNL     1      22.722  47.693  48.690  1.00  0.00     0.014 A 
HETATM   44  C   UNL     1      23.904  48.377  48.981  1.00  0.00     0.001 A 
HETATM   45  C   UNL     1      24.066  49.699  48.572  1.00  0.00     0.000 A 
HETATM   46  C   UNL     1      23.050  50.339  47.865  1.00  0.00     0.001 A 
HETATM   47  C   UNL     1      21.869  49.657  47.568  1.00  0.00     0.014 A 
ENDBRANCH  33  42
ENDBRANCH  26  29
ENDBRANCH   1  25
TORSDOF 9
ENDMDL
MODEL 6
REMARK VINA RESULT:     -10.0      3.814     12.606
REMARK  9 active torsions:
REMARK  status: ('A' for Active; 'I' for Inactive)
REMARK    1  A    between atoms: N_2  and  C_5 
REMARK    2  A    between atoms: C_10  and  N_11 
REMARK       I    between atoms: N_11  and  C_12 
REMARK    3  A    between atoms: C_12  and  C_14 
REMARK    4  A    between atoms: C_18  and  C_19 
REMARK    5  A    between atoms: C_19  and  N_20 
REMARK       I    between atoms: N_20  and  C_21 
REMARK    6  A    between atoms: C_21  and  C_23 
REMARK    7  A    between atoms: N_26  and  C_34 
REMARK    8  A    between atoms: C_27  and  C_28 
REMARK    9  A    between atoms: C_38  and  N_39 
ROOT
HETATM    1  C   UNL     1      23.595  49.842  48.712  1.00  0.00     0.161 C 
ENDROOT
BRANCH   1   2
HETATM    2  C   UNL     1      23.498  48.355  48.931  1.00  0.00    -0.040 A 
HETATM    3  C   UNL     1      22.721  47.567  48.069  1.00  0.00     0.009 A 
HETATM    4  C   UNL     1      22.652  46.186  48.242  1.00  0.00     0.002 A 
HETATM    5  C   UNL     1      23.348  45.578  49.286  1.00  0.00     0.017 A 
HETATM    6  C   UNL     1      24.122  46.347  50.167  1.00  0.00     0.033 A 
HETATM    7  C   UNL     1      24.212  47.734  49.972  1.00  0.00     0.026 A 
BRANCH   6   8
HETATM    8  C   UNL     1      24.838  45.632  51.269  1.00  0.00     0.257 C 
HETATM    9  N   UNL     1      26.076  46.136  51.601  1.00  0.00    -0.301 N 
HETATM   10  H   UNL     1      26.438  46.956  51.139  1.00  0.00     0.171 HD
HETATM   11  O   UNL     1      24.268  44.689  51.805  1.00  0.00    -0.267 OA
BRANCH   9  12
HETATM   12  C   UNL     1      26.908  45.678  52.593  1.00  0.00     0.174 A 
HETATM   13  N   UNL     1      27.684  44.631  52.404  1.00  0.00    -0.228 NA
HETATM   14  C   UNL     1      28.416  44.386  53.543  1.00  0.00     0.050 A 
HETATM   15  C   UNL     1      29.392  43.261  53.619  1.00  0.00     0.062 C 
HETATM   16  C   UNL     1      28.206  45.278  54.573  1.00  0.00     0.013 A 
HETATM   17  C   UNL     1      29.830  43.005  55.076  1.00  0.00     0.039 C 
HETATM   18  C   UNL     1      30.129  44.333  55.812  1.00  0.00     0.192 C 
HETATM   19  C   UNL     1      28.878  45.244  55.902  1.00  0.00     0.081 C 
HETATM   20  S   UNL     1      27.028  46.416  54.130  1.00  0.00    -0.055 SA
BRANCH  18  21
HETATM   21  N   UNL     1      30.760  44.054  57.180  1.00  0.00    -0.074 N 
HETATM   22  C   UNL     1      32.102  43.368  57.069  1.00  0.00     0.269 C 
HETATM   23  H   UNL     1      30.146  43.362  57.633  1.00  0.00     0.279 HD
HETATM   24  C   UNL     1      30.828  45.218  58.135  1.00  0.00     0.269 C 
ENDBRANCH  18  21
ENDBRANCH   9  12
ENDBRANCH   6   8
ENDBRANCH   1   2
BRANCH   1  25
HETATM   25  N   UNL     1      22.341  50.379  48.250  1.00  0.00    -0.351 N 
HETATM   26  C   UNL     1      21.374  50.792  49.141  1.00  0.00     0.274 C 
HETATM   27  O   UNL     1      21.578  50.868  50.348  1.00  0.00    -0.266 OA
HETATM   28  H   UNL     1      22.057  50.234  47.287  1.00  0.00     0.163 HD
BRANCH  26  29
HETATM   29  C   UNL     1      20.097  51.096  48.505  1.00  0.00     0.177 A 
HETATM   30  N   UNL     1      19.612  52.377  48.446  1.00  0.00    -0.124 NA
HETATM   31  N   UNL     1      18.450  52.354  47.822  1.00  0.00    -0.058 NA
HETATM   32  N   UNL     1      18.172  51.072  47.437  1.00  0.00    -0.188 N 
HETATM   33  C   UNL     1      19.194  50.233  47.897  1.00  0.00     0.109 A 
BRANCH  32  34
HETATM   34  C   UNL     1      17.015  50.768  46.675  1.00  0.00     0.230 A 
HETATM   35  N   UNL     1      16.877  51.197  45.420  1.00  0.00    -0.081 NA
HETATM   36  O   UNL     1      15.626  50.722  45.032  1.00  0.00    -0.103 OA
HETATM   37  N   UNL     1      15.016  50.009  46.060  1.00  0.00    -0.083 NA
HETATM   38  C   UNL     1      15.879  50.039  47.074  1.00  0.00     0.201 A 
BRANCH  38  39
HETATM   39  N   UNL     1      15.667  49.449  48.266  1.00  0.00    -0.379 N 
HETATM   40  H   UNL     1      16.372  49.523  48.991  1.00  0.00     0.158 HD
HETATM   41  H   UNL     1      15.019  48.671  48.373  1.00  0.00     0.158 HD
ENDBRANCH  38  39
ENDBRANCH  32  34
BRANCH  33  42
HETATM   42  C   UNL     1      19.228  48.781  47.760  1.00  0.00    -0.005 A 
HETATM   43  C   UNL     1      19.053  47.957  48.879  1.00  0.00     0.014 A 
HETATM   44  C   UNL     1      19.079  46.568  48.741  1.00  0.00     0.001 A 
HETATM   45  C   UNL     1      19.278  45.992  47.487  1.00  0.00     0.000 A 
HETATM   46  C   UNL     1      19.445  46.805  46.367  1.00  0.00     0.001 A 
HETATM   47  C   UNL     1      19.415  48.194  46.501  1.00  0.00     0.014 A 
ENDBRANCH  33  42
ENDBRANCH  26  29
ENDBRANCH   1  25
TORSDOF 9
ENDMDL
MODEL 7
REMARK VINA RESULT:     -10.0      3.143      6.144
REMARK  9 active torsions:
REMARK  status: ('A' for Active; 'I' for Inactive)
REMARK    1  A    between atoms: N_2  and  C_5 
REMARK    2  A    between atoms: C_10  and  N_11 
REMARK       I    between atoms: N_11  and  C_12 
REMARK    3  A    between atoms: C_12  and  C_14 
REMARK    4  A    between atoms: C_18  and  C_19 
REMARK    5  A    between atoms: C_19  and  N_20 
REMARK       I    between atoms: N_20  and  C_21 
REMARK    6  A    between atoms: C_21  and  C_23 
REMARK    7  A    between atoms: N_26  and  C_34 
REMARK    8  A    between atoms: C_27  and  C_28 
REMARK    9  A    between atoms: C_38  and  N_39 
ROOT
HETATM    1  C   UNL     1      24.945  41.993  48.703  1.00  0.00     0.161 C 
ENDROOT
BRANCH   1   2
HETATM    2  C   UNL     1      23.735  42.370  47.888  1.00  0.00    -0.040 A 
HETATM    3  C   UNL     1      23.013  41.380  47.205  1.00  0.00     0.009 A 
HETATM    4  C   UNL     1      21.873  41.712  46.476  1.00  0.00     0.002 A 
HETATM    5  C   UNL     1      21.450  43.039  46.411  1.00  0.00     0.017 A 
HETATM    6  C   UNL     1      22.162  44.046  47.076  1.00  0.00     0.033 A 
HETATM    7  C   UNL     1      23.293  43.704  47.832  1.00  0.00     0.026 A 
BRANCH   6   8
HETATM    8  C   UNL     1      21.657  45.450  46.958  1.00  0.00     0.257 C 
HETATM    9  N   UNL     1      20.789  45.856  47.948  1.00  0.00    -0.301 N 
HETATM   10  H   UNL     1      20.554  45.239  48.710  1.00  0.00     0.171 HD
HETATM   11  O   UNL     1      22.067  46.130  46.024  1.00  0.00    -0.267 OA
BRANCH   9  12
HETATM   12  C   UNL     1      20.217  47.097  48.077  1.00  0.00     0.174 A 
HETATM   13  N   UNL     1      20.953  48.190  48.101  1.00  0.00    -0.228 NA
HETATM   14  C   UNL     1      20.140  49.291  48.233  1.00  0.00     0.050 A 
HETATM   15  C   UNL     1      20.698  50.674  48.279  1.00  0.00     0.062 C 
HETATM   16  C   UNL     1      18.790  49.018  48.275  1.00  0.00     0.013 A 
HETATM   17  C   UNL     1      19.633  51.686  48.752  1.00  0.00     0.039 C 
HETATM   18  C   UNL     1      18.271  51.429  48.063  1.00  0.00     0.192 C 
HETATM   19  C   UNL     1      17.702  50.028  48.402  1.00  0.00     0.081 C 
HETATM   20  S   UNL     1      18.530  47.343  48.203  1.00  0.00    -0.055 SA
BRANCH  18  21
HETATM   21  N   UNL     1      17.291  52.562  48.381  1.00  0.00    -0.074 N 
HETATM   22  C   UNL     1      15.966  52.395  47.674  1.00  0.00     0.269 C 
HETATM   23  H   UNL     1      17.704  53.411  47.972  1.00  0.00     0.279 HD
HETATM   24  C   UNL     1      17.085  52.878  49.841  1.00  0.00     0.269 C 
ENDBRANCH  18  21
ENDBRANCH   9  12
ENDBRANCH   6   8
ENDBRANCH   1   2
BRANCH   1  25
HETATM   25  N   UNL     1      25.115  42.888  49.819  1.00  0.00    -0.351 N 
HETATM   26  C   UNL     1      26.325  43.504  50.056  1.00  0.00     0.274 C 
HETATM   27  O   UNL     1      27.260  43.450  49.264  1.00  0.00    -0.266 OA
HETATM   28  H   UNL     1      24.438  42.884  50.574  1.00  0.00     0.163 HD
BRANCH  26  29
HETATM   29  C   UNL     1      26.379  44.191  51.342  1.00  0.00     0.177 A 
HETATM   30  N   UNL     1      26.672  43.521  52.502  1.00  0.00    -0.124 NA
HETATM   31  N   UNL     1      26.648  44.386  53.499  1.00  0.00    -0.058 NA
HETATM   32  N   UNL     1      26.372  45.631  53.007  1.00  0.00    -0.188 N 
HETATM   33  C   UNL     1      26.154  45.532  51.628  1.00  0.00     0.109 A 
BRANCH  32  34
HETATM   34  C   UNL     1      26.363  46.769  53.854  1.00  0.00     0.230 A 
HETATM   35  N   UNL     1      25.352  47.638  53.841  1.00  0.00    -0.081 NA
HETATM   36  O   UNL     1      25.719  48.604  54.774  1.00  0.00    -0.103 OA
HETATM   37  N   UNL     1      26.953  48.311  55.345  1.00  0.00    -0.083 NA
HETATM   38  C   UNL     1      27.349  47.174  54.774  1.00  0.00     0.201 A 
BRANCH  38  39
HETATM   39  N   UNL     1      28.502  46.544  55.063  1.00  0.00    -0.379 N 
HETATM   40  H   UNL     1      29.205  47.019  55.620  1.00  0.00     0.158 HD
HETATM   41  H   UNL     1      28.852  45.776  54.494  1.00  0.00     0.158 HD
ENDBRANCH  38  39
ENDBRANCH  32  34
BRANCH  33  42
HETATM   42  C   UNL     1      25.755  46.626  50.749  1.00  0.00    -0.005 A 
HETATM   43  C   UNL     1      24.410  46.809  50.408  1.00  0.00     0.014 A 
HETATM   44  C   UNL     1      24.032  47.862  49.573  1.00  0.00     0.001 A 
HETATM   45  C   UNL     1      24.994  48.741  49.076  1.00  0.00     0.000 A 
HETATM   46  C   UNL     1      26.334  48.571  49.418  1.00  0.00     0.001 A 
HETATM   47  C   UNL     1      26.714  47.522  50.256  1.00  0.00     0.014 A 
ENDBRANCH  33  42
ENDBRANCH  26  29
ENDBRANCH   1  25
TORSDOF 9
ENDMDL
MODEL 8
REMARK VINA RESULT:      -9.9      4.443     12.219
REMARK  9 active torsions:
REMARK  status: ('A' for Active; 'I' for Inactive)
REMARK    1  A    between atoms: N_2  and  C_5 
REMARK    2  A    between atoms: C_10  and  N_11 
REMARK       I    between atoms: N_11  and  C_12 
REMARK    3  A    between atoms: C_12  and  C_14 
REMARK    4  A    between atoms: C_18  and  C_19 
REMARK    5  A    between atoms: C_19  and  N_20 
REMARK       I    between atoms: N_20  and  C_21 
REMARK    6  A    between atoms: C_21  and  C_23 
REMARK    7  A    between atoms: N_26  and  C_34 
REMARK    8  A    between atoms: C_27  and  C_28 
REMARK    9  A    between atoms: C_38  and  N_39 
ROOT
HETATM    1  C   UNL     1      22.013  44.413  48.364  1.00  0.00     0.161 C 
ENDROOT
BRANCH   1   2
HETATM    2  C   UNL     1      22.762  45.653  48.777  1.00  0.00    -0.040 A 
HETATM    3  C   UNL     1      22.411  46.899  48.237  1.00  0.00     0.009 A 
HETATM    4  C   UNL     1      23.073  48.057  48.637  1.00  0.00     0.002 A 
HETATM    5  C   UNL     1      24.103  47.982  49.574  1.00  0.00     0.017 A 
HETATM    6  C   UNL     1      24.479  46.746  50.119  1.00  0.00     0.033 A 
HETATM    7  C   UNL     1      23.790  45.586  49.734  1.00  0.00     0.026 A 
BRANCH   6   8
HETATM    8  C   UNL     1      25.598  46.736  51.114  1.00  0.00     0.257 C 
HETATM    9  N   UNL     1      25.788  45.548  51.784  1.00  0.00    -0.301 N 
HETATM   10  H   UNL     1      25.219  44.742  51.575  1.00  0.00     0.171 HD
HETATM   11  O   UNL     1      26.267  47.756  51.234  1.00  0.00    -0.267 OA
BRANCH   9  12
HETATM   12  C   UNL     1      26.761  45.280  52.715  1.00  0.00     0.174 A 
HETATM   13  N   UNL     1      27.640  44.317  52.527  1.00  0.00    -0.228 NA
HETATM   14  C   UNL     1      28.501  44.261  53.598  1.00  0.00     0.050 A 
HETATM   15  C   UNL     1      29.612  43.268  53.658  1.00  0.00     0.062 C 
HETATM   16  C   UNL     1      28.281  45.210  54.573  1.00  0.00     0.013 A 
HETATM   17  C   UNL     1      30.215  43.194  55.077  1.00  0.00     0.039 C 
HETATM   18  C   UNL     1      30.415  44.608  55.673  1.00  0.00     0.192 C 
HETATM   19  C   UNL     1      29.075  45.372  55.823  1.00  0.00     0.081 C 
HETATM   20  S   UNL     1      26.934  46.160  54.170  1.00  0.00    -0.055 SA
BRANCH  18  21
HETATM   21  N   UNL     1      31.202  44.526  56.985  1.00  0.00    -0.074 N 
HETATM   22  C   UNL     1      30.468  45.166  58.140  1.00  0.00     0.269 C 
HETATM   23  H   UNL     1      32.037  45.112  56.845  1.00  0.00     0.279 HD
HETATM   24  C   UNL     1      31.725  43.165  57.368  1.00  0.00     0.269 C 
ENDBRANCH  18  21
ENDBRANCH   9  12
ENDBRANCH   6   8
ENDBRANCH   1   2
BRANCH   1  25
HETATM   25  N   UNL     1      20.685  44.737  47.912  1.00  0.00    -0.351 N 
HETATM   26  C   UNL     1      20.432  45.003  46.583  1.00  0.00     0.274 C 
HETATM   27  O   UNL     1      21.271  44.834  45.705  1.00  0.00    -0.266 OA
HETATM   28  H   UNL     1      19.979  45.013  48.586  1.00  0.00     0.163 HD
BRANCH  26  29
HETATM   29  C   UNL     1      19.090  45.525  46.346  1.00  0.00     0.177 A 
HETATM   30  N   UNL     1      18.178  44.838  45.588  1.00  0.00    -0.124 NA
HETATM   31  N   UNL     1      17.062  45.541  45.543  1.00  0.00    -0.058 NA
HETATM   32  N   UNL     1      17.215  46.676  46.290  1.00  0.00    -0.188 N 
HETATM   33  C   UNL     1      18.523  46.714  46.787  1.00  0.00     0.109 A 
BRANCH  32  34
HETATM   34  C   UNL     1      16.139  47.581  46.479  1.00  0.00     0.230 A 
HETATM   35  N   UNL     1      15.702  47.896  47.698  1.00  0.00    -0.081 NA
HETATM   36  O   UNL     1      14.645  48.774  47.466  1.00  0.00    -0.103 OA
HETATM   37  N   UNL     1      14.451  48.981  46.104  1.00  0.00    -0.083 NA
HETATM   38  C   UNL     1      15.378  48.242  45.496  1.00  0.00     0.201 A 
BRANCH  38  39
HETATM   39  N   UNL     1      15.535  48.173  44.161  1.00  0.00    -0.379 N 
HETATM   40  H   UNL     1      14.806  48.531  43.553  1.00  0.00     0.158 HD
HETATM   41  H   UNL     1      16.163  47.499  43.728  1.00  0.00     0.158 HD
ENDBRANCH  38  39
ENDBRANCH  32  34
BRANCH  33  42
HETATM   42  C   UNL     1      19.106  47.802  47.565  1.00  0.00    -0.005 A 
HETATM   43  C   UNL     1      19.673  48.909  46.923  1.00  0.00     0.014 A 
HETATM   44  C   UNL     1      20.223  49.952  47.672  1.00  0.00     0.001 A 
HETATM   45  C   UNL     1      20.207  49.897  49.065  1.00  0.00     0.000 A 
HETATM   46  C   UNL     1      19.636  48.802  49.711  1.00  0.00     0.001 A 
HETATM   47  C   UNL     1      19.082  47.761  48.966  1.00  0.00     0.014 A 
ENDBRANCH  33  42
ENDBRANCH  26  29
ENDBRANCH   1  25
TORSDOF 9
ENDMDL
MODEL 9
REMARK VINA RESULT:      -9.9      4.238     12.632
REMARK  9 active torsions:
REMARK  status: ('A' for Active; 'I' for Inactive)
REMARK    1  A    between atoms: N_2  and  C_5 
REMARK    2  A    between atoms: C_10  and  N_11 
REMARK       I    between atoms: N_11  and  C_12 
REMARK    3  A    between atoms: C_12  and  C_14 
REMARK    4  A    between atoms: C_18  and  C_19 
REMARK    5  A    between atoms: C_19  and  N_20 
REMARK       I    between atoms: N_20  and  C_21 
REMARK    6  A    between atoms: C_21  and  C_23 
REMARK    7  A    between atoms: N_26  and  C_34 
REMARK    8  A    between atoms: C_27  and  C_28 
REMARK    9  A    between atoms: C_38  and  N_39 
ROOT
HETATM    1  C   UNL     1      20.659  51.419  48.581  1.00  0.00     0.161 C 
ENDROOT
BRANCH   1   2
HETATM    2  C   UNL     1      21.312  50.065  48.475  1.00  0.00    -0.040 A 
HETATM    3  C   UNL     1      20.769  49.087  47.630  1.00  0.00     0.009 A 
HETATM    4  C   UNL     1      21.383  47.843  47.499  1.00  0.00     0.002 A 
HETATM    5  C   UNL     1      22.542  47.559  48.221  1.00  0.00     0.017 A 
HETATM    6  C   UNL     1      23.097  48.518  49.081  1.00  0.00     0.033 A 
HETATM    7  C   UNL     1      22.490  49.778  49.188  1.00  0.00     0.026 A 
BRANCH   6   8
HETATM    8  C   UNL     1      24.336  48.144  49.831  1.00  0.00     0.257 C 
HETATM    9  N   UNL     1      24.171  47.203  50.823  1.00  0.00    -0.301 N 
HETATM   10  H   UNL     1      23.269  46.784  50.990  1.00  0.00     0.171 HD
HETATM   11  O   UNL     1      25.391  48.670  49.493  1.00  0.00    -0.267 OA
BRANCH   9  12
HETATM   12  C   UNL     1      25.154  46.676  51.625  1.00  0.00     0.174 A 
HETATM   13  N   UNL     1      25.524  47.277  52.737  1.00  0.00    -0.228 NA
HETATM   14  C   UNL     1      26.514  46.544  53.350  1.00  0.00     0.050 A 
HETATM   15  C   UNL     1      27.123  46.979  54.640  1.00  0.00     0.062 C 
HETATM   16  C   UNL     1      26.858  45.375  52.706  1.00  0.00     0.013 A 
HETATM   17  C   UNL     1      28.408  46.180  54.944  1.00  0.00     0.039 C 
HETATM   18  C   UNL     1      28.210  44.672  54.657  1.00  0.00     0.192 C 
HETATM   19  C   UNL     1      27.886  44.401  53.166  1.00  0.00     0.081 C 
HETATM   20  S   UNL     1      25.964  45.212  51.273  1.00  0.00    -0.055 SA
BRANCH  18  21
HETATM   21  N   UNL     1      29.416  43.872  55.159  1.00  0.00    -0.074 N 
HETATM   22  C   UNL     1      30.096  43.097  54.054  1.00  0.00     0.269 C 
HETATM   23  H   UNL     1      29.031  43.153  55.787  1.00  0.00     0.279 HD
HETATM   24  C   UNL     1      30.425  44.629  55.984  1.00  0.00     0.269 C 
ENDBRANCH  18  21
ENDBRANCH   9  12
ENDBRANCH   6   8
ENDBRANCH   1   2
BRANCH   1  25
HETATM   25  N   UNL     1      19.335  51.400  48.015  1.00  0.00    -0.351 N 
HETATM   26  C   UNL     1      18.239  51.078  48.785  1.00  0.00     0.274 C 
HETATM   27  O   UNL     1      18.304  50.943  50.002  1.00  0.00    -0.266 OA
HETATM   28  H   UNL     1      19.220  51.379  47.007  1.00  0.00     0.163 HD
BRANCH  26  29
HETATM   29  C   UNL     1      17.021  50.893  48.004  1.00  0.00     0.177 A 
HETATM   30  N   UNL     1      16.130  51.918  47.810  1.00  0.00    -0.124 NA
HETATM   31  N   UNL     1      15.132  51.468  47.075  1.00  0.00    -0.058 NA
HETATM   32  N   UNL     1      15.366  50.160  46.751  1.00  0.00    -0.188 N 
HETATM   33  C   UNL     1      16.554  49.750  47.367  1.00  0.00     0.109 A 
BRANCH  32  34
HETATM   34  C   UNL     1      14.486  49.446  45.897  1.00  0.00     0.230 A 
HETATM   35  N   UNL     1      13.954  48.281  46.264  1.00  0.00    -0.081 NA
HETATM   36  O   UNL     1      13.184  47.897  45.169  1.00  0.00    -0.103 OA
HETATM   37  N   UNL     1      13.259  48.836  44.145  1.00  0.00    -0.083 NA
HETATM   38  C   UNL     1      14.064  49.794  44.599  1.00  0.00     0.201 A 
BRANCH  38  39
HETATM   39  N   UNL     1      14.390  50.900  43.906  1.00  0.00    -0.379 N 
HETATM   40  H   UNL     1      14.679  51.735  44.405  1.00  0.00     0.158 HD
HETATM   41  H   UNL     1      14.052  51.061  42.959  1.00  0.00     0.158 HD
ENDBRANCH  38  39
ENDBRANCH  32  34
BRANCH  33  42
HETATM   42  C   UNL     1      17.108  48.401  47.333  1.00  0.00    -0.005 A 
HETATM   43  C   UNL     1      17.733  47.920  46.176  1.00  0.00     0.014 A 
HETATM   44  C   UNL     1      18.269  46.631  46.150  1.00  0.00     0.001 A 
HETATM   45  C   UNL     1      18.187  45.816  47.278  1.00  0.00     0.000 A 
HETATM   46  C   UNL     1      17.574  46.290  48.436  1.00  0.00     0.001 A 
HETATM   47  C   UNL     1      17.042  47.580  48.467  1.00  0.00     0.014 A 
ENDBRANCH  33  42
ENDBRANCH  26  29
ENDBRANCH   1  25
TORSDOF 9
ENDMDL
MODEL 10
REMARK VINA RESULT:      -9.6      3.620     13.417
REMARK  9 active torsions:
REMARK  status: ('A' for Active; 'I' for Inactive)
REMARK    1  A    between atoms: N_2  and  C_5 
REMARK    2  A    between atoms: C_10  and  N_11 
REMARK       I    between atoms: N_11  and  C_12 
REMARK    3  A    between atoms: C_12  and  C_14 
REMARK    4  A    between atoms: C_18  and  C_19 
REMARK    5  A    between atoms: C_19  and  N_20 
REMARK       I    between atoms: N_20  and  C_21 
REMARK    6  A    between atoms: C_21  and  C_23 
REMARK    7  A    between atoms: N_26  and  C_34 
REMARK    8  A    between atoms: C_27  and  C_28 
REMARK    9  A    between atoms: C_38  and  N_39 
ROOT
HETATM    1  C   UNL     1      20.057  47.917  46.960  1.00  0.00     0.161 C 
ENDROOT
BRANCH   1   2
HETATM    2  C   UNL     1      21.124  48.708  47.669  1.00  0.00    -0.040 A 
HETATM    3  C   UNL     1      21.034  50.106  47.736  1.00  0.00     0.009 A 
HETATM    4  C   UNL     1      21.997  50.847  48.418  1.00  0.00     0.002 A 
HETATM    5  C   UNL     1      23.069  50.198  49.029  1.00  0.00     0.017 A 
HETATM    6  C   UNL     1      23.187  48.802  48.965  1.00  0.00     0.033 A 
HETATM    7  C   UNL     1      22.199  48.059  48.302  1.00  0.00     0.026 A 
BRANCH   6   8
HETATM    8  C   UNL     1      24.366  48.172  49.637  1.00  0.00     0.257 C 
HETATM    9  N   UNL     1      24.111  46.998  50.311  1.00  0.00    -0.301 N 
HETATM   10  H   UNL     1      23.187  46.593  50.307  1.00  0.00     0.171 HD
HETATM   11  O   UNL     1      25.456  48.721  49.515  1.00  0.00    -0.267 OA
BRANCH   9  12
HETATM   12  C   UNL     1      25.026  46.220  50.976  1.00  0.00     0.174 A 
HETATM   13  N   UNL     1      25.348  46.463  52.230  1.00  0.00    -0.228 NA
HETATM   14  C   UNL     1      26.275  45.540  52.656  1.00  0.00     0.050 A 
HETATM   15  C   UNL     1      26.819  45.562  54.044  1.00  0.00     0.062 C 
HETATM   16  C   UNL     1      26.618  44.585  51.723  1.00  0.00     0.013 A 
HETATM   17  C   UNL     1      28.057  44.649  54.170  1.00  0.00     0.039 C 
HETATM   18  C   UNL     1      27.827  43.295  53.456  1.00  0.00     0.192 C 
HETATM   19  C   UNL     1      27.584  43.471  51.935  1.00  0.00     0.081 C 
HETATM   20  S   UNL     1      25.807  44.877  50.262  1.00  0.00    -0.055 SA
BRANCH  18  21
HETATM   21  N   UNL     1      28.973  42.328  53.767  1.00  0.00    -0.074 N 
HETATM   22  C   UNL     1      28.682  40.919  53.305  1.00  0.00     0.269 C 
HETATM   23  H   UNL     1      29.015  42.266  54.794  1.00  0.00     0.279 HD
HETATM   24  C   UNL     1      30.350  42.762  53.334  1.00  0.00     0.269 C 
ENDBRANCH  18  21
ENDBRANCH   9  12
ENDBRANCH   6   8
ENDBRANCH   1   2
BRANCH   1  25
HETATM   25  N   UNL     1      18.993  48.774  46.505  1.00  0.00    -0.351 N 
HETATM   26  C   UNL     1      17.706  48.298  46.374  1.00  0.00     0.274 C 
HETATM   27  O   UNL     1      17.368  47.189  46.772  1.00  0.00    -0.266 OA
HETATM   28  H   UNL     1      19.215  49.651  46.047  1.00  0.00     0.163 HD
BRANCH  26  29
HETATM   29  C   UNL     1      16.814  49.233  45.696  1.00  0.00     0.177 A 
HETATM   30  N   UNL     1      16.278  48.950  44.466  1.00  0.00    -0.124 NA
HETATM   31  N   UNL     1      15.519  49.965  44.099  1.00  0.00    -0.058 NA
HETATM   32  N   UNL     1      15.521  50.908  45.088  1.00  0.00    -0.188 N 
HETATM   33  C   UNL     1      16.376  50.484  46.112  1.00  0.00     0.109 A 
BRANCH  32  34
HETATM   34  C   UNL     1      14.722  52.076  44.991  1.00  0.00     0.230 A 
HETATM   35  N   UNL     1      13.392  52.018  45.067  1.00  0.00    -0.081 NA
HETATM   36  O   UNL     1      12.982  53.339  44.908  1.00  0.00    -0.103 OA
HETATM   37  N   UNL     1      14.071  54.188  44.734  1.00  0.00    -0.083 NA
HETATM   38  C   UNL     1      15.146  53.403  44.787  1.00  0.00     0.201 A 
BRANCH  38  39
HETATM   39  N   UNL     1      16.412  53.845  44.669  1.00  0.00    -0.379 N 
HETATM   40  H   UNL     1      17.050  53.745  45.452  1.00  0.00     0.158 HD
HETATM   41  H   UNL     1      16.672  54.559  43.992  1.00  0.00     0.158 HD
ENDBRANCH  38  39
ENDBRANCH  32  34
BRANCH  33  42
HETATM   42  C   UNL     1      16.712  51.247  47.310  1.00  0.00    -0.005 A 
HETATM   43  C   UNL     1      15.835  51.278  48.400  1.00  0.00     0.014 A 
HETATM   44  C   UNL     1      16.165  52.003  49.548  1.00  0.00     0.001 A 
HETATM   45  C   UNL     1      17.371  52.698  49.614  1.00  0.00     0.000 A 
HETATM   46  C   UNL     1      18.253  52.665  48.536  1.00  0.00     0.001 A 
HETATM   47  C   UNL     1      17.929  51.937  47.390  1.00  0.00     0.014 A 
ENDBRANCH  33  42
ENDBRANCH  26  29
ENDBRANCH   1  25
TORSDOF 9
ENDMDL
