MODEL 1
REMARK VINA RESULT:      -9.8      0.000      0.000
REMARK  5 active torsions:
REMARK  status: ('A' for Active; 'I' for Inactive)
REMARK    1  A    between atoms: O_2  and  C_3 
REMARK    2  A    between atoms: C_6  and  C_7 
REMARK    3  A    between atoms: C_12  and  C_13 
REMARK    4  A    between atoms: N_14  and  N_15 
REMARK       I    between atoms: N_15  and  C_16 
REMARK    5  A    between atoms: C_16  and  C_17 
ROOT
HETATM    1  C   UNL     1      26.701  45.198  53.419  1.00  0.00     0.154 C 
HETATM    2  N   UNL     1      26.371  45.072  52.171  1.00  0.00    -0.183 NA
ENDROOT
BRANCH   1   3
HETATM    3  C   UNL     1      26.709  46.404  54.217  1.00  0.00     0.031 A 
HETATM    4  C   UNL     1      27.503  46.833  55.331  1.00  0.00     0.100 A 
HETATM    5  N   UNL     1      27.148  48.076  55.705  1.00  0.00    -0.174 NA
HETATM    6  N   UNL     1      26.102  48.387  54.934  1.00  0.00    -0.288 N 
HETATM    7  H   UNL     1      25.648  49.284  55.079  1.00  0.00     0.188 HD
HETATM    8  C   UNL     1      25.794  47.422  54.031  1.00  0.00     0.124 A 
BRANCH   4   9
HETATM    9  C   UNL     1      28.580  46.144  56.052  1.00  0.00    -0.005 A 
HETATM   10  C   UNL     1      29.471  45.282  55.404  1.00  0.00     0.016 A 
HETATM   11  C   UNL     1      30.511  44.672  56.113  1.00  0.00     0.037 A 
HETATM   12  C   UNL     1      30.675  44.898  57.480  1.00  0.00     0.068 A 
HETATM   13  C   UNL     1      29.776  45.731  58.142  1.00  0.00     0.037 A 
HETATM   14  C   UNL     1      28.737  46.346  57.433  1.00  0.00     0.016 A 
BRANCH  12  15
HETATM   15  O   UNL     1      31.733  44.246  58.048  1.00  0.00    -0.356 OA
HETATM   16  C   UNL     1      32.231  43.107  57.357  1.00  0.00     0.210 C 
ENDBRANCH  12  15
ENDBRANCH   4   9
ENDBRANCH   1   3
BRANCH   2  17
HETATM   17  N   UNL     1      25.896  46.136  51.463  1.00  0.00    -0.243 N 
HETATM   18  C   UNL     1      26.461  46.430  50.228  1.00  0.00     0.271 C 
HETATM   19  O   UNL     1      27.331  45.744  49.695  1.00  0.00    -0.266 OA
HETATM   20  H   UNL     1      25.165  46.701  51.866  1.00  0.00     0.192 HD
BRANCH  18  21
HETATM   21  C   UNL     1      25.981  47.664  49.525  1.00  0.00     0.036 A 
HETATM   22  C   UNL     1      24.589  47.812  49.373  1.00  0.00     0.057 A 
HETATM   23  C   UNL     1      24.115  48.924  48.711  1.00  0.00     0.106 A 
HETATM   24  C   UNL     1      24.959  49.880  48.204  1.00  0.00     0.105 A 
HETATM   25  O   UNL     1      22.806  49.213  48.478  1.00  0.00    -0.323 OA
HETATM   26  O   UNL     1      24.292  50.890  47.585  1.00  0.00    -0.323 OA
HETATM   27  C   UNL     1      26.325  49.778  48.336  1.00  0.00     0.041 A 
HETATM   28  C   UNL     1      22.925  50.457  47.759  1.00  0.00     0.352 A 
HETATM   29  C   UNL     1      26.841  48.659  49.004  1.00  0.00     0.020 A 
ENDBRANCH  18  21
ENDBRANCH   2  17
TORSDOF 5
ENDMDL
MODEL 2
REMARK VINA RESULT:      -9.6      2.704      4.835
REMARK  5 active torsions:
REMARK  status: ('A' for Active; 'I' for Inactive)
REMARK    1  A    between atoms: O_2  and  C_3 
REMARK    2  A    between atoms: C_6  and  C_7 
REMARK    3  A    between atoms: C_12  and  C_13 
REMARK    4  A    between atoms: N_14  and  N_15 
REMARK       I    between atoms: N_15  and  C_16 
REMARK    5  A    between atoms: C_16  and  C_17 
ROOT
HETATM    1  C   UNL     1      25.831  47.424  49.885  1.00  0.00     0.154 C 
HETATM    2  N   UNL     1      25.380  48.566  49.469  1.00  0.00    -0.183 NA
ENDROOT
BRANCH   1   3
HETATM    3  C   UNL     1      25.083  46.332  50.466  1.00  0.00     0.031 A 
HETATM    4  C   UNL     1      25.126  45.690  51.747  1.00  0.00     0.100 A 
HETATM    5  N   UNL     1      24.183  44.732  51.820  1.00  0.00    -0.174 NA
HETATM    6  N   UNL     1      23.631  44.691  50.604  1.00  0.00    -0.288 N 
HETATM    7  H   UNL     1      22.909  44.000  50.427  1.00  0.00     0.188 HD
HETATM    8  C   UNL     1      24.135  45.622  49.754  1.00  0.00     0.124 A 
BRANCH   4   9
HETATM    9  C   UNL     1      25.996  45.935  52.904  1.00  0.00    -0.005 A 
HETATM   10  C   UNL     1      26.946  44.999  53.325  1.00  0.00     0.016 A 
HETATM   11  C   UNL     1      27.787  45.281  54.408  1.00  0.00     0.037 A 
HETATM   12  C   UNL     1      27.688  46.490  55.097  1.00  0.00     0.068 A 
HETATM   13  C   UNL     1      26.725  47.417  54.704  1.00  0.00     0.037 A 
HETATM   14  C   UNL     1      25.885  47.138  53.619  1.00  0.00     0.016 A 
BRANCH  12  15
HETATM   15  O   UNL     1      28.572  46.638  56.128  1.00  0.00    -0.356 OA
HETATM   16  C   UNL     1      29.712  45.787  56.125  1.00  0.00     0.210 C 
ENDBRANCH  12  15
ENDBRANCH   4   9
ENDBRANCH   1   3
BRANCH   2  17
HETATM   17  N   UNL     1      24.043  48.833  49.476  1.00  0.00    -0.243 N 
HETATM   18  C   UNL     1      23.497  49.570  48.434  1.00  0.00     0.271 C 
HETATM   19  O   UNL     1      24.140  49.948  47.456  1.00  0.00    -0.266 OA
HETATM   20  H   UNL     1      23.488  48.513  50.255  1.00  0.00     0.192 HD
BRANCH  18  21
HETATM   21  C   UNL     1      22.044  49.928  48.527  1.00  0.00     0.036 A 
HETATM   22  C   UNL     1      21.130  48.864  48.644  1.00  0.00     0.057 A 
HETATM   23  C   UNL     1      19.785  49.157  48.709  1.00  0.00     0.106 A 
HETATM   24  C   UNL     1      19.322  50.448  48.665  1.00  0.00     0.105 A 
HETATM   25  O   UNL     1      18.778  48.249  48.818  1.00  0.00    -0.323 OA
HETATM   26  O   UNL     1      17.966  50.519  48.738  1.00  0.00    -0.323 OA
HETATM   27  C   UNL     1      20.181  51.518  48.557  1.00  0.00     0.041 A 
HETATM   28  C   UNL     1      17.627  49.118  48.831  1.00  0.00     0.352 A 
HETATM   29  C   UNL     1      21.555  51.255  48.489  1.00  0.00     0.020 A 
ENDBRANCH  18  21
ENDBRANCH   2  17
TORSDOF 5
ENDMDL
MODEL 3
REMARK VINA RESULT:      -9.3     12.634     15.047
REMARK  5 active torsions:
REMARK  status: ('A' for Active; 'I' for Inactive)
REMARK    1  A    between atoms: O_2  and  C_3 
REMARK    2  A    between atoms: C_6  and  C_7 
REMARK    3  A    between atoms: C_12  and  C_13 
REMARK    4  A    between atoms: N_14  and  N_15 
REMARK       I    between atoms: N_15  and  C_16 
REMARK    5  A    between atoms: C_16  and  C_17 
ROOT
HETATM    1  C   UNL     1      28.299  52.021  40.971  1.00  0.00     0.154 C 
HETATM    2  N   UNL     1      29.034  52.003  42.039  1.00  0.00    -0.183 NA
ENDROOT
BRANCH   1   3
HETATM    3  C   UNL     1      28.735  52.002  39.593  1.00  0.00     0.031 A 
HETATM    4  C   UNL     1      29.170  50.951  38.721  1.00  0.00     0.100 A 
HETATM    5  N   UNL     1      29.435  51.441  37.496  1.00  0.00    -0.174 NA
HETATM    6  N   UNL     1      29.278  52.763  37.608  1.00  0.00    -0.288 N 
HETATM    7  H   UNL     1      29.467  53.340  36.794  1.00  0.00     0.188 HD
HETATM    8  C   UNL     1      28.866  53.153  38.841  1.00  0.00     0.124 A 
BRANCH   4   9
HETATM    9  C   UNL     1      29.340  49.514  38.974  1.00  0.00    -0.005 A 
HETATM   10  C   UNL     1      28.264  48.692  39.320  1.00  0.00     0.016 A 
HETATM   11  C   UNL     1      28.453  47.319  39.515  1.00  0.00     0.037 A 
HETATM   12  C   UNL     1      29.718  46.745  39.382  1.00  0.00     0.068 A 
HETATM   13  C   UNL     1      30.802  47.559  39.066  1.00  0.00     0.037 A 
HETATM   14  C   UNL     1      30.614  48.932  38.866  1.00  0.00     0.016 A 
BRANCH  12  15
HETATM   15  O   UNL     1      29.761  45.396  39.594  1.00  0.00    -0.356 OA
HETATM   16  C   UNL     1      28.682  44.629  39.073  1.00  0.00     0.210 C 
ENDBRANCH  12  15
ENDBRANCH   4   9
ENDBRANCH   1   3
BRANCH   2  17
HETATM   17  N   UNL     1      30.389  51.881  41.952  1.00  0.00    -0.243 N 
HETATM   18  C   UNL     1      30.970  50.638  42.167  1.00  0.00     0.271 C 
HETATM   19  O   UNL     1      30.326  49.610  42.370  1.00  0.00    -0.266 OA
HETATM   20  H   UNL     1      30.940  52.705  41.762  1.00  0.00     0.192 HD
BRANCH  18  21
HETATM   21  C   UNL     1      32.468  50.564  42.161  1.00  0.00     0.036 A 
HETATM   22  C   UNL     1      33.158  51.517  42.934  1.00  0.00     0.057 A 
HETATM   23  C   UNL     1      34.536  51.492  42.932  1.00  0.00     0.106 A 
HETATM   24  C   UNL     1      35.242  50.568  42.203  1.00  0.00     0.105 A 
HETATM   25  O   UNL     1      35.347  52.342  43.618  1.00  0.00    -0.323 OA
HETATM   26  O   UNL     1      36.587  50.718  42.335  1.00  0.00    -0.323 OA
HETATM   27  C   UNL     1      34.608  49.615  41.439  1.00  0.00     0.041 A 
HETATM   28  C   UNL     1      36.646  51.849  43.231  1.00  0.00     0.352 A 
HETATM   29  C   UNL     1      33.207  49.612  41.419  1.00  0.00     0.020 A 
ENDBRANCH  18  21
ENDBRANCH   2  17
TORSDOF 5
ENDMDL
MODEL 4
REMARK VINA RESULT:      -9.2     12.485     14.931
REMARK  5 active torsions:
REMARK  status: ('A' for Active; 'I' for Inactive)
REMARK    1  A    between atoms: O_2  and  C_3 
REMARK    2  A    between atoms: C_6  and  C_7 
REMARK    3  A    between atoms: C_12  and  C_13 
REMARK    4  A    between atoms: N_14  and  N_15 
REMARK       I    between atoms: N_15  and  C_16 
REMARK    5  A    between atoms: C_16  and  C_17 
ROOT
HETATM    1  C   UNL     1      29.219  48.196  40.614  1.00  0.00     0.154 C 
HETATM    2  N   UNL     1      30.312  47.955  41.268  1.00  0.00    -0.183 NA
ENDROOT
BRANCH   1   3
HETATM    3  C   UNL     1      28.545  49.465  40.448  1.00  0.00     0.031 A 
HETATM    4  C   UNL     1      28.997  50.767  40.056  1.00  0.00     0.100 A 
HETATM    5  N   UNL     1      27.962  51.626  40.012  1.00  0.00    -0.174 NA
HETATM    6  N   UNL     1      26.912  50.931  40.457  1.00  0.00    -0.288 N 
HETATM    7  H   UNL     1      26.019  51.408  40.540  1.00  0.00     0.188 HD
HETATM    8  C   UNL     1      27.205  49.635  40.738  1.00  0.00     0.124 A 
BRANCH   4   9
HETATM    9  C   UNL     1      30.343  51.243  39.713  1.00  0.00    -0.005 A 
HETATM   10  C   UNL     1      31.091  50.666  38.682  1.00  0.00     0.016 A 
HETATM   11  C   UNL     1      32.355  51.170  38.354  1.00  0.00     0.037 A 
HETATM   12  C   UNL     1      32.901  52.246  39.055  1.00  0.00     0.068 A 
HETATM   13  C   UNL     1      32.178  52.809  40.103  1.00  0.00     0.037 A 
HETATM   14  C   UNL     1      30.911  52.309  40.430  1.00  0.00     0.016 A 
BRANCH  12  15
HETATM   15  O   UNL     1      34.138  52.640  38.629  1.00  0.00    -0.356 OA
HETATM   16  C   UNL     1      35.108  52.907  39.633  1.00  0.00     0.210 C 
ENDBRANCH  12  15
ENDBRANCH   4   9
ENDBRANCH   1   3
BRANCH   2  17
HETATM   17  N   UNL     1      31.020  48.969  41.843  1.00  0.00    -0.243 N 
HETATM   18  C   UNL     1      32.397  49.016  41.665  1.00  0.00     0.271 C 
HETATM   19  O   UNL     1      33.020  48.227  40.957  1.00  0.00    -0.266 OA
HETATM   20  H   UNL     1      30.529  49.644  42.408  1.00  0.00     0.192 HD
BRANCH  18  21
HETATM   21  C   UNL     1      33.152  50.087  42.393  1.00  0.00     0.036 A 
HETATM   22  C   UNL     1      34.502  50.271  42.039  1.00  0.00     0.057 A 
HETATM   23  C   UNL     1      35.231  51.232  42.705  1.00  0.00     0.106 A 
HETATM   24  C   UNL     1      34.677  52.005  43.693  1.00  0.00     0.105 A 
HETATM   25  O   UNL     1      36.540  51.529  42.487  1.00  0.00    -0.323 OA
HETATM   26  O   UNL     1      35.565  52.887  44.225  1.00  0.00    -0.323 OA
HETATM   27  C   UNL     1      33.360  51.864  44.067  1.00  0.00     0.041 A 
HETATM   28  C   UNL     1      36.747  52.575  43.457  1.00  0.00     0.352 A 
HETATM   29  C   UNL     1      32.589  50.896  43.409  1.00  0.00     0.020 A 
ENDBRANCH  18  21
ENDBRANCH   2  17
TORSDOF 5
ENDMDL
MODEL 5
REMARK VINA RESULT:      -9.1      1.748      2.269
REMARK  5 active torsions:
REMARK  status: ('A' for Active; 'I' for Inactive)
REMARK    1  A    between atoms: O_2  and  C_3 
REMARK    2  A    between atoms: C_6  and  C_7 
REMARK    3  A    between atoms: C_12  and  C_13 
REMARK    4  A    between atoms: N_14  and  N_15 
REMARK       I    between atoms: N_15  and  C_16 
REMARK    5  A    between atoms: C_16  and  C_17 
ROOT
HETATM    1  C   UNL     1      27.598  44.135  51.154  1.00  0.00     0.154 C 
HETATM    2  N   UNL     1      27.646  44.797  50.040  1.00  0.00    -0.183 NA
ENDROOT
BRANCH   1   3
HETATM    3  C   UNL     1      26.732  44.368  52.288  1.00  0.00     0.031 A 
HETATM    4  C   UNL     1      26.981  44.540  53.689  1.00  0.00     0.100 A 
HETATM    5  N   UNL     1      25.828  44.774  54.343  1.00  0.00    -0.174 NA
HETATM    6  N   UNL     1      24.872  44.652  53.418  1.00  0.00    -0.288 N 
HETATM    7  H   UNL     1      23.905  44.756  53.710  1.00  0.00     0.188 HD
HETATM    8  C   UNL     1      25.356  44.404  52.174  1.00  0.00     0.124 A 
BRANCH   4   9
HETATM    9  C   UNL     1      28.242  44.506  54.442  1.00  0.00    -0.005 A 
HETATM   10  C   UNL     1      28.659  45.580  55.233  1.00  0.00     0.016 A 
HETATM   11  C   UNL     1      29.847  45.500  55.970  1.00  0.00     0.037 A 
HETATM   12  C   UNL     1      30.644  44.355  55.921  1.00  0.00     0.068 A 
HETATM   13  C   UNL     1      30.253  43.291  55.113  1.00  0.00     0.037 A 
HETATM   14  C   UNL     1      29.063  43.368  54.378  1.00  0.00     0.016 A 
BRANCH  12  15
HETATM   15  O   UNL     1      31.771  44.407  56.691  1.00  0.00    -0.356 OA
HETATM   16  C   UNL     1      32.118  43.225  57.402  1.00  0.00     0.210 C 
ENDBRANCH  12  15
ENDBRANCH   4   9
ENDBRANCH   1   3
BRANCH   2  17
HETATM   17  N   UNL     1      26.765  45.806  49.788  1.00  0.00    -0.243 N 
HETATM   18  C   UNL     1      27.229  46.975  49.199  1.00  0.00     0.271 C 
HETATM   19  O   UNL     1      28.389  47.136  48.824  1.00  0.00    -0.266 OA
HETATM   20  H   UNL     1      25.802  45.690  50.063  1.00  0.00     0.192 HD
BRANCH  18  21
HETATM   21  C   UNL     1      26.251  48.099  49.029  1.00  0.00     0.036 A 
HETATM   22  C   UNL     1      24.920  47.852  49.416  1.00  0.00     0.057 A 
HETATM   23  C   UNL     1      23.990  48.856  49.252  1.00  0.00     0.106 A 
HETATM   24  C   UNL     1      24.329  50.077  48.727  1.00  0.00     0.105 A 
HETATM   25  O   UNL     1      22.670  48.777  49.571  1.00  0.00    -0.323 OA
HETATM   26  O   UNL     1      23.267  50.923  48.645  1.00  0.00    -0.323 OA
HETATM   27  C   UNL     1      25.619  50.364  48.341  1.00  0.00     0.041 A 
HETATM   28  C   UNL     1      22.216  50.088  49.179  1.00  0.00     0.352 A 
HETATM   29  C   UNL     1      26.590  49.364  48.496  1.00  0.00     0.020 A 
ENDBRANCH  18  21
ENDBRANCH   2  17
TORSDOF 5
ENDMDL
MODEL 6
REMARK VINA RESULT:      -8.8     12.250     14.767
REMARK  5 active torsions:
REMARK  status: ('A' for Active; 'I' for Inactive)
REMARK    1  A    between atoms: O_2  and  C_3 
REMARK    2  A    between atoms: C_6  and  C_7 
REMARK    3  A    between atoms: C_12  and  C_13 
REMARK    4  A    between atoms: N_14  and  N_15 
REMARK       I    between atoms: N_15  and  C_16 
REMARK    5  A    between atoms: C_16  and  C_17 
ROOT
HETATM    1  C   UNL     1      28.456  47.478  38.196  1.00  0.00     0.154 C 
HETATM    2  N   UNL     1      29.732  47.670  38.330  1.00  0.00    -0.183 NA
ENDROOT
BRANCH   1   3
HETATM    3  C   UNL     1      27.417  47.701  39.176  1.00  0.00     0.031 A 
HETATM    4  C   UNL     1      27.031  48.846  39.947  1.00  0.00     0.100 A 
HETATM    5  N   UNL     1      25.956  48.557  40.704  1.00  0.00    -0.174 NA
HETATM    6  N   UNL     1      25.729  47.255  40.506  1.00  0.00    -0.288 N 
HETATM    7  H   UNL     1      24.971  46.816  41.020  1.00  0.00     0.188 HD
HETATM    8  C   UNL     1      26.576  46.693  39.607  1.00  0.00     0.124 A 
BRANCH   4   9
HETATM    9  C   UNL     1      27.610  50.194  40.003  1.00  0.00    -0.005 A 
HETATM   10  C   UNL     1      27.915  50.818  41.216  1.00  0.00     0.016 A 
HETATM   11  C   UNL     1      28.503  52.088  41.233  1.00  0.00     0.037 A 
HETATM   12  C   UNL     1      28.785  52.762  40.044  1.00  0.00     0.068 A 
HETATM   13  C   UNL     1      28.458  52.163  38.831  1.00  0.00     0.037 A 
HETATM   14  C   UNL     1      27.873  50.890  38.812  1.00  0.00     0.016 A 
BRANCH  12  15
HETATM   15  O   UNL     1      29.364  53.990  40.204  1.00  0.00    -0.356 OA
HETATM   16  C   UNL     1      30.695  54.013  40.705  1.00  0.00     0.210 C 
ENDBRANCH  12  15
ENDBRANCH   4   9
ENDBRANCH   1   3
BRANCH   2  17
HETATM   17  N   UNL     1      30.240  48.211  39.473  1.00  0.00    -0.243 N 
HETATM   18  C   UNL     1      31.047  49.338  39.385  1.00  0.00     0.271 C 
HETATM   19  O   UNL     1      31.284  49.927  38.332  1.00  0.00    -0.266 OA
HETATM   20  H   UNL     1      30.041  47.762  40.353  1.00  0.00     0.192 HD
BRANCH  18  21
HETATM   21  C   UNL     1      31.668  49.845  40.653  1.00  0.00     0.036 A 
HETATM   22  C   UNL     1      32.833  50.625  40.526  1.00  0.00     0.057 A 
HETATM   23  C   UNL     1      33.442  51.087  41.673  1.00  0.00     0.106 A 
HETATM   24  C   UNL     1      32.942  50.809  42.921  1.00  0.00     0.105 A 
HETATM   25  O   UNL     1      34.570  51.845  41.724  1.00  0.00    -0.323 OA
HETATM   26  O   UNL     1      33.691  51.353  43.916  1.00  0.00    -0.323 OA
HETATM   27  C   UNL     1      31.802  50.056  43.090  1.00  0.00     0.041 A 
HETATM   28  C   UNL     1      34.726  52.006  43.149  1.00  0.00     0.352 A 
HETATM   29  C   UNL     1      31.158  49.571  41.944  1.00  0.00     0.020 A 
ENDBRANCH  18  21
ENDBRANCH   2  17
TORSDOF 5
ENDMDL
MODEL 7
REMARK VINA RESULT:      -8.7      4.313     10.145
REMARK  5 active torsions:
REMARK  status: ('A' for Active; 'I' for Inactive)
REMARK    1  A    between atoms: O_2  and  C_3 
REMARK    2  A    between atoms: C_6  and  C_7 
REMARK    3  A    between atoms: C_12  and  C_13 
REMARK    4  A    between atoms: N_14  and  N_15 
REMARK       I    between atoms: N_15  and  C_16 
REMARK    5  A    between atoms: C_16  and  C_17 
ROOT
HETATM    1  C   UNL     1      21.851  47.761  47.985  1.00  0.00     0.154 C 
HETATM    2  N   UNL     1      22.055  46.551  48.404  1.00  0.00    -0.183 NA
ENDROOT
BRANCH   1   3
HETATM    3  C   UNL     1      22.502  48.975  48.424  1.00  0.00     0.031 A 
HETATM    4  C   UNL     1      22.010  50.212  48.955  1.00  0.00     0.100 A 
HETATM    5  N   UNL     1      23.034  51.031  49.256  1.00  0.00    -0.174 NA
HETATM    6  N   UNL     1      24.129  50.389  48.838  1.00  0.00    -0.288 N 
HETATM    7  H   UNL     1      25.026  50.855  48.937  1.00  0.00     0.188 HD
HETATM    8  C   UNL     1      23.868  49.159  48.328  1.00  0.00     0.124 A 
BRANCH   4   9
HETATM    9  C   UNL     1      20.633  50.659  49.203  1.00  0.00    -0.005 A 
HETATM   10  C   UNL     1      19.764  49.948  50.036  1.00  0.00     0.016 A 
HETATM   11  C   UNL     1      18.471  50.422  50.284  1.00  0.00     0.037 A 
HETATM   12  C   UNL     1      18.017  51.604  49.696  1.00  0.00     0.068 A 
HETATM   13  C   UNL     1      18.864  52.305  48.841  1.00  0.00     0.037 A 
HETATM   14  C   UNL     1      20.160  51.833  48.596  1.00  0.00     0.016 A 
BRANCH  12  15
HETATM   15  O   UNL     1      16.739  51.956  50.026  1.00  0.00    -0.356 OA
HETATM   16  C   UNL     1      15.738  51.744  49.038  1.00  0.00     0.210 C 
ENDBRANCH  12  15
ENDBRANCH   4   9
ENDBRANCH   1   3
BRANCH   2  17
HETATM   17  N   UNL     1      23.030  46.284  49.318  1.00  0.00    -0.243 N 
HETATM   18  C   UNL     1      23.881  45.208  49.101  1.00  0.00     0.271 C 
HETATM   19  O   UNL     1      23.852  44.509  48.090  1.00  0.00    -0.266 OA
HETATM   20  H   UNL     1      23.092  46.858  50.145  1.00  0.00     0.192 HD
BRANCH  18  21
HETATM   21  C   UNL     1      24.877  44.886  50.175  1.00  0.00     0.036 A 
HETATM   22  C   UNL     1      24.371  44.673  51.472  1.00  0.00     0.057 A 
HETATM   23  C   UNL     1      25.261  44.397  52.488  1.00  0.00     0.106 A 
HETATM   24  C   UNL     1      26.613  44.325  52.265  1.00  0.00     0.105 A 
HETATM   25  O   UNL     1      24.937  44.173  53.789  1.00  0.00    -0.323 OA
HETATM   26  O   UNL     1      27.314  44.048  53.397  1.00  0.00    -0.323 OA
HETATM   27  C   UNL     1      27.150  44.520  51.013  1.00  0.00     0.041 A 
HETATM   28  C   UNL     1      26.243  43.957  54.362  1.00  0.00     0.352 A 
HETATM   29  C   UNL     1      26.272  44.801  49.957  1.00  0.00     0.020 A 
ENDBRANCH  18  21
ENDBRANCH   2  17
TORSDOF 5
ENDMDL
MODEL 8
REMARK VINA RESULT:      -8.7     12.774     14.617
REMARK  5 active torsions:
REMARK  status: ('A' for Active; 'I' for Inactive)
REMARK    1  A    between atoms: O_2  and  C_3 
REMARK    2  A    between atoms: C_6  and  C_7 
REMARK    3  A    between atoms: C_12  and  C_13 
REMARK    4  A    between atoms: N_14  and  N_15 
REMARK       I    between atoms: N_15  and  C_16 
REMARK    5  A    between atoms: C_16  and  C_17 
ROOT
HETATM    1  C   UNL     1      34.449  52.081  39.636  1.00  0.00     0.154 C 
HETATM    2  N   UNL     1      33.755  51.537  38.685  1.00  0.00    -0.183 NA
ENDROOT
BRANCH   1   3
HETATM    3  C   UNL     1      34.387  51.797  41.053  1.00  0.00     0.031 A 
HETATM    4  C   UNL     1      33.300  51.681  41.980  1.00  0.00     0.100 A 
HETATM    5  N   UNL     1      33.762  51.359  43.202  1.00  0.00    -0.174 NA
HETATM    6  N   UNL     1      35.093  51.370  43.087  1.00  0.00    -0.288 N 
HETATM    7  H   UNL     1      35.649  51.185  43.916  1.00  0.00     0.188 HD
HETATM    8  C   UNL     1      35.521  51.632  41.825  1.00  0.00     0.124 A 
BRANCH   4   9
HETATM    9  C   UNL     1      31.855  51.848  41.777  1.00  0.00    -0.005 A 
HETATM   10  C   UNL     1      30.938  50.860  42.146  1.00  0.00     0.016 A 
HETATM   11  C   UNL     1      29.564  51.067  41.975  1.00  0.00     0.037 A 
HETATM   12  C   UNL     1      29.082  52.254  41.423  1.00  0.00     0.068 A 
HETATM   13  C   UNL     1      29.989  53.234  41.025  1.00  0.00     0.037 A 
HETATM   14  C   UNL     1      31.363  53.030  41.199  1.00  0.00     0.016 A 
BRANCH  12  15
HETATM   15  O   UNL     1      27.722  52.329  41.318  1.00  0.00    -0.356 OA
HETATM   16  C   UNL     1      27.020  51.100  41.173  1.00  0.00     0.210 C 
ENDBRANCH  12  15
ENDBRANCH   4   9
ENDBRANCH   1   3
BRANCH   2  17
HETATM   17  N   UNL     1      32.888  50.518  38.946  1.00  0.00    -0.243 N 
HETATM   18  C   UNL     1      31.619  50.552  38.384  1.00  0.00     0.271 C 
HETATM   19  O   UNL     1      31.242  51.423  37.602  1.00  0.00    -0.266 OA
HETATM   20  H   UNL     1      33.181  49.778  39.565  1.00  0.00     0.192 HD
BRANCH  18  21
HETATM   21  C   UNL     1      30.661  49.466  38.774  1.00  0.00     0.036 A 
HETATM   22  C   UNL     1      29.302  49.675  38.474  1.00  0.00     0.057 A 
HETATM   23  C   UNL     1      28.391  48.706  38.839  1.00  0.00     0.106 A 
HETATM   24  C   UNL     1      28.777  47.555  39.479  1.00  0.00     0.105 A 
HETATM   25  O   UNL     1      27.049  48.757  38.628  1.00  0.00    -0.323 OA
HETATM   26  O   UNL     1      27.728  46.735  39.755  1.00  0.00    -0.323 OA
HETATM   27  C   UNL     1      30.096  47.307  39.785  1.00  0.00     0.041 A 
HETATM   28  C   UNL     1      26.634  47.507  39.216  1.00  0.00     0.352 A 
HETATM   29  C   UNL     1      31.048  48.272  39.427  1.00  0.00     0.020 A 
ENDBRANCH  18  21
ENDBRANCH   2  17
TORSDOF 5
ENDMDL
MODEL 9
REMARK VINA RESULT:      -8.6     12.005     14.815
REMARK  5 active torsions:
REMARK  status: ('A' for Active; 'I' for Inactive)
REMARK    1  A    between atoms: O_2  and  C_3 
REMARK    2  A    between atoms: C_6  and  C_7 
REMARK    3  A    between atoms: C_12  and  C_13 
REMARK    4  A    between atoms: N_14  and  N_15 
REMARK       I    between atoms: N_15  and  C_16 
REMARK    5  A    between atoms: C_16  and  C_17 
ROOT
HETATM    1  C   UNL     1      32.318  50.768  43.395  1.00  0.00     0.154 C 
HETATM    2  N   UNL     1      31.467  49.792  43.329  1.00  0.00    -0.183 NA
ENDROOT
BRANCH   1   3
HETATM    3  C   UNL     1      33.164  51.280  42.340  1.00  0.00     0.031 A 
HETATM    4  C   UNL     1      32.901  51.710  40.998  1.00  0.00     0.100 A 
HETATM    5  N   UNL     1      34.033  52.147  40.417  1.00  0.00    -0.174 NA
HETATM    6  N   UNL     1      34.997  51.910  41.311  1.00  0.00    -0.288 N 
HETATM    7  H   UNL     1      35.954  52.136  41.057  1.00  0.00     0.188 HD
HETATM    8  C   UNL     1      34.535  51.387  42.475  1.00  0.00     0.124 A 
BRANCH   4   9
HETATM    9  C   UNL     1      31.644  51.740  40.239  1.00  0.00    -0.005 A 
HETATM   10  C   UNL     1      30.515  52.420  40.705  1.00  0.00     0.016 A 
HETATM   11  C   UNL     1      29.345  52.462  39.938  1.00  0.00     0.037 A 
HETATM   12  C   UNL     1      29.275  51.819  38.702  1.00  0.00     0.068 A 
HETATM   13  C   UNL     1      30.384  51.114  38.241  1.00  0.00     0.037 A 
HETATM   14  C   UNL     1      31.557  51.074  39.005  1.00  0.00     0.016 A 
BRANCH  12  15
HETATM   15  O   UNL     1      28.078  51.945  38.056  1.00  0.00    -0.356 OA
HETATM   16  C   UNL     1      27.121  50.914  38.269  1.00  0.00     0.210 C 
ENDBRANCH  12  15
ENDBRANCH   4   9
ENDBRANCH   1   3
BRANCH   2  17
HETATM   17  N   UNL     1      31.221  49.157  42.148  1.00  0.00    -0.243 N 
HETATM   18  C   UNL     1      29.906  48.981  41.739  1.00  0.00     0.271 C 
HETATM   19  O   UNL     1      28.936  49.423  42.351  1.00  0.00    -0.266 OA
HETATM   20  H   UNL     1      32.001  48.806  41.614  1.00  0.00     0.192 HD
BRANCH  18  21
HETATM   21  C   UNL     1      29.672  48.192  40.485  1.00  0.00     0.036 A 
HETATM   22  C   UNL     1      28.340  48.069  40.047  1.00  0.00     0.057 A 
HETATM   23  C   UNL     1      28.087  47.331  38.910  1.00  0.00     0.106 A 
HETATM   24  C   UNL     1      29.094  46.723  38.203  1.00  0.00     0.105 A 
HETATM   25  O   UNL     1      26.863  47.113  38.360  1.00  0.00    -0.323 OA
HETATM   26  O   UNL     1      28.634  46.043  37.120  1.00  0.00    -0.323 OA
HETATM   27  C   UNL     1      30.411  46.823  38.593  1.00  0.00     0.041 A 
HETATM   28  C   UNL     1      27.215  46.291  37.229  1.00  0.00     0.352 A 
HETATM   29  C   UNL     1      30.702  47.567  39.744  1.00  0.00     0.020 A 
ENDBRANCH  18  21
ENDBRANCH   2  17
TORSDOF 5
ENDMDL
MODEL 10
REMARK VINA RESULT:      -8.6      1.778      2.282
REMARK  5 active torsions:
REMARK  status: ('A' for Active; 'I' for Inactive)
REMARK    1  A    between atoms: O_2  and  C_3 
REMARK    2  A    between atoms: C_6  and  C_7 
REMARK    3  A    between atoms: C_12  and  C_13 
REMARK    4  A    between atoms: N_14  and  N_15 
REMARK       I    between atoms: N_15  and  C_16 
REMARK    5  A    between atoms: C_16  and  C_17 
ROOT
HETATM    1  C   UNL     1      25.777  44.261  52.598  1.00  0.00     0.154 C 
HETATM    2  N   UNL     1      24.952  44.032  51.624  1.00  0.00    -0.183 NA
ENDROOT
BRANCH   1   3
HETATM    3  C   UNL     1      26.102  45.533  53.205  1.00  0.00     0.031 A 
HETATM    4  C   UNL     1      27.170  45.963  54.059  1.00  0.00     0.100 A 
HETATM    5  N   UNL     1      27.052  47.277  54.326  1.00  0.00    -0.174 NA
HETATM    6  N   UNL     1      25.902  47.647  53.756  1.00  0.00    -0.288 N 
HETATM    7  H   UNL     1      25.598  48.610  53.869  1.00  0.00     0.188 HD
HETATM    8  C   UNL     1      25.290  46.643  53.078  1.00  0.00     0.124 A 
BRANCH   4   9
HETATM    9  C   UNL     1      28.296  45.211  54.626  1.00  0.00    -0.005 A 
HETATM   10  C   UNL     1      28.592  43.906  54.220  1.00  0.00     0.016 A 
HETATM   11  C   UNL     1      29.697  43.231  54.751  1.00  0.00     0.037 A 
HETATM   12  C   UNL     1      30.517  43.837  55.703  1.00  0.00     0.068 A 
HETATM   13  C   UNL     1      30.215  45.126  56.136  1.00  0.00     0.037 A 
HETATM   14  C   UNL     1      29.112  45.805  55.602  1.00  0.00     0.016 A 
BRANCH  12  15
HETATM   15  O   UNL     1      31.563  43.070  56.133  1.00  0.00    -0.356 OA
HETATM   16  C   UNL     1      32.106  43.382  57.410  1.00  0.00     0.210 C 
ENDBRANCH  12  15
ENDBRANCH   4   9
ENDBRANCH   1   3
BRANCH   2  17
HETATM   17  N   UNL     1      24.204  45.039  51.090  1.00  0.00    -0.243 N 
HETATM   18  C   UNL     1      24.377  45.373  49.753  1.00  0.00     0.271 C 
HETATM   19  O   UNL     1      25.128  44.766  48.991  1.00  0.00    -0.266 OA
HETATM   20  H   UNL     1      23.562  45.536  51.688  1.00  0.00     0.192 HD
BRANCH  18  21
HETATM   21  C   UNL     1      23.609  46.549  49.229  1.00  0.00     0.036 A 
HETATM   22  C   UNL     1      23.992  47.821  49.696  1.00  0.00     0.057 A 
HETATM   23  C   UNL     1      23.291  48.922  49.251  1.00  0.00     0.106 A 
HETATM   24  C   UNL     1      22.243  48.807  48.373  1.00  0.00     0.105 A 
HETATM   25  O   UNL     1      23.530  50.213  49.607  1.00  0.00    -0.323 OA
HETATM   26  O   UNL     1      21.687  50.009  48.065  1.00  0.00    -0.323 OA
HETATM   27  C   UNL     1      21.840  47.584  47.887  1.00  0.00     0.041 A 
HETATM   28  C   UNL     1      22.506  50.896  48.856  1.00  0.00     0.352 A 
HETATM   29  C   UNL     1      22.532  46.444  48.318  1.00  0.00     0.020 A 
ENDBRANCH  18  21
ENDBRANCH   2  17
TORSDOF 5
ENDMDL
