MODEL 1
REMARK VINA RESULT:      -9.2      0.000      0.000
REMARK  9 active torsions:
REMARK  status: ('A' for Active; 'I' for Inactive)
REMARK    1  A    between atoms: N_4  and  C_5 
REMARK    2  A    between atoms: C_13  and  C_14 
REMARK    3  A    between atoms: C_15  and  C_16 
REMARK       I    between atoms: C_16  and  N_17 
REMARK    4  A    between atoms: N_17  and  C_18 
REMARK    5  A    between atoms: C_18  and  C_19 
REMARK    6  A    between atoms: C_19  and  N_20 
REMARK    7  A    between atoms: C_21  and  O_22 
REMARK    8  A    between atoms: C_21  and  C_23 
REMARK    9  A    between atoms: C_28  and  O_29 
ROOT
HETATM    1  C   UNL     1      25.027  47.049  50.935  1.00  0.00     0.241 C 
HETATM    2  N   UNL     1      24.758  45.776  50.508  1.00  0.00    -0.356 N 
HETATM    3  O   UNL     1      24.455  48.048  50.516  1.00  0.00    -0.269 OA
HETATM    4  H   UNL     1      25.131  44.968  50.991  1.00  0.00     0.162 HD
ENDROOT
BRANCH   1   5
HETATM    5  C   UNL     1      26.098  47.116  51.961  1.00  0.00     0.075 C 
HETATM    6  C   UNL     1      25.961  46.387  53.080  1.00  0.00     0.021 C 
BRANCH   6   7
HETATM    7  C   UNL     1      26.845  46.357  54.201  1.00  0.00     0.014 C 
HETATM    8  C   UNL     1      27.077  47.302  55.224  1.00  0.00     0.063 C 
HETATM    9  C   UNL     1      26.474  48.644  55.428  1.00  0.00     0.073 C 
HETATM   10  N   UNL     1      27.973  46.855  56.106  1.00  0.00    -0.171 NA
HETATM   11  N   UNL     1      28.434  45.679  55.598  1.00  0.00    -0.237 N 
HETATM   12  C   UNL     1      27.675  45.287  54.499  1.00  0.00     0.045 C 
HETATM   13  C   UNL     1      27.725  43.942  53.858  1.00  0.00     0.071 C 
BRANCH  11  14
HETATM   14  C   UNL     1      29.561  45.055  56.222  1.00  0.00     0.058 A 
HETATM   15  C   UNL     1      29.963  45.495  57.494  1.00  0.00     0.031 A 
HETATM   16  C   UNL     1      31.059  44.911  58.137  1.00  0.00     0.002 A 
HETATM   17  C   UNL     1      31.774  43.894  57.510  1.00  0.00     0.000 A 
HETATM   18  C   UNL     1      31.402  43.469  56.238  1.00  0.00     0.002 A 
HETATM   19  C   UNL     1      30.304  44.049  55.592  1.00  0.00     0.031 A 
ENDBRANCH  11  14
ENDBRANCH   6   7
ENDBRANCH   1   5
BRANCH   2  20
HETATM   20  C   UNL     1      23.676  45.510  49.579  1.00  0.00     0.144 C 
BRANCH  20  21
HETATM   21  C   UNL     1      23.040  44.141  49.832  1.00  0.00     0.171 C 
BRANCH  21  22
HETATM   22  N   UNL     1      24.025  43.097  49.558  1.00  0.00    -0.263 NA
HETATM   23  C   UNL     1      24.697  42.561  50.514  1.00  0.00     0.189 C 
BRANCH  23  24
HETATM   24  O   UNL     1      24.502  42.870  51.815  1.00  0.00    -0.343 OA
HETATM   25  H   UNL     1      24.152  42.131  52.324  1.00  0.00     0.219 HD
ENDBRANCH  23  24
BRANCH  23  26
HETATM   26  C   UNL     1      25.785  41.540  50.353  1.00  0.00     0.141 A 
HETATM   27  N   UNL     1      26.855  41.685  51.193  1.00  0.00    -0.254 NA
HETATM   28  C   UNL     1      27.872  40.809  51.070  1.00  0.00     0.117 A 
HETATM   29  C   UNL     1      27.889  39.779  50.147  1.00  0.00     0.022 A 
HETATM   30  C   UNL     1      26.796  39.634  49.298  1.00  0.00     0.040 A 
HETATM   31  C   UNL     1      25.724  40.522  49.395  1.00  0.00     0.098 A 
BRANCH  31  32
HETATM   32  O   UNL     1      24.663  40.363  48.549  1.00  0.00    -0.358 OA
HETATM   33  H   UNL     1      24.945  40.519  47.634  1.00  0.00     0.218 HD
ENDBRANCH  31  32
ENDBRANCH  23  26
ENDBRANCH  21  22
ENDBRANCH  20  21
ENDBRANCH   2  20
TORSDOF 9
ENDMDL
MODEL 2
REMARK VINA RESULT:      -9.1      3.762      6.993
REMARK  9 active torsions:
REMARK  status: ('A' for Active; 'I' for Inactive)
REMARK    1  A    between atoms: N_4  and  C_5 
REMARK    2  A    between atoms: C_13  and  C_14 
REMARK    3  A    between atoms: C_15  and  C_16 
REMARK       I    between atoms: C_16  and  N_17 
REMARK    4  A    between atoms: N_17  and  C_18 
REMARK    5  A    between atoms: C_18  and  C_19 
REMARK    6  A    between atoms: C_19  and  N_20 
REMARK    7  A    between atoms: C_21  and  O_22 
REMARK    8  A    between atoms: C_21  and  C_23 
REMARK    9  A    between atoms: C_28  and  O_29 
ROOT
HETATM    1  C   UNL     1      24.209  44.861  51.165  1.00  0.00     0.241 C 
HETATM    2  N   UNL     1      24.397  46.116  50.651  1.00  0.00    -0.356 N 
HETATM    3  O   UNL     1      23.316  44.101  50.809  1.00  0.00    -0.269 OA
HETATM    4  H   UNL     1      25.236  46.647  50.849  1.00  0.00     0.162 HD
ENDROOT
BRANCH   1   5
HETATM    5  C   UNL     1      25.192  44.498  52.216  1.00  0.00     0.075 C 
HETATM    6  C   UNL     1      26.491  44.761  51.998  1.00  0.00     0.021 C 
BRANCH   6   7
HETATM    7  C   UNL     1      27.589  44.441  52.853  1.00  0.00     0.014 C 
HETATM    8  C   UNL     1      28.515  43.375  52.813  1.00  0.00     0.063 C 
HETATM    9  C   UNL     1      28.607  42.236  51.865  1.00  0.00     0.073 C 
HETATM   10  N   UNL     1      29.413  43.473  53.795  1.00  0.00    -0.171 NA
HETATM   11  N   UNL     1      29.006  44.522  54.563  1.00  0.00    -0.237 N 
HETATM   12  C   UNL     1      27.965  45.210  53.944  1.00  0.00     0.045 C 
HETATM   13  C   UNL     1      27.451  46.543  54.363  1.00  0.00     0.071 C 
BRANCH  11  14
HETATM   14  C   UNL     1      29.657  44.751  55.816  1.00  0.00     0.058 A 
HETATM   15  C   UNL     1      30.704  43.897  56.204  1.00  0.00     0.031 A 
HETATM   16  C   UNL     1      31.366  44.087  57.421  1.00  0.00     0.002 A 
HETATM   17  C   UNL     1      30.980  45.121  58.270  1.00  0.00     0.000 A 
HETATM   18  C   UNL     1      29.927  45.957  57.909  1.00  0.00     0.002 A 
HETATM   19  C   UNL     1      29.263  45.771  56.691  1.00  0.00     0.031 A 
ENDBRANCH  11  14
ENDBRANCH   6   7
ENDBRANCH   1   5
BRANCH   2  20
HETATM   20  C   UNL     1      23.590  46.603  49.548  1.00  0.00     0.144 C 
BRANCH  20  21
HETATM   21  C   UNL     1      23.673  48.126  49.418  1.00  0.00     0.171 C 
BRANCH  21  22
HETATM   22  N   UNL     1      22.342  48.655  49.128  1.00  0.00    -0.263 NA
HETATM   23  C   UNL     1      21.976  49.798  49.586  1.00  0.00     0.189 C 
BRANCH  23  24
HETATM   24  O   UNL     1      22.795  50.603  50.299  1.00  0.00    -0.343 OA
HETATM   25  H   UNL     1      22.866  50.337  51.222  1.00  0.00     0.219 HD
ENDBRANCH  23  24
BRANCH  23  26
HETATM   26  C   UNL     1      20.616  50.413  49.421  1.00  0.00     0.141 A 
HETATM   27  N   UNL     1      20.582  51.578  48.707  1.00  0.00    -0.254 NA
HETATM   28  C   UNL     1      19.388  52.185  48.553  1.00  0.00     0.117 A 
HETATM   29  C   UNL     1      18.206  51.693  49.076  1.00  0.00     0.022 A 
HETATM   30  C   UNL     1      18.246  50.505  49.799  1.00  0.00     0.040 A 
HETATM   31  C   UNL     1      19.465  49.847  49.978  1.00  0.00     0.098 A 
BRANCH  31  32
HETATM   32  O   UNL     1      19.482  48.684  50.694  1.00  0.00    -0.358 OA
HETATM   33  H   UNL     1      20.148  48.081  50.328  1.00  0.00     0.218 HD
ENDBRANCH  31  32
ENDBRANCH  23  26
ENDBRANCH  21  22
ENDBRANCH  20  21
ENDBRANCH   2  20
TORSDOF 9
ENDMDL
MODEL 3
REMARK VINA RESULT:      -9.0      2.237      4.803
REMARK  9 active torsions:
REMARK  status: ('A' for Active; 'I' for Inactive)
REMARK    1  A    between atoms: N_4  and  C_5 
REMARK    2  A    between atoms: C_13  and  C_14 
REMARK    3  A    between atoms: C_15  and  C_16 
REMARK       I    between atoms: C_16  and  N_17 
REMARK    4  A    between atoms: N_17  and  C_18 
REMARK    5  A    between atoms: C_18  and  C_19 
REMARK    6  A    between atoms: C_19  and  N_20 
REMARK    7  A    between atoms: C_21  and  O_22 
REMARK    8  A    between atoms: C_21  and  C_23 
REMARK    9  A    between atoms: C_28  and  O_29 
ROOT
HETATM    1  C   UNL     1      24.836  43.758  51.033  1.00  0.00     0.241 C 
HETATM    2  N   UNL     1      23.530  44.147  50.895  1.00  0.00    -0.356 N 
HETATM    3  O   UNL     1      25.494  43.235  50.141  1.00  0.00    -0.269 OA
HETATM    4  H   UNL     1      23.074  44.720  51.593  1.00  0.00     0.162 HD
ENDROOT
BRANCH   1   5
HETATM    5  C   UNL     1      25.393  44.023  52.383  1.00  0.00     0.075 C 
HETATM    6  C   UNL     1      26.397  44.908  52.500  1.00  0.00     0.021 C 
BRANCH   6   7
HETATM    7  C   UNL     1      27.101  45.258  53.693  1.00  0.00     0.014 C 
HETATM    8  C   UNL     1      27.038  46.413  54.502  1.00  0.00     0.063 C 
HETATM    9  C   UNL     1      26.219  47.640  54.336  1.00  0.00     0.073 C 
HETATM   10  N   UNL     1      27.852  46.315  55.554  1.00  0.00    -0.171 NA
HETATM   11  N   UNL     1      28.552  45.162  55.373  1.00  0.00    -0.237 N 
HETATM   12  C   UNL     1      28.028  44.431  54.309  1.00  0.00     0.045 C 
HETATM   13  C   UNL     1      28.371  43.017  53.990  1.00  0.00     0.071 C 
BRANCH  11  14
HETATM   14  C   UNL     1      29.655  44.883  56.240  1.00  0.00     0.058 A 
HETATM   15  C   UNL     1      29.769  45.595  57.446  1.00  0.00     0.031 A 
HETATM   16  C   UNL     1      30.832  45.352  58.321  1.00  0.00     0.002 A 
HETATM   17  C   UNL     1      31.803  44.408  57.993  1.00  0.00     0.000 A 
HETATM   18  C   UNL     1      31.716  43.717  56.788  1.00  0.00     0.002 A 
HETATM   19  C   UNL     1      30.652  43.955  55.911  1.00  0.00     0.031 A 
ENDBRANCH  11  14
ENDBRANCH   6   7
ENDBRANCH   1   5
BRANCH   2  20
HETATM   20  C   UNL     1      22.851  44.052  49.616  1.00  0.00     0.144 C 
BRANCH  20  21
HETATM   21  C   UNL     1      22.528  45.435  49.047  1.00  0.00     0.171 C 
BRANCH  21  22
HETATM   22  N   UNL     1      23.768  46.191  48.890  1.00  0.00    -0.263 NA
HETATM   23  C   UNL     1      23.811  47.446  49.162  1.00  0.00     0.189 C 
BRANCH  23  24
HETATM   24  O   UNL     1      22.756  48.129  49.661  1.00  0.00    -0.343 OA
HETATM   25  H   UNL     1      22.619  48.975  49.221  1.00  0.00     0.219 HD
ENDBRANCH  23  24
BRANCH  23  26
HETATM   26  C   UNL     1      24.999  48.344  48.970  1.00  0.00     0.141 A 
HETATM   27  N   UNL     1      26.128  47.975  49.649  1.00  0.00    -0.254 NA
HETATM   28  C   UNL     1      27.215  48.763  49.532  1.00  0.00     0.117 A 
HETATM   29  C   UNL     1      27.249  49.915  48.767  1.00  0.00     0.022 A 
HETATM   30  C   UNL     1      26.098  50.283  48.076  1.00  0.00     0.040 A 
HETATM   31  C   UNL     1      24.952  49.491  48.172  1.00  0.00     0.098 A 
BRANCH  31  32
HETATM   32  O   UNL     1      23.833  49.873  47.487  1.00  0.00    -0.358 OA
HETATM   33  H   UNL     1      23.454  49.110  47.023  1.00  0.00     0.218 HD
ENDBRANCH  31  32
ENDBRANCH  23  26
ENDBRANCH  21  22
ENDBRANCH  20  21
ENDBRANCH   2  20
TORSDOF 9
ENDMDL
MODEL 4
REMARK VINA RESULT:      -8.8      3.178      6.030
REMARK  9 active torsions:
REMARK  status: ('A' for Active; 'I' for Inactive)
REMARK    1  A    between atoms: N_4  and  C_5 
REMARK    2  A    between atoms: C_13  and  C_14 
REMARK    3  A    between atoms: C_15  and  C_16 
REMARK       I    between atoms: C_16  and  N_17 
REMARK    4  A    between atoms: N_17  and  C_18 
REMARK    5  A    between atoms: C_18  and  C_19 
REMARK    6  A    between atoms: C_19  and  N_20 
REMARK    7  A    between atoms: C_21  and  O_22 
REMARK    8  A    between atoms: C_21  and  C_23 
REMARK    9  A    between atoms: C_28  and  O_29 
ROOT
HETATM    1  C   UNL     1      24.286  44.069  50.938  1.00  0.00     0.241 C 
HETATM    2  N   UNL     1      23.371  44.892  50.337  1.00  0.00    -0.356 N 
HETATM    3  O   UNL     1      24.606  42.968  50.505  1.00  0.00    -0.269 OA
HETATM    4  H   UNL     1      23.255  45.854  50.630  1.00  0.00     0.162 HD
ENDROOT
BRANCH   1   5
HETATM    5  C   UNL     1      24.861  44.633  52.184  1.00  0.00     0.075 C 
HETATM    6  C   UNL     1      26.196  44.636  52.331  1.00  0.00     0.021 C 
BRANCH   6   7
HETATM    7  C   UNL     1      26.936  45.078  53.470  1.00  0.00     0.014 C 
HETATM    8  C   UNL     1      26.957  46.323  54.136  1.00  0.00     0.063 C 
HETATM    9  C   UNL     1      26.216  47.573  53.829  1.00  0.00     0.073 C 
HETATM   10  N   UNL     1      27.776  46.298  55.188  1.00  0.00    -0.171 NA
HETATM   11  N   UNL     1      28.399  45.088  55.142  1.00  0.00    -0.237 N 
HETATM   12  C   UNL     1      27.817  44.273  54.175  1.00  0.00     0.045 C 
HETATM   13  C   UNL     1      28.065  42.811  54.025  1.00  0.00     0.071 C 
BRANCH  11  14
HETATM   14  C   UNL     1      29.493  44.843  56.031  1.00  0.00     0.058 A 
HETATM   15  C   UNL     1      29.607  45.617  57.199  1.00  0.00     0.031 A 
HETATM   16  C   UNL     1      30.661  45.408  58.093  1.00  0.00     0.002 A 
HETATM   17  C   UNL     1      31.623  44.438  57.823  1.00  0.00     0.000 A 
HETATM   18  C   UNL     1      31.537  43.685  56.655  1.00  0.00     0.002 A 
HETATM   19  C   UNL     1      30.481  43.889  55.759  1.00  0.00     0.031 A 
ENDBRANCH  11  14
ENDBRANCH   6   7
ENDBRANCH   1   5
BRANCH   2  20
HETATM   20  C   UNL     1      22.777  44.547  49.059  1.00  0.00     0.144 C 
BRANCH  20  21
HETATM   21  C   UNL     1      22.711  45.756  48.124  1.00  0.00     0.171 C 
BRANCH  21  22
HETATM   22  N   UNL     1      21.690  46.682  48.610  1.00  0.00    -0.263 NA
HETATM   23  C   UNL     1      21.830  47.950  48.461  1.00  0.00     0.189 C 
BRANCH  23  24
HETATM   24  O   UNL     1      22.874  48.505  47.806  1.00  0.00    -0.343 OA
HETATM   25  H   UNL     1      22.748  49.445  47.634  1.00  0.00     0.219 HD
ENDBRANCH  23  24
BRANCH  23  26
HETATM   26  C   UNL     1      20.893  49.001  48.982  1.00  0.00     0.141 A 
HETATM   27  N   UNL     1      21.240  50.292  48.693  1.00  0.00    -0.254 NA
HETATM   28  C   UNL     1      20.446  51.275  49.162  1.00  0.00     0.117 A 
HETATM   29  C   UNL     1      19.307  51.048  49.912  1.00  0.00     0.022 A 
HETATM   30  C   UNL     1      18.956  49.732  50.200  1.00  0.00     0.040 A 
HETATM   31  C   UNL     1      19.754  48.687  49.731  1.00  0.00     0.098 A 
BRANCH  31  32
HETATM   32  O   UNL     1      19.393  47.403  50.028  1.00  0.00    -0.358 OA
HETATM   33  H   UNL     1      19.226  46.910  49.210  1.00  0.00     0.218 HD
ENDBRANCH  31  32
ENDBRANCH  23  26
ENDBRANCH  21  22
ENDBRANCH  20  21
ENDBRANCH   2  20
TORSDOF 9
ENDMDL
MODEL 5
REMARK VINA RESULT:      -8.5      3.496      7.030
REMARK  9 active torsions:
REMARK  status: ('A' for Active; 'I' for Inactive)
REMARK    1  A    between atoms: N_4  and  C_5 
REMARK    2  A    between atoms: C_13  and  C_14 
REMARK    3  A    between atoms: C_15  and  C_16 
REMARK       I    between atoms: C_16  and  N_17 
REMARK    4  A    between atoms: N_17  and  C_18 
REMARK    5  A    between atoms: C_18  and  C_19 
REMARK    6  A    between atoms: C_19  and  N_20 
REMARK    7  A    between atoms: C_21  and  O_22 
REMARK    8  A    between atoms: C_21  and  C_23 
REMARK    9  A    between atoms: C_28  and  O_29 
ROOT
HETATM    1  C   UNL     1      23.119  43.074  49.667  1.00  0.00     0.241 C 
HETATM    2  N   UNL     1      22.395  44.209  49.916  1.00  0.00    -0.356 N 
HETATM    3  O   UNL     1      22.926  42.334  48.709  1.00  0.00    -0.269 OA
HETATM    4  H   UNL     1      22.687  44.878  50.617  1.00  0.00     0.162 HD
ENDROOT
BRANCH   1   5
HETATM    5  C   UNL     1      24.172  42.809  50.679  1.00  0.00     0.075 C 
HETATM    6  C   UNL     1      25.420  43.239  50.435  1.00  0.00     0.021 C 
BRANCH   6   7
HETATM    7  C   UNL     1      26.576  43.037  51.249  1.00  0.00     0.014 C 
HETATM    8  C   UNL     1      27.450  41.934  51.360  1.00  0.00     0.063 C 
HETATM    9  C   UNL     1      27.413  40.623  50.664  1.00  0.00     0.073 C 
HETATM   10  N   UNL     1      28.434  42.178  52.228  1.00  0.00    -0.171 NA
HETATM   11  N   UNL     1      28.139  43.382  52.791  1.00  0.00    -0.237 N 
HETATM   12  C   UNL     1      27.076  43.988  52.125  1.00  0.00     0.045 C 
HETATM   13  C   UNL     1      26.655  45.407  52.298  1.00  0.00     0.071 C 
BRANCH  11  14
HETATM   14  C   UNL     1      28.906  43.823  53.915  1.00  0.00     0.058 A 
HETATM   15  C   UNL     1      30.046  43.091  54.288  1.00  0.00     0.031 A 
HETATM   16  C   UNL     1      30.823  43.489  55.381  1.00  0.00     0.002 A 
HETATM   17  C   UNL     1      30.462  44.612  56.121  1.00  0.00     0.000 A 
HETATM   18  C   UNL     1      29.319  45.328  55.778  1.00  0.00     0.002 A 
HETATM   19  C   UNL     1      28.540  44.935  54.683  1.00  0.00     0.031 A 
ENDBRANCH  11  14
ENDBRANCH   6   7
ENDBRANCH   1   5
BRANCH   2  20
HETATM   20  C   UNL     1      21.388  44.677  48.981  1.00  0.00     0.144 C 
BRANCH  20  21
HETATM   21  C   UNL     1      21.905  45.842  48.134  1.00  0.00     0.171 C 
BRANCH  21  22
HETATM   22  N   UNL     1      21.004  46.982  48.286  1.00  0.00    -0.263 NA
HETATM   23  C   UNL     1      21.355  48.009  48.973  1.00  0.00     0.189 C 
BRANCH  23  24
HETATM   24  O   UNL     1      22.576  48.136  49.537  1.00  0.00    -0.343 OA
HETATM   25  H   UNL     1      22.836  49.056  49.661  1.00  0.00     0.219 HD
ENDBRANCH  23  24
BRANCH  23  26
HETATM   26  C   UNL     1      20.493  49.204  49.265  1.00  0.00     0.141 A 
HETATM   27  N   UNL     1      20.911  50.379  48.704  1.00  0.00    -0.254 NA
HETATM   28  C   UNL     1      20.187  51.487  48.958  1.00  0.00     0.117 A 
HETATM   29  C   UNL     1      19.053  51.497  49.749  1.00  0.00     0.022 A 
HETATM   30  C   UNL     1      18.630  50.297  50.314  1.00  0.00     0.040 A 
HETATM   31  C   UNL     1      19.354  49.128  50.073  1.00  0.00     0.098 A 
BRANCH  31  32
HETATM   32  O   UNL     1      18.923  47.962  50.640  1.00  0.00    -0.358 OA
HETATM   33  H   UNL     1      18.213  48.146  51.275  1.00  0.00     0.218 HD
ENDBRANCH  31  32
ENDBRANCH  23  26
ENDBRANCH  21  22
ENDBRANCH  20  21
ENDBRANCH   2  20
TORSDOF 9
ENDMDL
MODEL 6
REMARK VINA RESULT:      -8.4      1.837      2.281
REMARK  9 active torsions:
REMARK  status: ('A' for Active; 'I' for Inactive)
REMARK    1  A    between atoms: N_4  and  C_5 
REMARK    2  A    between atoms: C_13  and  C_14 
REMARK    3  A    between atoms: C_15  and  C_16 
REMARK       I    between atoms: C_16  and  N_17 
REMARK    4  A    between atoms: N_17  and  C_18 
REMARK    5  A    between atoms: C_18  and  C_19 
REMARK    6  A    between atoms: C_19  and  N_20 
REMARK    7  A    between atoms: C_21  and  O_22 
REMARK    8  A    between atoms: C_21  and  C_23 
REMARK    9  A    between atoms: C_28  and  O_29 
ROOT
HETATM    1  C   UNL     1      25.223  44.521  50.427  1.00  0.00     0.241 C 
HETATM    2  N   UNL     1      25.709  43.754  49.402  1.00  0.00    -0.356 N 
HETATM    3  O   UNL     1      24.042  44.821  50.558  1.00  0.00    -0.269 OA
HETATM    4  H   UNL     1      26.654  43.393  49.417  1.00  0.00     0.162 HD
ENDROOT
BRANCH   1   5
HETATM    5  C   UNL     1      26.269  44.972  51.378  1.00  0.00     0.075 C 
HETATM    6  C   UNL     1      26.062  44.792  52.693  1.00  0.00     0.021 C 
BRANCH   6   7
HETATM    7  C   UNL     1      26.914  45.203  53.763  1.00  0.00     0.014 C 
HETATM    8  C   UNL     1      27.086  46.461  54.380  1.00  0.00     0.063 C 
HETATM    9  C   UNL     1      26.435  47.761  54.077  1.00  0.00     0.073 C 
HETATM   10  N   UNL     1      27.971  46.398  55.376  1.00  0.00    -0.171 NA
HETATM   11  N   UNL     1      28.485  45.137  55.334  1.00  0.00    -0.237 N 
HETATM   12  C   UNL     1      27.770  44.346  54.438  1.00  0.00     0.045 C 
HETATM   13  C   UNL     1      27.882  42.864  54.325  1.00  0.00     0.071 C 
BRANCH  11  14
HETATM   14  C   UNL     1      29.613  44.825  56.156  1.00  0.00     0.058 A 
HETATM   15  C   UNL     1      29.791  45.529  57.360  1.00  0.00     0.031 A 
HETATM   16  C   UNL     1      30.881  45.254  58.192  1.00  0.00     0.002 A 
HETATM   17  C   UNL     1      31.812  44.286  57.824  1.00  0.00     0.000 A 
HETATM   18  C   UNL     1      31.661  43.603  56.621  1.00  0.00     0.002 A 
HETATM   19  C   UNL     1      30.571  43.873  55.786  1.00  0.00     0.031 A 
ENDBRANCH  11  14
ENDBRANCH   6   7
ENDBRANCH   1   5
BRANCH   2  20
HETATM   20  C   UNL     1      24.818  43.147  48.432  1.00  0.00     0.144 C 
BRANCH  20  21
HETATM   21  C   UNL     1      24.221  41.839  48.957  1.00  0.00     0.171 C 
BRANCH  21  22
HETATM   22  N   UNL     1      25.234  40.788  48.886  1.00  0.00    -0.263 NA
HETATM   23  C   UNL     1      25.959  40.505  49.908  1.00  0.00     0.189 C 
BRANCH  23  24
HETATM   24  O   UNL     1      25.801  41.099  51.111  1.00  0.00    -0.343 OA
HETATM   25  H   UNL     1      25.144  41.803  51.094  1.00  0.00     0.219 HD
ENDBRANCH  23  24
BRANCH  23  26
HETATM   26  C   UNL     1      27.078  39.504  49.937  1.00  0.00     0.141 A 
HETATM   27  N   UNL     1      26.764  38.260  49.463  1.00  0.00    -0.254 NA
HETATM   28  C   UNL     1      27.726  37.317  49.493  1.00  0.00     0.117 A 
HETATM   29  C   UNL     1      29.004  37.540  49.974  1.00  0.00     0.022 A 
HETATM   30  C   UNL     1      29.318  38.809  50.451  1.00  0.00     0.040 A 
HETATM   31  C   UNL     1      28.348  39.812  50.436  1.00  0.00     0.098 A 
BRANCH  31  32
HETATM   32  O   UNL     1      28.677  41.049  50.912  1.00  0.00    -0.358 OA
HETATM   33  H   UNL     1      29.578  41.035  51.273  1.00  0.00     0.218 HD
ENDBRANCH  31  32
ENDBRANCH  23  26
ENDBRANCH  21  22
ENDBRANCH  20  21
ENDBRANCH   2  20
TORSDOF 9
ENDMDL
MODEL 7
REMARK VINA RESULT:      -8.4      3.739      8.485
REMARK  9 active torsions:
REMARK  status: ('A' for Active; 'I' for Inactive)
REMARK    1  A    between atoms: N_4  and  C_5 
REMARK    2  A    between atoms: C_13  and  C_14 
REMARK    3  A    between atoms: C_15  and  C_16 
REMARK       I    between atoms: C_16  and  N_17 
REMARK    4  A    between atoms: N_17  and  C_18 
REMARK    5  A    between atoms: C_18  and  C_19 
REMARK    6  A    between atoms: C_19  and  N_20 
REMARK    7  A    between atoms: C_21  and  O_22 
REMARK    8  A    between atoms: C_21  and  C_23 
REMARK    9  A    between atoms: C_28  and  O_29 
ROOT
HETATM    1  C   UNL     1      23.330  43.118  49.162  1.00  0.00     0.241 C 
HETATM    2  N   UNL     1      24.680  43.038  48.944  1.00  0.00    -0.356 N 
HETATM    3  O   UNL     1      22.562  42.168  49.068  1.00  0.00    -0.269 OA
HETATM    4  H   UNL     1      25.300  43.799  49.189  1.00  0.00     0.162 HD
ENDROOT
BRANCH   1   5
HETATM    5  C   UNL     1      22.868  44.483  49.520  1.00  0.00     0.075 C 
HETATM    6  C   UNL     1      23.293  45.519  48.780  1.00  0.00     0.021 C 
BRANCH   6   7
HETATM    7  C   UNL     1      23.011  46.903  48.993  1.00  0.00     0.014 C 
HETATM    8  C   UNL     1      23.812  47.943  49.513  1.00  0.00     0.063 C 
HETATM    9  C   UNL     1      25.205  47.899  50.025  1.00  0.00     0.073 C 
HETATM   10  N   UNL     1      23.161  49.108  49.508  1.00  0.00    -0.171 NA
HETATM   11  N   UNL     1      21.890  48.818  49.114  1.00  0.00    -0.237 N 
HETATM   12  C   UNL     1      21.801  47.500  48.673  1.00  0.00     0.045 C 
HETATM   13  C   UNL     1      20.644  46.919  47.936  1.00  0.00     0.071 C 
BRANCH  11  14
HETATM   14  C   UNL     1      20.891  49.838  49.205  1.00  0.00     0.058 A 
HETATM   15  C   UNL     1      20.996  50.967  48.375  1.00  0.00     0.031 A 
HETATM   16  C   UNL     1      20.040  51.987  48.434  1.00  0.00     0.002 A 
HETATM   17  C   UNL     1      18.981  51.898  49.333  1.00  0.00     0.000 A 
HETATM   18  C   UNL     1      18.883  50.798  50.181  1.00  0.00     0.002 A 
HETATM   19  C   UNL     1      19.836  49.774  50.123  1.00  0.00     0.031 A 
ENDBRANCH  11  14
ENDBRANCH   6   7
ENDBRANCH   1   5
BRANCH   2  20
HETATM   20  C   UNL     1      25.321  41.764  48.678  1.00  0.00     0.144 C 
BRANCH  20  21
HETATM   21  C   UNL     1      26.842  41.859  48.817  1.00  0.00     0.171 C 
BRANCH  21  22
HETATM   22  N   UNL     1      27.183  42.061  50.224  1.00  0.00    -0.263 NA
HETATM   23  C   UNL     1      27.442  43.236  50.674  1.00  0.00     0.189 C 
BRANCH  23  24
HETATM   24  O   UNL     1      27.359  44.351  49.915  1.00  0.00    -0.343 OA
HETATM   25  H   UNL     1      27.996  45.026  50.174  1.00  0.00     0.219 HD
ENDBRANCH  23  24
BRANCH  23  26
HETATM   26  C   UNL     1      27.877  43.561  52.074  1.00  0.00     0.141 A 
HETATM   27  N   UNL     1      27.252  44.633  52.648  1.00  0.00    -0.254 NA
HETATM   28  C   UNL     1      27.627  44.983  53.895  1.00  0.00     0.117 A 
HETATM   29  C   UNL     1      28.601  44.319  54.617  1.00  0.00     0.022 A 
HETATM   30  C   UNL     1      29.231  43.226  54.029  1.00  0.00     0.040 A 
HETATM   31  C   UNL     1      28.869  42.834  52.739  1.00  0.00     0.098 A 
BRANCH  31  32
HETATM   32  O   UNL     1      29.503  41.760  52.179  1.00  0.00    -0.358 OA
HETATM   33  H   UNL     1      30.257  41.497  52.731  1.00  0.00     0.218 HD
ENDBRANCH  31  32
ENDBRANCH  23  26
ENDBRANCH  21  22
ENDBRANCH  20  21
ENDBRANCH   2  20
TORSDOF 9
ENDMDL
MODEL 8
REMARK VINA RESULT:      -8.4      3.125      8.416
REMARK  9 active torsions:
REMARK  status: ('A' for Active; 'I' for Inactive)
REMARK    1  A    between atoms: N_4  and  C_5 
REMARK    2  A    between atoms: C_13  and  C_14 
REMARK    3  A    between atoms: C_15  and  C_16 
REMARK       I    between atoms: C_16  and  N_17 
REMARK    4  A    between atoms: N_17  and  C_18 
REMARK    5  A    between atoms: C_18  and  C_19 
REMARK    6  A    between atoms: C_19  and  N_20 
REMARK    7  A    between atoms: C_21  and  O_22 
REMARK    8  A    between atoms: C_21  and  C_23 
REMARK    9  A    between atoms: C_28  and  O_29 
ROOT
HETATM    1  C   UNL     1      25.292  42.407  50.655  1.00  0.00     0.241 C 
HETATM    2  N   UNL     1      26.457  42.209  51.347  1.00  0.00    -0.356 N 
HETATM    3  O   UNL     1      24.768  41.563  49.938  1.00  0.00    -0.269 OA
HETATM    4  H   UNL     1      26.770  42.865  52.052  1.00  0.00     0.162 HD
ENDROOT
BRANCH   1   5
HETATM    5  C   UNL     1      24.714  43.761  50.845  1.00  0.00     0.075 C 
HETATM    6  C   UNL     1      24.924  44.688  49.897  1.00  0.00     0.021 C 
BRANCH   6   7
HETATM    7  C   UNL     1      24.503  46.053  49.918  1.00  0.00     0.014 C 
HETATM    8  C   UNL     1      24.961  47.152  50.676  1.00  0.00     0.063 C 
HETATM    9  C   UNL     1      26.022  47.210  51.713  1.00  0.00     0.073 C 
HETATM   10  N   UNL     1      24.306  48.270  50.357  1.00  0.00    -0.171 NA
HETATM   11  N   UNL     1      23.328  47.889  49.490  1.00  0.00    -0.237 N 
HETATM   12  C   UNL     1      23.500  46.561  49.107  1.00  0.00     0.045 C 
HETATM   13  C   UNL     1      22.781  45.893  47.986  1.00  0.00     0.071 C 
BRANCH  11  14
HETATM   14  C   UNL     1      22.325  48.841  49.123  1.00  0.00     0.058 A 
HETATM   15  C   UNL     1      22.697  50.184  48.938  1.00  0.00     0.031 A 
HETATM   16  C   UNL     1      21.747  51.144  48.579  1.00  0.00     0.002 A 
HETATM   17  C   UNL     1      20.413  50.779  48.417  1.00  0.00     0.000 A 
HETATM   18  C   UNL     1      20.027  49.458  48.625  1.00  0.00     0.002 A 
HETATM   19  C   UNL     1      20.976  48.493  48.983  1.00  0.00     0.031 A 
ENDBRANCH  11  14
ENDBRANCH   6   7
ENDBRANCH   1   5
BRANCH   2  20
HETATM   20  C   UNL     1      27.113  40.914  51.357  1.00  0.00     0.144 C 
BRANCH  20  21
HETATM   21  C   UNL     1      28.221  40.852  52.410  1.00  0.00     0.171 C 
BRANCH  21  22
HETATM   22  N   UNL     1      28.119  42.019  53.283  1.00  0.00    -0.263 NA
HETATM   23  C   UNL     1      29.132  42.786  53.475  1.00  0.00     0.189 C 
BRANCH  23  24
HETATM   24  O   UNL     1      30.318  42.611  52.850  1.00  0.00    -0.343 OA
HETATM   25  H   UNL     1      30.468  43.255  52.150  1.00  0.00     0.219 HD
ENDBRANCH  23  24
BRANCH  23  26
HETATM   26  C   UNL     1      29.174  43.965  54.403  1.00  0.00     0.141 A 
HETATM   27  N   UNL     1      28.230  44.927  54.172  1.00  0.00    -0.254 NA
HETATM   28  C   UNL     1      28.243  46.020  54.961  1.00  0.00     0.117 A 
HETATM   29  C   UNL     1      29.152  46.217  55.984  1.00  0.00     0.022 A 
HETATM   30  C   UNL     1      30.108  45.232  56.217  1.00  0.00     0.040 A 
HETATM   31  C   UNL     1      30.126  44.086  55.420  1.00  0.00     0.098 A 
BRANCH  31  32
HETATM   32  O   UNL     1      31.076  43.134  55.665  1.00  0.00    -0.358 OA
HETATM   33  H   UNL     1      31.864  43.308  55.126  1.00  0.00     0.218 HD
ENDBRANCH  31  32
ENDBRANCH  23  26
ENDBRANCH  21  22
ENDBRANCH  20  21
ENDBRANCH   2  20
TORSDOF 9
ENDMDL
MODEL 9
REMARK VINA RESULT:      -8.3     11.055     15.436
REMARK  9 active torsions:
REMARK  status: ('A' for Active; 'I' for Inactive)
REMARK    1  A    between atoms: N_4  and  C_5 
REMARK    2  A    between atoms: C_13  and  C_14 
REMARK    3  A    between atoms: C_15  and  C_16 
REMARK       I    between atoms: C_16  and  N_17 
REMARK    4  A    between atoms: N_17  and  C_18 
REMARK    5  A    between atoms: C_18  and  C_19 
REMARK    6  A    between atoms: C_19  and  N_20 
REMARK    7  A    between atoms: C_21  and  O_22 
REMARK    8  A    between atoms: C_21  and  C_23 
REMARK    9  A    between atoms: C_28  and  O_29 
ROOT
HETATM    1  C   UNL     1      14.549  53.102  50.016  1.00  0.00     0.241 C 
HETATM    2  N   UNL     1      14.281  53.850  48.900  1.00  0.00    -0.356 N 
HETATM    3  O   UNL     1      13.853  53.100  51.024  1.00  0.00    -0.269 OA
HETATM    4  H   UNL     1      14.782  53.702  48.034  1.00  0.00     0.162 HD
ENDROOT
BRANCH   1   5
HETATM    5  C   UNL     1      15.783  52.285  49.898  1.00  0.00     0.075 C 
HETATM    6  C   UNL     1      15.961  51.548  48.791  1.00  0.00     0.021 C 
BRANCH   6   7
HETATM    7  C   UNL     1      17.044  50.658  48.513  1.00  0.00     0.014 C 
HETATM    8  C   UNL     1      17.055  49.285  48.185  1.00  0.00     0.063 C 
HETATM    9  C   UNL     1      15.922  48.335  48.052  1.00  0.00     0.073 C 
HETATM   10  N   UNL     1      18.296  48.846  47.970  1.00  0.00    -0.171 NA
HETATM   11  N   UNL     1      19.115  49.887  48.286  1.00  0.00    -0.237 N 
HETATM   12  C   UNL     1      18.375  51.047  48.502  1.00  0.00     0.045 C 
HETATM   13  C   UNL     1      18.944  52.419  48.611  1.00  0.00     0.071 C 
BRANCH  11  14
HETATM   14  C   UNL     1      20.526  49.658  48.350  1.00  0.00     0.058 A 
HETATM   15  C   UNL     1      21.386  50.511  47.637  1.00  0.00     0.031 A 
HETATM   16  C   UNL     1      22.771  50.321  47.674  1.00  0.00     0.002 A 
HETATM   17  C   UNL     1      23.311  49.268  48.409  1.00  0.00     0.000 A 
HETATM   18  C   UNL     1      22.467  48.400  49.096  1.00  0.00     0.002 A 
HETATM   19  C   UNL     1      21.080  48.588  49.064  1.00  0.00     0.031 A 
ENDBRANCH  11  14
ENDBRANCH   6   7
ENDBRANCH   1   5
BRANCH   2  20
HETATM   20  C   UNL     1      13.065  54.636  48.799  1.00  0.00     0.144 C 
BRANCH  20  21
HETATM   21  C   UNL     1      13.369  56.131  48.686  1.00  0.00     0.171 C 
BRANCH  21  22
HETATM   22  N   UNL     1      13.551  56.686  50.026  1.00  0.00    -0.263 NA
HETATM   23  C   UNL     1      14.719  56.746  50.558  1.00  0.00     0.189 C 
BRANCH  23  24
HETATM   24  O   UNL     1      15.844  56.370  49.911  1.00  0.00    -0.343 OA
HETATM   25  H   UNL     1      16.645  56.691  50.339  1.00  0.00     0.219 HD
ENDBRANCH  23  24
BRANCH  23  26
HETATM   26  C   UNL     1      15.024  57.221  51.949  1.00  0.00     0.141 A 
HETATM   27  N   UNL     1      15.087  58.578  52.105  1.00  0.00    -0.254 NA
HETATM   28  C   UNL     1      15.385  59.056  53.329  1.00  0.00     0.117 A 
HETATM   29  C   UNL     1      15.627  58.252  54.428  1.00  0.00     0.022 A 
HETATM   30  C   UNL     1      15.557  56.871  54.264  1.00  0.00     0.040 A 
HETATM   31  C   UNL     1      15.251  56.339  53.010  1.00  0.00     0.098 A 
BRANCH  31  32
HETATM   32  O   UNL     1      15.191  54.981  52.872  1.00  0.00    -0.358 OA
HETATM   33  H   UNL     1      16.088  54.611  52.853  1.00  0.00     0.218 HD
ENDBRANCH  31  32
ENDBRANCH  23  26
ENDBRANCH  21  22
ENDBRANCH  20  21
ENDBRANCH   2  20
TORSDOF 9
ENDMDL
MODEL 10
REMARK VINA RESULT:      -8.2      2.783      6.097
REMARK  9 active torsions:
REMARK  status: ('A' for Active; 'I' for Inactive)
REMARK    1  A    between atoms: N_4  and  C_5 
REMARK    2  A    between atoms: C_13  and  C_14 
REMARK    3  A    between atoms: C_15  and  C_16 
REMARK       I    between atoms: C_16  and  N_17 
REMARK    4  A    between atoms: N_17  and  C_18 
REMARK    5  A    between atoms: C_18  and  C_19 
REMARK    6  A    between atoms: C_19  and  N_20 
REMARK    7  A    between atoms: C_21  and  O_22 
REMARK    8  A    between atoms: C_21  and  C_23 
REMARK    9  A    between atoms: C_28  and  O_29 
ROOT
HETATM    1  C   UNL     1      24.935  43.673  50.495  1.00  0.00     0.241 C 
HETATM    2  N   UNL     1      24.907  44.132  49.205  1.00  0.00    -0.356 N 
HETATM    3  O   UNL     1      23.963  43.209  51.079  1.00  0.00    -0.269 OA
HETATM    4  H   UNL     1      25.759  44.353  48.706  1.00  0.00     0.162 HD
ENDROOT
BRANCH   1   5
HETATM    5  C   UNL     1      26.266  43.797  51.139  1.00  0.00     0.075 C 
HETATM    6  C   UNL     1      26.562  42.981  52.163  1.00  0.00     0.021 C 
BRANCH   6   7
HETATM    7  C   UNL     1      27.757  42.979  52.946  1.00  0.00     0.014 C 
HETATM    8  C   UNL     1      28.856  42.092  52.959  1.00  0.00     0.063 C 
HETATM    9  C   UNL     1      29.088  40.862  52.161  1.00  0.00     0.073 C 
HETATM   10  N   UNL     1      29.786  42.483  53.832  1.00  0.00    -0.171 NA
HETATM   11  N   UNL     1      29.249  43.546  54.492  1.00  0.00    -0.237 N 
HETATM   12  C   UNL     1      28.061  43.950  53.888  1.00  0.00     0.045 C 
HETATM   13  C   UNL     1      27.343  45.223  54.177  1.00  0.00     0.071 C 
BRANCH  11  14
HETATM   14  C   UNL     1      29.933  44.061  55.638  1.00  0.00     0.058 A 
HETATM   15  C   UNL     1      30.892  43.256  56.276  1.00  0.00     0.031 A 
HETATM   16  C   UNL     1      31.583  43.723  57.398  1.00  0.00     0.002 A 
HETATM   17  C   UNL     1      31.311  44.991  57.907  1.00  0.00     0.000 A 
HETATM   18  C   UNL     1      30.342  45.786  57.301  1.00  0.00     0.002 A 
HETATM   19  C   UNL     1      29.651  45.323  56.175  1.00  0.00     0.031 A 
ENDBRANCH  11  14
ENDBRANCH   6   7
ENDBRANCH   1   5
BRANCH   2  20
HETATM   20  C   UNL     1      23.714  44.002  48.388  1.00  0.00     0.144 C 
BRANCH  20  21
HETATM   21  C   UNL     1      22.567  44.860  48.927  1.00  0.00     0.171 C 
BRANCH  21  22
HETATM   22  N   UNL     1      22.944  46.269  48.847  1.00  0.00    -0.263 NA
HETATM   23  C   UNL     1      22.048  47.189  48.843  1.00  0.00     0.189 C 
BRANCH  23  24
HETATM   24  O   UNL     1      20.727  46.932  48.973  1.00  0.00    -0.343 OA
HETATM   25  H   UNL     1      20.531  46.368  49.729  1.00  0.00     0.219 HD
ENDBRANCH  23  24
BRANCH  23  26
HETATM   26  C   UNL     1      22.304  48.661  48.689  1.00  0.00     0.141 A 
HETATM   27  N   UNL     1      23.399  48.990  47.938  1.00  0.00    -0.254 NA
HETATM   28  C   UNL     1      23.689  50.298  47.792  1.00  0.00     0.117 A 
HETATM   29  C   UNL     1      22.943  51.316  48.357  1.00  0.00     0.022 A 
HETATM   30  C   UNL     1      21.827  50.975  49.117  1.00  0.00     0.040 A 
HETATM   31  C   UNL     1      21.495  49.630  49.290  1.00  0.00     0.098 A 
BRANCH  31  32
HETATM   32  O   UNL     1      20.398  49.318  50.043  1.00  0.00    -0.358 OA
HETATM   33  H   UNL     1      20.088  48.426  49.821  1.00  0.00     0.218 HD
ENDBRANCH  31  32
ENDBRANCH  23  26
ENDBRANCH  21  22
ENDBRANCH  20  21
ENDBRANCH   2  20
TORSDOF 9
ENDMDL
