MODEL 1
REMARK VINA RESULT:      -9.8      0.000      0.000
REMARK  5 active torsions:
REMARK  status: ('A' for Active; 'I' for Inactive)
REMARK    1  A    between atoms: C_6  and  N_7 
REMARK       I    between atoms: N_7  and  C_8 
REMARK       I    between atoms: C_8  and  N_9 
REMARK    2  A    between atoms: N_9  and  C_10 
REMARK    3  A    between atoms: C_13  and  C_14 
REMARK       I    between atoms: C_14  and  N_15 
REMARK    4  A    between atoms: N_15  and  C_16 
REMARK    5  A    between atoms: C_16  and  C_17 
ROOT
HETATM    1  C   UNL     1      24.207  45.625  50.129  1.00  0.00     0.175 A 
HETATM    2  S   UNL     1      24.188  44.025  50.715  1.00  0.00    -0.061 SA
HETATM    3  C   UNL     1      25.010  44.553  52.117  1.00  0.00     0.090 A 
HETATM    4  C   UNL     1      25.223  45.921  52.064  1.00  0.00     0.133 A 
HETATM    5  N   UNL     1      24.777  46.536  50.882  1.00  0.00    -0.218 NA
ENDROOT
BRANCH   1   6
HETATM    6  N   UNL     1      23.607  45.771  48.915  1.00  0.00    -0.287 N 
HETATM    7  C   UNL     1      22.772  46.771  48.517  1.00  0.00     0.326 C 
HETATM    8  N   UNL     1      22.573  47.802  49.395  1.00  0.00    -0.309 N 
HETATM    9  O   UNL     1      22.290  46.684  47.389  1.00  0.00    -0.247 OA
HETATM   10  H   UNL     1      23.095  47.730  50.263  1.00  0.00     0.170 HD
HETATM   11  H   UNL     1      23.782  45.063  48.219  1.00  0.00     0.172 HD
BRANCH   8  12
HETATM   12  C   UNL     1      21.805  48.968  49.203  1.00  0.00     0.037 A 
HETATM   13  C   UNL     1      20.418  49.024  49.368  1.00  0.00     0.053 A 
HETATM   14  C   UNL     1      19.733  50.220  49.142  1.00  0.00     0.036 A 
HETATM   15  C   UNL     1      20.415  51.368  48.750  1.00  0.00     0.024 A 
HETATM   16 CL   UNL     1      18.024  50.280  49.353  1.00  0.00    -0.084 Cl
HETATM   17  C   UNL     1      21.798  51.323  48.589  1.00  0.00     0.004 A 
HETATM   18  C   UNL     1      22.489  50.129  48.819  1.00  0.00     0.029 A 
ENDBRANCH   8  12
ENDBRANCH   1   6
BRANCH   4  19
HETATM   19  C   UNL     1      25.842  46.667  53.164  1.00  0.00     0.271 C 
HETATM   20  N   UNL     1      26.905  46.021  53.746  1.00  0.00    -0.351 N 
HETATM   21  H   UNL     1      27.085  45.065  53.468  1.00  0.00     0.163 HD
HETATM   22  O   UNL     1      25.451  47.776  53.514  1.00  0.00    -0.266 OA
BRANCH  20  23
HETATM   23  C   UNL     1      27.608  46.612  54.857  1.00  0.00     0.161 C 
BRANCH  23  24
HETATM   24  C   UNL     1      28.683  45.720  55.426  1.00  0.00    -0.040 A 
HETATM   25  C   UNL     1      29.121  44.569  54.751  1.00  0.00     0.010 A 
HETATM   26  C   UNL     1      30.161  43.792  55.269  1.00  0.00     0.024 A 
HETATM   27  C   UNL     1      30.787  44.172  56.453  1.00  0.00     0.034 A 
HETATM   28 CL   UNL     1      32.077  43.224  57.083  1.00  0.00    -0.084 Cl
HETATM   29  C   UNL     1      30.383  45.322  57.124  1.00  0.00     0.024 A 
HETATM   30  C   UNL     1      29.338  46.095  56.610  1.00  0.00     0.010 A 
ENDBRANCH  23  24
ENDBRANCH  20  23
ENDBRANCH   4  19
TORSDOF 5
ENDMDL
MODEL 2
REMARK VINA RESULT:      -9.5      1.538      2.066
REMARK  5 active torsions:
REMARK  status: ('A' for Active; 'I' for Inactive)
REMARK    1  A    between atoms: C_6  and  N_7 
REMARK       I    between atoms: N_7  and  C_8 
REMARK       I    between atoms: C_8  and  N_9 
REMARK    2  A    between atoms: N_9  and  C_10 
REMARK    3  A    between atoms: C_13  and  C_14 
REMARK       I    between atoms: C_14  and  N_15 
REMARK    4  A    between atoms: N_15  and  C_16 
REMARK    5  A    between atoms: C_16  and  C_17 
ROOT
HETATM    1  C   UNL     1      25.703  47.450  50.326  1.00  0.00     0.175 A 
HETATM    2  S   UNL     1      25.776  45.826  49.815  1.00  0.00    -0.061 SA
HETATM    3  C   UNL     1      26.019  45.349  51.438  1.00  0.00     0.090 A 
HETATM    4  C   UNL     1      26.001  46.456  52.273  1.00  0.00     0.133 A 
HETATM    5  N   UNL     1      25.847  47.685  51.610  1.00  0.00    -0.218 NA
ENDROOT
BRANCH   1   6
HETATM    6  N   UNL     1      25.495  48.335  49.313  1.00  0.00    -0.287 N 
HETATM    7  C   UNL     1      24.301  48.792  48.843  1.00  0.00     0.326 C 
HETATM    8  N   UNL     1      23.175  48.394  49.512  1.00  0.00    -0.309 N 
HETATM    9  O   UNL     1      24.332  49.549  47.875  1.00  0.00    -0.247 OA
HETATM   10  H   UNL     1      23.346  47.806  50.322  1.00  0.00     0.170 HD
HETATM   11  H   UNL     1      26.305  48.700  48.836  1.00  0.00     0.172 HD
BRANCH   8  12
HETATM   12  C   UNL     1      21.839  48.766  49.259  1.00  0.00     0.037 A 
HETATM   13  C   UNL     1      21.327  50.045  49.492  1.00  0.00     0.053 A 
HETATM   14  C   UNL     1      19.985  50.322  49.225  1.00  0.00     0.036 A 
HETATM   15  C   UNL     1      19.139  49.334  48.727  1.00  0.00     0.024 A 
HETATM   16 CL   UNL     1      19.364  51.904  49.511  1.00  0.00    -0.084 Cl
HETATM   17  C   UNL     1      19.643  48.058  48.486  1.00  0.00     0.004 A 
HETATM   18  C   UNL     1      20.987  47.777  48.746  1.00  0.00     0.029 A 
ENDBRANCH   8  12
ENDBRANCH   1   6
BRANCH   4  19
HETATM   19  C   UNL     1      26.110  46.347  53.730  1.00  0.00     0.271 C 
HETATM   20  N   UNL     1      27.255  46.903  54.246  1.00  0.00    -0.351 N 
HETATM   21  H   UNL     1      27.964  47.212  53.593  1.00  0.00     0.163 HD
HETATM   22  O   UNL     1      25.243  45.821  54.422  1.00  0.00    -0.266 OA
BRANCH  20  23
HETATM   23  C   UNL     1      27.524  46.859  55.662  1.00  0.00     0.161 C 
BRANCH  23  24
HETATM   24  C   UNL     1      28.712  46.002  56.018  1.00  0.00    -0.040 A 
HETATM   25  C   UNL     1      29.361  46.116  57.258  1.00  0.00     0.010 A 
HETATM   26  C   UNL     1      30.421  45.269  57.590  1.00  0.00     0.024 A 
HETATM   27  C   UNL     1      30.829  44.285  56.692  1.00  0.00     0.034 A 
HETATM   28 CL   UNL     1      32.125  43.232  57.105  1.00  0.00    -0.084 Cl
HETATM   29  C   UNL     1      30.184  44.141  55.467  1.00  0.00     0.024 A 
HETATM   30  C   UNL     1      29.128  44.993  55.133  1.00  0.00     0.010 A 
ENDBRANCH  23  24
ENDBRANCH  20  23
ENDBRANCH   4  19
TORSDOF 5
ENDMDL
MODEL 3
REMARK VINA RESULT:      -9.4      2.061     10.194
REMARK  5 active torsions:
REMARK  status: ('A' for Active; 'I' for Inactive)
REMARK    1  A    between atoms: C_6  and  N_7 
REMARK       I    between atoms: N_7  and  C_8 
REMARK       I    between atoms: C_8  and  N_9 
REMARK    2  A    between atoms: N_9  and  C_10 
REMARK    3  A    between atoms: C_13  and  C_14 
REMARK       I    between atoms: C_14  and  N_15 
REMARK    4  A    between atoms: N_15  and  C_16 
REMARK    5  A    between atoms: C_16  and  C_17 
ROOT
HETATM    1  C   UNL     1      25.490  45.237  51.920  1.00  0.00     0.175 A 
HETATM    2  S   UNL     1      26.131  44.246  50.691  1.00  0.00    -0.061 SA
HETATM    3  C   UNL     1      26.100  45.584  49.628  1.00  0.00     0.090 A 
HETATM    4  C   UNL     1      25.630  46.710  50.284  1.00  0.00     0.133 A 
HETATM    5  N   UNL     1      25.246  46.491  51.618  1.00  0.00    -0.218 NA
ENDROOT
BRANCH   1   6
HETATM    6  N   UNL     1      25.308  44.591  53.105  1.00  0.00    -0.287 N 
HETATM    7  C   UNL     1      26.255  44.267  54.028  1.00  0.00     0.326 C 
HETATM    8  N   UNL     1      27.528  44.713  53.796  1.00  0.00    -0.309 N 
HETATM    9  O   UNL     1      25.884  43.628  55.011  1.00  0.00    -0.247 OA
HETATM   10  H   UNL     1      27.638  45.270  52.956  1.00  0.00     0.170 HD
HETATM   11  H   UNL     1      24.370  44.303  53.341  1.00  0.00     0.172 HD
BRANCH   8  12
HETATM   12  C   UNL     1      28.664  44.556  54.616  1.00  0.00     0.037 A 
HETATM   13  C   UNL     1      28.955  45.376  55.710  1.00  0.00     0.053 A 
HETATM   14  C   UNL     1      30.113  45.158  56.460  1.00  0.00     0.036 A 
HETATM   15  C   UNL     1      30.991  44.128  56.132  1.00  0.00     0.024 A 
HETATM   16 CL   UNL     1      30.461  46.171  57.810  1.00  0.00    -0.084 Cl
HETATM   17  C   UNL     1      30.705  43.303  55.047  1.00  0.00     0.004 A 
HETATM   18  C   UNL     1      29.545  43.514  54.296  1.00  0.00     0.029 A 
ENDBRANCH   8  12
ENDBRANCH   1   6
BRANCH   4  19
HETATM   19  C   UNL     1      25.562  48.027  49.644  1.00  0.00     0.271 C 
HETATM   20  N   UNL     1      24.298  48.389  49.249  1.00  0.00    -0.351 N 
HETATM   21  H   UNL     1      23.567  47.692  49.308  1.00  0.00     0.163 HD
HETATM   22  O   UNL     1      26.549  48.743  49.496  1.00  0.00    -0.266 OA
BRANCH  20  23
HETATM   23  C   UNL     1      24.066  49.647  48.582  1.00  0.00     0.161 C 
BRANCH  23  24
HETATM   24  C   UNL     1      22.682  50.198  48.813  1.00  0.00    -0.040 A 
HETATM   25  C   UNL     1      22.248  50.594  50.089  1.00  0.00     0.010 A 
HETATM   26  C   UNL     1      20.982  51.160  50.268  1.00  0.00     0.024 A 
HETATM   27  C   UNL     1      20.149  51.354  49.169  1.00  0.00     0.034 A 
HETATM   28 CL   UNL     1      18.596  52.063  49.386  1.00  0.00    -0.084 Cl
HETATM   29  C   UNL     1      20.570  50.989  47.894  1.00  0.00     0.024 A 
HETATM   30  C   UNL     1      21.832  50.417  47.717  1.00  0.00     0.010 A 
ENDBRANCH  23  24
ENDBRANCH  20  23
ENDBRANCH   4  19
TORSDOF 5
ENDMDL
MODEL 4
REMARK VINA RESULT:      -9.2      2.200      2.795
REMARK  5 active torsions:
REMARK  status: ('A' for Active; 'I' for Inactive)
REMARK    1  A    between atoms: C_6  and  N_7 
REMARK       I    between atoms: N_7  and  C_8 
REMARK       I    between atoms: C_8  and  N_9 
REMARK    2  A    between atoms: N_9  and  C_10 
REMARK    3  A    between atoms: C_13  and  C_14 
REMARK       I    between atoms: C_14  and  N_15 
REMARK    4  A    between atoms: N_15  and  C_16 
REMARK    5  A    between atoms: C_16  and  C_17 
ROOT
HETATM    1  C   UNL     1      25.147  48.974  49.002  1.00  0.00     0.175 A 
HETATM    2  S   UNL     1      26.841  49.056  48.840  1.00  0.00    -0.061 SA
HETATM    3  C   UNL     1      26.998  48.014  50.186  1.00  0.00     0.090 A 
HETATM    4  C   UNL     1      25.748  47.646  50.658  1.00  0.00     0.133 A 
HETATM    5  N   UNL     1      24.669  48.237  49.978  1.00  0.00    -0.218 NA
ENDROOT
BRANCH   1   6
HETATM    6  N   UNL     1      24.472  49.701  48.070  1.00  0.00    -0.287 N 
HETATM    7  C   UNL     1      23.141  49.991  48.047  1.00  0.00     0.326 C 
HETATM    8  N   UNL     1      22.398  49.588  49.124  1.00  0.00    -0.309 N 
HETATM    9  O   UNL     1      22.720  50.618  47.078  1.00  0.00    -0.247 OA
HETATM   10  H   UNL     1      22.926  49.125  49.857  1.00  0.00     0.170 HD
HETATM   11  H   UNL     1      24.998  50.070  47.293  1.00  0.00     0.172 HD
BRANCH   8  12
HETATM   12  C   UNL     1      21.027  49.809  49.362  1.00  0.00     0.037 A 
HETATM   13  C   UNL     1      20.046  48.819  49.252  1.00  0.00     0.053 A 
HETATM   14  C   UNL     1      18.706  49.129  49.492  1.00  0.00     0.036 A 
HETATM   15  C   UNL     1      18.327  50.422  49.842  1.00  0.00     0.024 A 
HETATM   16 CL   UNL     1      17.506  47.901  49.358  1.00  0.00    -0.084 Cl
HETATM   17  C   UNL     1      19.298  51.414  49.961  1.00  0.00     0.004 A 
HETATM   18  C   UNL     1      20.641  51.106  49.726  1.00  0.00     0.029 A 
ENDBRANCH   8  12
ENDBRANCH   1   6
BRANCH   4  19
HETATM   19  C   UNL     1      25.568  46.697  51.760  1.00  0.00     0.271 C 
HETATM   20  N   UNL     1      26.048  47.147  52.965  1.00  0.00    -0.351 N 
HETATM   21  H   UNL     1      26.584  48.006  52.968  1.00  0.00     0.163 HD
HETATM   22  O   UNL     1      25.020  45.609  51.615  1.00  0.00    -0.266 OA
BRANCH  20  23
HETATM   23  C   UNL     1      25.968  46.323  54.146  1.00  0.00     0.161 C 
BRANCH  23  24
HETATM   24  C   UNL     1      27.292  45.725  54.548  1.00  0.00    -0.040 A 
HETATM   25  C   UNL     1      28.197  46.417  55.369  1.00  0.00     0.010 A 
HETATM   26  C   UNL     1      29.391  45.817  55.778  1.00  0.00     0.024 A 
HETATM   27  C   UNL     1      29.681  44.512  55.387  1.00  0.00     0.034 A 
HETATM   28 CL   UNL     1      31.144  43.768  55.902  1.00  0.00    -0.084 Cl
HETATM   29  C   UNL     1      28.787  43.802  54.592  1.00  0.00     0.024 A 
HETATM   30  C   UNL     1      27.596  44.405  54.177  1.00  0.00     0.010 A 
ENDBRANCH  23  24
ENDBRANCH  20  23
ENDBRANCH   4  19
TORSDOF 5
ENDMDL
MODEL 5
REMARK VINA RESULT:      -9.1      2.390     10.074
REMARK  5 active torsions:
REMARK  status: ('A' for Active; 'I' for Inactive)
REMARK    1  A    between atoms: C_6  and  N_7 
REMARK       I    between atoms: N_7  and  C_8 
REMARK       I    between atoms: C_8  and  N_9 
REMARK    2  A    between atoms: N_9  and  C_10 
REMARK    3  A    between atoms: C_13  and  C_14 
REMARK       I    between atoms: C_14  and  N_15 
REMARK    4  A    between atoms: N_15  and  C_16 
REMARK    5  A    between atoms: C_16  and  C_17 
ROOT
HETATM    1  C   UNL     1      26.537  43.356  51.507  1.00  0.00     0.175 A 
HETATM    2  S   UNL     1      24.977  42.948  50.958  1.00  0.00    -0.061 SA
HETATM    3  C   UNL     1      24.889  44.455  50.158  1.00  0.00     0.090 A 
HETATM    4  C   UNL     1      26.066  45.165  50.335  1.00  0.00     0.133 A 
HETATM    5  N   UNL     1      27.014  44.527  51.153  1.00  0.00    -0.218 NA
ENDROOT
BRANCH   1   6
HETATM    6  N   UNL     1      27.121  42.388  52.267  1.00  0.00    -0.287 N 
HETATM    7  C   UNL     1      27.978  42.558  53.312  1.00  0.00     0.326 C 
HETATM    8  N   UNL     1      28.221  43.843  53.715  1.00  0.00    -0.309 N 
HETATM    9  O   UNL     1      28.438  41.542  53.830  1.00  0.00    -0.247 OA
HETATM   10  H   UNL     1      27.712  44.554  53.200  1.00  0.00     0.170 HD
HETATM   11  H   UNL     1      26.914  41.428  52.040  1.00  0.00     0.172 HD
BRANCH   8  12
HETATM   12  C   UNL     1      29.020  44.277  54.792  1.00  0.00     0.037 A 
HETATM   13  C   UNL     1      30.107  43.558  55.296  1.00  0.00     0.053 A 
HETATM   14  C   UNL     1      30.836  44.057  56.378  1.00  0.00     0.036 A 
HETATM   15  C   UNL     1      30.494  45.270  56.968  1.00  0.00     0.024 A 
HETATM   16 CL   UNL     1      32.178  43.165  56.989  1.00  0.00    -0.084 Cl
HETATM   17  C   UNL     1      29.415  45.996  56.468  1.00  0.00     0.004 A 
HETATM   18  C   UNL     1      28.686  45.504  55.382  1.00  0.00     0.029 A 
ENDBRANCH   8  12
ENDBRANCH   1   6
BRANCH   4  19
HETATM   19  C   UNL     1      26.309  46.463  49.701  1.00  0.00     0.271 C 
HETATM   20  N   UNL     1      25.224  47.304  49.722  1.00  0.00    -0.351 N 
HETATM   21  H   UNL     1      24.341  46.927  50.042  1.00  0.00     0.163 HD
HETATM   22  O   UNL     1      27.393  46.770  49.215  1.00  0.00    -0.266 OA
BRANCH  20  23
HETATM   23  C   UNL     1      25.293  48.612  49.119  1.00  0.00     0.161 C 
BRANCH  23  24
HETATM   24  C   UNL     1      23.941  49.177  48.760  1.00  0.00    -0.040 A 
HETATM   25  C   UNL     1      22.811  48.355  48.619  1.00  0.00     0.010 A 
HETATM   26  C   UNL     1      21.557  48.908  48.347  1.00  0.00     0.024 A 
HETATM   27  C   UNL     1      21.418  50.289  48.235  1.00  0.00     0.034 A 
HETATM   28 CL   UNL     1      19.872  50.971  47.913  1.00  0.00    -0.084 Cl
HETATM   29  C   UNL     1      22.522  51.122  48.394  1.00  0.00     0.024 A 
HETATM   30  C   UNL     1      23.777  50.568  48.659  1.00  0.00     0.010 A 
ENDBRANCH  23  24
ENDBRANCH  20  23
ENDBRANCH   4  19
TORSDOF 5
ENDMDL
MODEL 6
REMARK VINA RESULT:      -8.8      1.711      2.368
REMARK  5 active torsions:
REMARK  status: ('A' for Active; 'I' for Inactive)
REMARK    1  A    between atoms: C_6  and  N_7 
REMARK       I    between atoms: N_7  and  C_8 
REMARK       I    between atoms: C_8  and  N_9 
REMARK    2  A    between atoms: N_9  and  C_10 
REMARK    3  A    between atoms: C_13  and  C_14 
REMARK       I    between atoms: C_14  and  N_15 
REMARK    4  A    between atoms: N_15  and  C_16 
REMARK    5  A    between atoms: C_16  and  C_17 
ROOT
HETATM    1  C   UNL     1      24.106  46.349  49.542  1.00  0.00     0.175 A 
HETATM    2  S   UNL     1      24.925  47.785  49.952  1.00  0.00    -0.061 SA
HETATM    3  C   UNL     1      25.538  47.011  51.348  1.00  0.00     0.090 A 
HETATM    4  C   UNL     1      25.102  45.697  51.400  1.00  0.00     0.133 A 
HETATM    5  N   UNL     1      24.239  45.326  50.355  1.00  0.00    -0.218 NA
ENDROOT
BRANCH   1   6
HETATM    6  N   UNL     1      23.394  46.435  48.385  1.00  0.00    -0.287 N 
HETATM    7  C   UNL     1      22.225  47.103  48.178  1.00  0.00     0.326 C 
HETATM    8  N   UNL     1      21.743  47.851  49.218  1.00  0.00    -0.309 N 
HETATM    9  O   UNL     1      21.714  47.006  47.064  1.00  0.00    -0.247 OA
HETATM   10  H   UNL     1      22.326  47.852  50.048  1.00  0.00     0.170 HD
HETATM   11  H   UNL     1      23.753  45.949  47.578  1.00  0.00     0.172 HD
BRANCH   8  12
HETATM   12  C   UNL     1      20.593  48.665  49.239  1.00  0.00     0.037 A 
HETATM   13  C   UNL     1      20.588  50.018  48.888  1.00  0.00     0.053 A 
HETATM   14  C   UNL     1      19.404  50.755  48.953  1.00  0.00     0.036 A 
HETATM   15  C   UNL     1      18.216  50.158  49.366  1.00  0.00     0.024 A 
HETATM   16 CL   UNL     1      19.407  52.421  48.513  1.00  0.00    -0.084 Cl
HETATM   17  C   UNL     1      18.210  48.809  49.713  1.00  0.00     0.004 A 
HETATM   18  C   UNL     1      19.392  48.066  49.645  1.00  0.00     0.029 A 
ENDBRANCH   8  12
ENDBRANCH   1   6
BRANCH   4  19
HETATM   19  C   UNL     1      25.528  44.764  52.447  1.00  0.00     0.271 C 
HETATM   20  N   UNL     1      26.882  44.533  52.469  1.00  0.00    -0.351 N 
HETATM   21  H   UNL     1      27.436  44.905  51.709  1.00  0.00     0.163 HD
HETATM   22  O   UNL     1      24.742  44.255  53.241  1.00  0.00    -0.266 OA
BRANCH  20  23
HETATM   23  C   UNL     1      27.459  43.622  53.426  1.00  0.00     0.161 C 
BRANCH  23  24
HETATM   24  C   UNL     1      28.275  44.311  54.490  1.00  0.00    -0.040 A 
HETATM   25  C   UNL     1      27.757  45.376  55.245  1.00  0.00     0.010 A 
HETATM   26  C   UNL     1      28.511  45.959  56.267  1.00  0.00     0.024 A 
HETATM   27  C   UNL     1      29.781  45.467  56.557  1.00  0.00     0.034 A 
HETATM   28 CL   UNL     1      30.705  46.175  57.824  1.00  0.00    -0.084 Cl
HETATM   29  C   UNL     1      30.303  44.398  55.835  1.00  0.00     0.024 A 
HETATM   30  C   UNL     1      29.552  43.821  54.808  1.00  0.00     0.010 A 
ENDBRANCH  23  24
ENDBRANCH  20  23
ENDBRANCH   4  19
TORSDOF 5
ENDMDL
MODEL 7
REMARK VINA RESULT:      -8.6      4.677      8.786
REMARK  5 active torsions:
REMARK  status: ('A' for Active; 'I' for Inactive)
REMARK    1  A    between atoms: C_6  and  N_7 
REMARK       I    between atoms: N_7  and  C_8 
REMARK       I    between atoms: C_8  and  N_9 
REMARK    2  A    between atoms: N_9  and  C_10 
REMARK    3  A    between atoms: C_13  and  C_14 
REMARK       I    between atoms: C_14  and  N_15 
REMARK    4  A    between atoms: N_15  and  C_16 
REMARK    5  A    between atoms: C_16  and  C_17 
ROOT
HETATM    1  C   UNL     1      25.468  46.275  52.360  1.00  0.00     0.175 A 
HETATM    2  S   UNL     1      25.067  47.151  50.955  1.00  0.00    -0.061 SA
HETATM    3  C   UNL     1      24.662  45.681  50.182  1.00  0.00     0.090 A 
HETATM    4  C   UNL     1      24.831  44.616  51.053  1.00  0.00     0.133 A 
HETATM    5  N   UNL     1      25.332  44.970  52.317  1.00  0.00    -0.218 NA
ENDROOT
BRANCH   1   6
HETATM    6  N   UNL     1      25.889  47.058  53.392  1.00  0.00    -0.287 N 
HETATM    7  C   UNL     1      26.865  46.780  54.300  1.00  0.00     0.326 C 
HETATM    8  N   UNL     1      27.575  45.624  54.116  1.00  0.00    -0.309 N 
HETATM    9  O   UNL     1      27.051  47.605  55.193  1.00  0.00    -0.247 OA
HETATM   10  H   UNL     1      27.314  45.091  53.293  1.00  0.00     0.170 HD
HETATM   11  H   UNL     1      25.431  47.948  53.520  1.00  0.00     0.172 HD
BRANCH   8  12
HETATM   12  C   UNL     1      28.657  45.142  54.879  1.00  0.00     0.037 A 
HETATM   13  C   UNL     1      29.126  45.756  56.044  1.00  0.00     0.053 A 
HETATM   14  C   UNL     1      30.216  45.216  56.730  1.00  0.00     0.036 A 
HETATM   15  C   UNL     1      30.850  44.066  56.269  1.00  0.00     0.024 A 
HETATM   16 CL   UNL     1      30.784  45.978  58.168  1.00  0.00    -0.084 Cl
HETATM   17  C   UNL     1      30.386  43.444  55.112  1.00  0.00     0.004 A 
HETATM   18  C   UNL     1      29.291  43.977  54.424  1.00  0.00     0.029 A 
ENDBRANCH   8  12
ENDBRANCH   1   6
BRANCH   4  19
HETATM   19  C   UNL     1      24.490  43.238  50.691  1.00  0.00     0.271 C 
HETATM   20  N   UNL     1      25.402  42.639  49.857  1.00  0.00    -0.351 N 
HETATM   21  H   UNL     1      26.137  43.218  49.469  1.00  0.00     0.163 HD
HETATM   22  O   UNL     1      23.487  42.670  51.115  1.00  0.00    -0.266 OA
BRANCH  20  23
HETATM   23  C   UNL     1      25.201  41.290  49.390  1.00  0.00     0.161 C 
BRANCH  23  24
HETATM   24  C   UNL     1      26.380  40.387  49.646  1.00  0.00    -0.040 A 
HETATM   25  C   UNL     1      26.562  39.189  48.936  1.00  0.00     0.010 A 
HETATM   26  C   UNL     1      27.695  38.399  49.148  1.00  0.00     0.024 A 
HETATM   27  C   UNL     1      28.667  38.811  50.056  1.00  0.00     0.034 A 
HETATM   28 CL   UNL     1      30.068  37.846  50.308  1.00  0.00    -0.084 Cl
HETATM   29  C   UNL     1      28.516  40.006  50.753  1.00  0.00     0.024 A 
HETATM   30  C   UNL     1      27.379  40.792  50.547  1.00  0.00     0.010 A 
ENDBRANCH  23  24
ENDBRANCH  20  23
ENDBRANCH   4  19
TORSDOF 5
ENDMDL
MODEL 8
REMARK VINA RESULT:      -8.5      2.443      9.857
REMARK  5 active torsions:
REMARK  status: ('A' for Active; 'I' for Inactive)
REMARK    1  A    between atoms: C_6  and  N_7 
REMARK       I    between atoms: N_7  and  C_8 
REMARK       I    between atoms: C_8  and  N_9 
REMARK    2  A    between atoms: N_9  and  C_10 
REMARK    3  A    between atoms: C_13  and  C_14 
REMARK       I    between atoms: C_14  and  N_15 
REMARK    4  A    between atoms: N_15  and  C_16 
REMARK    5  A    between atoms: C_16  and  C_17 
ROOT
HETATM    1  C   UNL     1      25.457  44.327  49.654  1.00  0.00     0.175 A 
HETATM    2  S   UNL     1      23.813  44.061  49.291  1.00  0.00    -0.061 SA
HETATM    3  C   UNL     1      23.570  45.752  49.256  1.00  0.00     0.090 A 
HETATM    4  C   UNL     1      24.763  46.415  49.495  1.00  0.00     0.133 A 
HETATM    5  N   UNL     1      25.857  45.573  49.757  1.00  0.00    -0.218 NA
ENDROOT
BRANCH   1   6
HETATM    6  N   UNL     1      26.180  43.182  49.792  1.00  0.00    -0.287 N 
HETATM    7  C   UNL     1      27.157  42.923  50.705  1.00  0.00     0.326 C 
HETATM    8  N   UNL     1      27.389  43.879  51.656  1.00  0.00    -0.309 N 
HETATM    9  O   UNL     1      27.729  41.837  50.621  1.00  0.00    -0.247 OA
HETATM   10  H   UNL     1      26.784  44.692  51.600  1.00  0.00     0.170 HD
HETATM   11  H   UNL     1      25.991  42.429  49.148  1.00  0.00     0.172 HD
BRANCH   8  12
HETATM   12  C   UNL     1      28.301  43.829  52.730  1.00  0.00     0.037 A 
HETATM   13  C   UNL     1      28.198  44.621  53.878  1.00  0.00     0.053 A 
HETATM   14  C   UNL     1      29.156  44.517  54.888  1.00  0.00     0.036 A 
HETATM   15  C   UNL     1      30.223  43.630  54.771  1.00  0.00     0.024 A 
HETATM   16 CL   UNL     1      29.019  45.494  56.301  1.00  0.00    -0.084 Cl
HETATM   17  C   UNL     1      30.329  42.832  53.633  1.00  0.00     0.004 A 
HETATM   18  C   UNL     1      29.370  42.929  52.621  1.00  0.00     0.029 A 
ENDBRANCH   8  12
ENDBRANCH   1   6
BRANCH   4  19
HETATM   19  C   UNL     1      24.877  47.876  49.452  1.00  0.00     0.271 C 
HETATM   20  N   UNL     1      23.785  48.504  48.905  1.00  0.00    -0.351 N 
HETATM   21  H   UNL     1      23.076  47.925  48.473  1.00  0.00     0.163 HD
HETATM   22  O   UNL     1      25.856  48.477  49.885  1.00  0.00    -0.266 OA
BRANCH  20  23
HETATM   23  C   UNL     1      23.750  49.939  48.770  1.00  0.00     0.161 C 
BRANCH  23  24
HETATM   24  C   UNL     1      22.373  50.523  48.959  1.00  0.00    -0.040 A 
HETATM   25  C   UNL     1      21.524  50.781  47.871  1.00  0.00     0.010 A 
HETATM   26  C   UNL     1      20.229  51.265  48.075  1.00  0.00     0.024 A 
HETATM   27  C   UNL     1      19.764  51.475  49.372  1.00  0.00     0.034 A 
HETATM   28 CL   UNL     1      18.166  52.058  49.625  1.00  0.00    -0.084 Cl
HETATM   29  C   UNL     1      20.582  51.203  50.464  1.00  0.00     0.024 A 
HETATM   30  C   UNL     1      21.880  50.726  50.259  1.00  0.00     0.010 A 
ENDBRANCH  23  24
ENDBRANCH  20  23
ENDBRANCH   4  19
TORSDOF 5
ENDMDL
MODEL 9
REMARK VINA RESULT:      -8.5      2.127      2.643
REMARK  5 active torsions:
REMARK  status: ('A' for Active; 'I' for Inactive)
REMARK    1  A    between atoms: C_6  and  N_7 
REMARK       I    between atoms: N_7  and  C_8 
REMARK       I    between atoms: C_8  and  N_9 
REMARK    2  A    between atoms: N_9  and  C_10 
REMARK    3  A    between atoms: C_13  and  C_14 
REMARK       I    between atoms: C_14  and  N_15 
REMARK    4  A    between atoms: N_15  and  C_16 
REMARK    5  A    between atoms: C_16  and  C_17 
ROOT
HETATM    1  C   UNL     1      23.370  44.328  49.006  1.00  0.00     0.175 A 
HETATM    2  S   UNL     1      22.823  43.186  50.145  1.00  0.00    -0.061 SA
HETATM    3  C   UNL     1      24.426  43.018  50.714  1.00  0.00     0.090 A 
HETATM    4  C   UNL     1      25.275  43.865  50.018  1.00  0.00     0.133 A 
HETATM    5  N   UNL     1      24.654  44.606  48.999  1.00  0.00    -0.218 NA
ENDROOT
BRANCH   1   6
HETATM    6  N   UNL     1      22.381  44.834  48.219  1.00  0.00    -0.287 N 
HETATM    7  C   UNL     1      22.018  46.139  48.079  1.00  0.00     0.326 C 
HETATM    8  N   UNL     1      22.782  47.071  48.728  1.00  0.00    -0.309 N 
HETATM    9  O   UNL     1      21.053  46.378  47.355  1.00  0.00    -0.247 OA
HETATM   10  H   UNL     1      23.572  46.692  49.241  1.00  0.00     0.170 HD
HETATM   11  H   UNL     1      21.837  44.182  47.675  1.00  0.00     0.172 HD
BRANCH   8  12
HETATM   12  C   UNL     1      22.647  48.474  48.702  1.00  0.00     0.037 A 
HETATM   13  C   UNL     1      21.515  49.157  49.157  1.00  0.00     0.053 A 
HETATM   14  C   UNL     1      21.460  50.550  49.080  1.00  0.00     0.036 A 
HETATM   15  C   UNL     1      22.523  51.277  48.550  1.00  0.00     0.024 A 
HETATM   16 CL   UNL     1      20.063  51.384  49.648  1.00  0.00    -0.084 Cl
HETATM   17  C   UNL     1      23.656  50.605  48.099  1.00  0.00     0.004 A 
HETATM   18  C   UNL     1      23.719  49.210  48.180  1.00  0.00     0.029 A 
ENDBRANCH   8  12
ENDBRANCH   1   6
BRANCH   4  19
HETATM   19  C   UNL     1      26.699  43.993  50.339  1.00  0.00     0.271 C 
HETATM   20  N   UNL     1      27.082  43.299  51.460  1.00  0.00    -0.351 N 
HETATM   21  H   UNL     1      26.355  42.880  52.027  1.00  0.00     0.163 HD
HETATM   22  O   UNL     1      27.477  44.648  49.651  1.00  0.00    -0.266 OA
BRANCH  20  23
HETATM   23  C   UNL     1      28.447  43.340  51.923  1.00  0.00     0.161 C 
BRANCH  23  24
HETATM   24  C   UNL     1      28.596  43.958  53.290  1.00  0.00    -0.040 A 
HETATM   25  C   UNL     1      29.665  43.626  54.138  1.00  0.00     0.010 A 
HETATM   26  C   UNL     1      29.816  44.258  55.376  1.00  0.00     0.024 A 
HETATM   27  C   UNL     1      28.911  45.243  55.765  1.00  0.00     0.034 A 
HETATM   28 CL   UNL     1      29.105  46.031  57.282  1.00  0.00    -0.084 Cl
HETATM   29  C   UNL     1      27.859  45.602  54.929  1.00  0.00     0.024 A 
HETATM   30  C   UNL     1      27.704  44.965  53.695  1.00  0.00     0.010 A 
ENDBRANCH  23  24
ENDBRANCH  20  23
ENDBRANCH   4  19
TORSDOF 5
ENDMDL
MODEL 10
REMARK VINA RESULT:      -8.2      2.040      2.392
REMARK  5 active torsions:
REMARK  status: ('A' for Active; 'I' for Inactive)
REMARK    1  A    between atoms: C_6  and  N_7 
REMARK       I    between atoms: N_7  and  C_8 
REMARK       I    between atoms: C_8  and  N_9 
REMARK    2  A    between atoms: N_9  and  C_10 
REMARK    3  A    between atoms: C_13  and  C_14 
REMARK       I    between atoms: C_14  and  N_15 
REMARK    4  A    between atoms: N_15  and  C_16 
REMARK    5  A    between atoms: C_16  and  C_17 
ROOT
HETATM    1  C   UNL     1      23.144  44.854  49.263  1.00  0.00     0.175 A 
HETATM    2  S   UNL     1      24.412  43.946  48.575  1.00  0.00    -0.061 SA
HETATM    3  C   UNL     1      25.530  44.849  49.500  1.00  0.00     0.090 A 
HETATM    4  C   UNL     1      24.865  45.768  50.297  1.00  0.00     0.133 A 
HETATM    5  N   UNL     1      23.470  45.785  50.129  1.00  0.00    -0.218 NA
ENDROOT
BRANCH   1   6
HETATM    6  N   UNL     1      21.909  44.491  48.821  1.00  0.00    -0.287 N 
HETATM    7  C   UNL     1      20.826  45.295  48.631  1.00  0.00     0.326 C 
HETATM    8  N   UNL     1      21.009  46.639  48.814  1.00  0.00    -0.309 N 
HETATM    9  O   UNL     1      19.780  44.753  48.278  1.00  0.00    -0.247 OA
HETATM   10  H   UNL     1      21.957  46.911  49.056  1.00  0.00     0.170 HD
HETATM   11  H   UNL     1      21.754  43.516  48.614  1.00  0.00     0.172 HD
BRANCH   8  12
HETATM   12  C   UNL     1      20.071  47.675  48.631  1.00  0.00     0.037 A 
HETATM   13  C   UNL     1      19.981  48.450  47.471  1.00  0.00     0.053 A 
HETATM   14  C   UNL     1      19.028  49.467  47.381  1.00  0.00     0.036 A 
HETATM   15  C   UNL     1      18.160  49.725  48.438  1.00  0.00     0.024 A 
HETATM   16 CL   UNL     1      18.922  50.415  45.946  1.00  0.00    -0.084 Cl
HETATM   17  C   UNL     1      18.239  48.954  49.595  1.00  0.00     0.004 A 
HETATM   18  C   UNL     1      19.187  47.931  49.688  1.00  0.00     0.029 A 
ENDBRANCH   8  12
ENDBRANCH   1   6
BRANCH   4  19
HETATM   19  C   UNL     1      25.561  46.633  51.254  1.00  0.00     0.271 C 
HETATM   20  N   UNL     1      25.624  46.119  52.525  1.00  0.00    -0.351 N 
HETATM   21  H   UNL     1      25.092  45.281  52.722  1.00  0.00     0.163 HD
HETATM   22  O   UNL     1      26.057  47.710  50.934  1.00  0.00    -0.266 OA
BRANCH  20  23
HETATM   23  C   UNL     1      26.257  46.858  53.589  1.00  0.00     0.161 C 
BRANCH  23  24
HETATM   24  C   UNL     1      27.377  46.102  54.258  1.00  0.00    -0.040 A 
HETATM   25  C   UNL     1      27.703  44.786  53.890  1.00  0.00     0.010 A 
HETATM   26  C   UNL     1      28.784  44.128  54.481  1.00  0.00     0.024 A 
HETATM   27  C   UNL     1      29.564  44.788  55.429  1.00  0.00     0.034 A 
HETATM   28 CL   UNL     1      30.904  43.983  56.147  1.00  0.00    -0.084 Cl
HETATM   29  C   UNL     1      29.271  46.100  55.789  1.00  0.00     0.024 A 
HETATM   30  C   UNL     1      28.184  46.755  55.204  1.00  0.00     0.010 A 
ENDBRANCH  23  24
ENDBRANCH  20  23
ENDBRANCH   4  19
TORSDOF 5
ENDMDL
