MODEL 1
REMARK VINA RESULT:      -8.8      0.000      0.000
REMARK  5 active torsions:
REMARK  status: ('A' for Active; 'I' for Inactive)
REMARK    1  A    between atoms: C_2  and  O_3 
REMARK    2  A    between atoms: C_2  and  C_4 
REMARK    3  A    between atoms: C_4  and  N_5 
REMARK       I    between atoms: N_5  and  C_6 
REMARK    4  A    between atoms: C_6  and  C_7 
REMARK    5  A    between atoms: C_15  and  C_16 
ROOT
HETATM    1  C   UNL     1      26.502  44.582  51.792  1.00  0.00     0.046 A 
HETATM    2  C   UNL     1      26.382  43.276  51.270  1.00  0.00     0.008 A 
HETATM    3  C   UNL     1      27.169  42.290  51.895  1.00  0.00     0.068 A 
HETATM    4  C   UNL     1      27.095  40.981  51.437  1.00  0.00     0.032 A 
HETATM    5  C   UNL     1      26.263  40.613  50.379  1.00  0.00     0.002 A 
HETATM    6  C   UNL     1      25.481  41.574  49.756  1.00  0.00     0.001 A 
HETATM    7  C   UNL     1      25.537  42.894  50.197  1.00  0.00     0.015 A 
HETATM    8  N   UNL     1      27.990  42.553  52.927  1.00  0.00    -0.248 NA
HETATM    9  C   UNL     1      28.094  43.815  53.407  1.00  0.00     0.068 A 
HETATM   10  C   UNL     1      27.367  44.856  52.856  1.00  0.00     0.050 A 
ENDROOT
BRANCH   1  11
HETATM   11  C   UNL     1      25.741  45.722  51.222  1.00  0.00     0.252 C 
HETATM   12  N   UNL     1      26.444  46.512  50.337  1.00  0.00    -0.354 N 
HETATM   13  H   UNL     1      27.437  46.367  50.200  1.00  0.00     0.162 HD
HETATM   14  O   UNL     1      24.577  45.929  51.534  1.00  0.00    -0.268 OA
BRANCH  12  15
HETATM   15  C   UNL     1      25.827  47.655  49.680  1.00  0.00     0.154 C 
BRANCH  15  16
HETATM   16  C   UNL     1      26.861  48.705  49.249  1.00  0.00     0.132 C 
HETATM   17  C   UNL     1      26.236  49.748  48.335  1.00  0.00     0.041 C 
BRANCH  16  18
HETATM   18  O   UNL     1      27.918  48.062  48.531  1.00  0.00    -0.394 OA
HETATM   19  H   UNL     1      28.515  47.698  49.208  1.00  0.00     0.210 HD
ENDBRANCH  16  18
ENDBRANCH  15  16
ENDBRANCH  12  15
ENDBRANCH   1  11
BRANCH   9  20
HETATM   20  C   UNL     1      29.032  43.995  54.535  1.00  0.00    -0.007 A 
HETATM   21  C   UNL     1      28.995  45.166  55.318  1.00  0.00     0.015 A 
HETATM   22  C   UNL     1      29.871  45.356  56.393  1.00  0.00     0.024 A 
HETATM   23  C   UNL     1      30.807  44.376  56.699  1.00  0.00     0.034 A 
HETATM   24 CL   UNL     1      31.887  44.603  58.018  1.00  0.00    -0.084 Cl
HETATM   25  C   UNL     1      30.876  43.212  55.941  1.00  0.00     0.024 A 
HETATM   26  C   UNL     1      29.996  43.025  54.868  1.00  0.00     0.015 A 
ENDBRANCH   9  20
TORSDOF 5
ENDMDL
MODEL 2
REMARK VINA RESULT:      -8.7      3.346      5.651
REMARK  5 active torsions:
REMARK  status: ('A' for Active; 'I' for Inactive)
REMARK    1  A    between atoms: C_2  and  O_3 
REMARK    2  A    between atoms: C_2  and  C_4 
REMARK    3  A    between atoms: C_4  and  N_5 
REMARK       I    between atoms: N_5  and  C_6 
REMARK    4  A    between atoms: C_6  and  C_7 
REMARK    5  A    between atoms: C_15  and  C_16 
ROOT
HETATM    1  C   UNL     1      27.557  41.369  50.585  1.00  0.00     0.046 A 
HETATM    2  C   UNL     1      26.240  41.816  50.342  1.00  0.00     0.008 A 
HETATM    3  C   UNL     1      25.760  42.816  51.208  1.00  0.00     0.068 A 
HETATM    4  C   UNL     1      24.475  43.307  51.021  1.00  0.00     0.032 A 
HETATM    5  C   UNL     1      23.646  42.841  49.999  1.00  0.00     0.002 A 
HETATM    6  C   UNL     1      24.106  41.858  49.138  1.00  0.00     0.001 A 
HETATM    7  C   UNL     1      25.393  41.349  49.304  1.00  0.00     0.015 A 
HETATM    8  N   UNL     1      26.493  43.329  52.212  1.00  0.00    -0.248 NA
HETATM    9  C   UNL     1      27.751  42.881  52.431  1.00  0.00     0.068 A 
HETATM   10  C   UNL     1      28.312  41.894  51.638  1.00  0.00     0.050 A 
ENDROOT
BRANCH   1  11
HETATM   11  C   UNL     1      28.187  40.309  49.758  1.00  0.00     0.252 C 
HETATM   12  N   UNL     1      28.033  39.025  50.235  1.00  0.00    -0.354 N 
HETATM   13  H   UNL     1      27.618  38.863  51.145  1.00  0.00     0.162 HD
HETATM   14  O   UNL     1      28.797  40.581  48.735  1.00  0.00    -0.268 OA
BRANCH  12  15
HETATM   15  C   UNL     1      28.576  37.877  49.523  1.00  0.00     0.154 C 
BRANCH  15  16
HETATM   16  C   UNL     1      29.964  37.476  50.041  1.00  0.00     0.132 C 
HETATM   17  C   UNL     1      30.058  37.651  51.548  1.00  0.00     0.041 C 
BRANCH  16  18
HETATM   18  O   UNL     1      30.956  38.311  49.434  1.00  0.00    -0.394 OA
HETATM   19  H   UNL     1      30.798  38.256  48.475  1.00  0.00     0.210 HD
ENDBRANCH  16  18
ENDBRANCH  15  16
ENDBRANCH  12  15
ENDBRANCH   1  11
BRANCH   9  20
HETATM   20  C   UNL     1      28.464  43.506  53.566  1.00  0.00    -0.007 A 
HETATM   21  C   UNL     1      29.661  42.946  54.055  1.00  0.00     0.015 A 
HETATM   22  C   UNL     1      30.354  43.523  55.126  1.00  0.00     0.024 A 
HETATM   23  C   UNL     1      29.855  44.670  55.731  1.00  0.00     0.034 A 
HETATM   24 CL   UNL     1      30.701  45.382  57.048  1.00  0.00    -0.084 Cl
HETATM   25  C   UNL     1      28.671  45.242  55.278  1.00  0.00     0.024 A 
HETATM   26  C   UNL     1      27.982  44.663  54.205  1.00  0.00     0.015 A 
ENDBRANCH   9  20
TORSDOF 5
ENDMDL
MODEL 3
REMARK VINA RESULT:      -8.6      2.994      5.260
REMARK  5 active torsions:
REMARK  status: ('A' for Active; 'I' for Inactive)
REMARK    1  A    between atoms: C_2  and  O_3 
REMARK    2  A    between atoms: C_2  and  C_4 
REMARK    3  A    between atoms: C_4  and  N_5 
REMARK       I    between atoms: N_5  and  C_6 
REMARK    4  A    between atoms: C_6  and  C_7 
REMARK    5  A    between atoms: C_15  and  C_16 
ROOT
HETATM    1  C   UNL     1      27.607  42.164  51.568  1.00  0.00     0.046 A 
HETATM    2  C   UNL     1      26.916  43.233  50.956  1.00  0.00     0.008 A 
HETATM    3  C   UNL     1      27.051  44.489  51.578  1.00  0.00     0.068 A 
HETATM    4  C   UNL     1      26.404  45.586  51.024  1.00  0.00     0.032 A 
HETATM    5  C   UNL     1      25.627  45.481  49.870  1.00  0.00     0.002 A 
HETATM    6  C   UNL     1      25.487  44.251  49.246  1.00  0.00     0.001 A 
HETATM    7  C   UNL     1      26.127  43.135  49.782  1.00  0.00     0.015 A 
HETATM    8  N   UNL     1      27.787  44.682  52.686  1.00  0.00    -0.248 NA
HETATM    9  C   UNL     1      28.436  43.641  53.260  1.00  0.00     0.068 A 
HETATM   10  C   UNL     1      28.361  42.365  52.729  1.00  0.00     0.050 A 
ENDROOT
BRANCH   1  11
HETATM   11  C   UNL     1      27.543  40.783  51.028  1.00  0.00     0.252 C 
HETATM   12  N   UNL     1      28.765  40.193  50.783  1.00  0.00    -0.354 N 
HETATM   13  H   UNL     1      29.619  40.732  50.865  1.00  0.00     0.162 HD
HETATM   14  O   UNL     1      26.473  40.231  50.819  1.00  0.00    -0.268 OA
BRANCH  12  15
HETATM   15  C   UNL     1      28.866  38.834  50.272  1.00  0.00     0.154 C 
BRANCH  15  16
HETATM   16  C   UNL     1      29.719  38.753  48.998  1.00  0.00     0.132 C 
HETATM   17  C   UNL     1      29.104  37.800  47.986  1.00  0.00     0.041 C 
BRANCH  16  18
HETATM   18  O   UNL     1      31.023  38.267  49.332  1.00  0.00    -0.394 OA
HETATM   19  H   UNL     1      30.882  37.553  49.979  1.00  0.00     0.210 HD
ENDBRANCH  16  18
ENDBRANCH  15  16
ENDBRANCH  12  15
ENDBRANCH   1  11
BRANCH   9  20
HETATM   20  C   UNL     1      29.208  43.963  54.479  1.00  0.00    -0.007 A 
HETATM   21  C   UNL     1      30.206  43.086  54.947  1.00  0.00     0.015 A 
HETATM   22  C   UNL     1      30.951  43.371  56.097  1.00  0.00     0.024 A 
HETATM   23  C   UNL     1      30.704  44.541  56.805  1.00  0.00     0.034 A 
HETATM   24 CL   UNL     1      31.615  44.898  58.219  1.00  0.00    -0.084 Cl
HETATM   25  C   UNL     1      29.719  45.424  56.374  1.00  0.00     0.024 A 
HETATM   26  C   UNL     1      28.977  45.136  55.223  1.00  0.00     0.015 A 
ENDBRANCH   9  20
TORSDOF 5
ENDMDL
MODEL 4
REMARK VINA RESULT:      -8.3      2.771      3.622
REMARK  5 active torsions:
REMARK  status: ('A' for Active; 'I' for Inactive)
REMARK    1  A    between atoms: C_2  and  O_3 
REMARK    2  A    between atoms: C_2  and  C_4 
REMARK    3  A    between atoms: C_4  and  N_5 
REMARK       I    between atoms: N_5  and  C_6 
REMARK    4  A    between atoms: C_6  and  C_7 
REMARK    5  A    between atoms: C_15  and  C_16 
ROOT
HETATM    1  C   UNL     1      24.945  46.741  50.659  1.00  0.00     0.046 A 
HETATM    2  C   UNL     1      24.367  45.488  50.358  1.00  0.00     0.008 A 
HETATM    3  C   UNL     1      24.708  44.430  51.221  1.00  0.00     0.068 A 
HETATM    4  C   UNL     1      24.169  43.172  50.987  1.00  0.00     0.032 A 
HETATM    5  C   UNL     1      23.298  42.925  49.924  1.00  0.00     0.002 A 
HETATM    6  C   UNL     1      22.952  43.959  49.068  1.00  0.00     0.001 A 
HETATM    7  C   UNL     1      23.478  45.232  49.282  1.00  0.00     0.015 A 
HETATM    8  N   UNL     1      25.532  44.579  52.273  1.00  0.00    -0.248 NA
HETATM    9  C   UNL     1      26.079  45.788  52.540  1.00  0.00     0.068 A 
HETATM   10  C   UNL     1      25.811  46.891  51.746  1.00  0.00     0.050 A 
ENDROOT
BRANCH   1  11
HETATM   11  C   UNL     1      24.683  47.941  49.827  1.00  0.00     0.252 C 
HETATM   12  N   UNL     1      23.387  48.410  49.866  1.00  0.00    -0.354 N 
HETATM   13  H   UNL     1      22.666  47.882  50.343  1.00  0.00     0.162 HD
HETATM   14  O   UNL     1      25.568  48.457  49.159  1.00  0.00    -0.268 OA
BRANCH  12  15
HETATM   15  C   UNL     1      22.981  49.592  49.119  1.00  0.00     0.154 C 
BRANCH  15  16
HETATM   16  C   UNL     1      21.709  50.233  49.691  1.00  0.00     0.132 C 
HETATM   17  C   UNL     1      21.119  51.243  48.720  1.00  0.00     0.041 C 
BRANCH  16  18
HETATM   18  O   UNL     1      22.030  50.920  50.905  1.00  0.00    -0.394 OA
HETATM   19  H   UNL     1      22.524  51.715  50.637  1.00  0.00     0.210 HD
ENDBRANCH  16  18
ENDBRANCH  15  16
ENDBRANCH  12  15
ENDBRANCH   1  11
BRANCH   9  20
HETATM   20  C   UNL     1      26.977  45.839  53.714  1.00  0.00    -0.007 A 
HETATM   21  C   UNL     1      27.010  46.978  54.541  1.00  0.00     0.015 A 
HETATM   22  C   UNL     1      27.849  47.047  55.660  1.00  0.00     0.024 A 
HETATM   23  C   UNL     1      28.677  45.974  55.966  1.00  0.00     0.034 A 
HETATM   24 CL   UNL     1      29.711  46.052  57.337  1.00  0.00    -0.084 Cl
HETATM   25  C   UNL     1      28.675  44.837  55.163  1.00  0.00     0.024 A 
HETATM   26  C   UNL     1      27.833  44.772  54.047  1.00  0.00     0.015 A 
ENDBRANCH   9  20
TORSDOF 5
ENDMDL
MODEL 5
REMARK VINA RESULT:      -8.3      3.189      5.726
REMARK  5 active torsions:
REMARK  status: ('A' for Active; 'I' for Inactive)
REMARK    1  A    between atoms: C_2  and  O_3 
REMARK    2  A    between atoms: C_2  and  C_4 
REMARK    3  A    between atoms: C_4  and  N_5 
REMARK       I    between atoms: N_5  and  C_6 
REMARK    4  A    between atoms: C_6  and  C_7 
REMARK    5  A    between atoms: C_15  and  C_16 
ROOT
HETATM    1  C   UNL     1      27.128  43.801  52.600  1.00  0.00     0.046 A 
HETATM    2  C   UNL     1      28.169  43.884  53.550  1.00  0.00     0.008 A 
HETATM    3  C   UNL     1      29.190  42.923  53.429  1.00  0.00     0.068 A 
HETATM    4  C   UNL     1      30.250  42.952  54.327  1.00  0.00     0.032 A 
HETATM    5  C   UNL     1      30.333  43.907  55.342  1.00  0.00     0.002 A 
HETATM    6  C   UNL     1      29.336  44.860  55.471  1.00  0.00     0.001 A 
HETATM    7  C   UNL     1      28.262  44.853  54.582  1.00  0.00     0.015 A 
HETATM    8  N   UNL     1      29.194  41.974  52.477  1.00  0.00    -0.248 NA
HETATM    9  C   UNL     1      28.182  41.909  51.580  1.00  0.00     0.068 A 
HETATM   10  C   UNL     1      27.128  42.805  51.618  1.00  0.00     0.050 A 
ENDROOT
BRANCH   1  11
HETATM   11  C   UNL     1      25.980  44.741  52.615  1.00  0.00     0.252 C 
HETATM   12  N   UNL     1      26.128  45.859  51.822  1.00  0.00    -0.354 N 
HETATM   13  H   UNL     1      27.012  46.052  51.369  1.00  0.00     0.162 HD
HETATM   14  O   UNL     1      24.987  44.522  53.294  1.00  0.00    -0.268 OA
BRANCH  12  15
HETATM   15  C   UNL     1      25.078  46.863  51.716  1.00  0.00     0.154 C 
BRANCH  15  16
HETATM   16  C   UNL     1      24.908  47.377  50.280  1.00  0.00     0.132 C 
HETATM   17  C   UNL     1      26.197  47.997  49.764  1.00  0.00     0.041 C 
BRANCH  16  18
HETATM   18  O   UNL     1      23.890  48.383  50.254  1.00  0.00    -0.394 OA
HETATM   19  H   UNL     1      24.311  49.176  49.877  1.00  0.00     0.210 HD
ENDBRANCH  16  18
ENDBRANCH  15  16
ENDBRANCH  12  15
ENDBRANCH   1  11
BRANCH   9  20
HETATM   20  C   UNL     1      28.282  40.822  50.582  1.00  0.00    -0.007 A 
HETATM   21  C   UNL     1      27.808  41.011  49.269  1.00  0.00     0.015 A 
HETATM   22  C   UNL     1      27.895  39.997  48.307  1.00  0.00     0.024 A 
HETATM   23  C   UNL     1      28.454  38.771  48.647  1.00  0.00     0.034 A 
HETATM   24 CL   UNL     1      28.562  37.522  47.471  1.00  0.00    -0.084 Cl
HETATM   25  C   UNL     1      28.923  38.550  49.938  1.00  0.00     0.024 A 
HETATM   26  C   UNL     1      28.836  39.567  50.896  1.00  0.00     0.015 A 
ENDBRANCH   9  20
TORSDOF 5
ENDMDL
MODEL 6
REMARK VINA RESULT:      -8.3      2.035      2.859
REMARK  5 active torsions:
REMARK  status: ('A' for Active; 'I' for Inactive)
REMARK    1  A    between atoms: C_2  and  O_3 
REMARK    2  A    between atoms: C_2  and  C_4 
REMARK    3  A    between atoms: C_4  and  N_5 
REMARK       I    between atoms: N_5  and  C_6 
REMARK    4  A    between atoms: C_6  and  C_7 
REMARK    5  A    between atoms: C_15  and  C_16 
ROOT
HETATM    1  C   UNL     1      27.338  43.654  51.210  1.00  0.00     0.046 A 
HETATM    2  C   UNL     1      27.633  42.310  50.896  1.00  0.00     0.008 A 
HETATM    3  C   UNL     1      28.441  41.625  51.823  1.00  0.00     0.068 A 
HETATM    4  C   UNL     1      28.764  40.296  51.580  1.00  0.00     0.032 A 
HETATM    5  C   UNL     1      28.310  39.619  50.447  1.00  0.00     0.002 A 
HETATM    6  C   UNL     1      27.511  40.281  49.527  1.00  0.00     0.001 A 
HETATM    7  C   UNL     1      27.173  41.615  49.748  1.00  0.00     0.015 A 
HETATM    8  N   UNL     1      28.914  42.196  52.944  1.00  0.00    -0.248 NA
HETATM    9  C   UNL     1      28.624  43.489  53.222  1.00  0.00     0.068 A 
HETATM   10  C   UNL     1      27.843  44.250  52.370  1.00  0.00     0.050 A 
ENDROOT
BRANCH   1  11
HETATM   11  C   UNL     1      26.508  44.500  50.316  1.00  0.00     0.252 C 
HETATM   12  N   UNL     1      25.193  44.647  50.703  1.00  0.00    -0.354 N 
HETATM   13  H   UNL     1      24.825  44.109  51.478  1.00  0.00     0.162 HD
HETATM   14  O   UNL     1      26.978  45.015  49.311  1.00  0.00    -0.268 OA
BRANCH  12  15
HETATM   15  C   UNL     1      24.261  45.465  49.939  1.00  0.00     0.154 C 
BRANCH  15  16
HETATM   16  C   UNL     1      23.094  44.642  49.376  1.00  0.00     0.132 C 
HETATM   17  C   UNL     1      22.195  45.496  48.496  1.00  0.00     0.041 C 
BRANCH  16  18
HETATM   18  O   UNL     1      22.305  44.137  50.459  1.00  0.00    -0.394 OA
HETATM   19  H   UNL     1      22.138  43.201  50.251  1.00  0.00     0.210 HD
ENDBRANCH  16  18
ENDBRANCH  15  16
ENDBRANCH  12  15
ENDBRANCH   1  11
BRANCH   9  20
HETATM   20  C   UNL     1      29.203  44.019  54.475  1.00  0.00    -0.007 A 
HETATM   21  C   UNL     1      30.302  43.381  55.082  1.00  0.00     0.015 A 
HETATM   22  C   UNL     1      30.868  43.867  56.267  1.00  0.00     0.024 A 
HETATM   23  C   UNL     1      30.335  45.001  56.869  1.00  0.00     0.034 A 
HETATM   24 CL   UNL     1      31.025  45.603  58.325  1.00  0.00    -0.084 Cl
HETATM   25  C   UNL     1      29.244  45.649  56.300  1.00  0.00     0.024 A 
HETATM   26  C   UNL     1      28.682  45.160  55.114  1.00  0.00     0.015 A 
ENDBRANCH   9  20
TORSDOF 5
ENDMDL
MODEL 7
REMARK VINA RESULT:      -7.9      2.775      5.255
REMARK  5 active torsions:
REMARK  status: ('A' for Active; 'I' for Inactive)
REMARK    1  A    between atoms: C_2  and  O_3 
REMARK    2  A    between atoms: C_2  and  C_4 
REMARK    3  A    between atoms: C_4  and  N_5 
REMARK       I    between atoms: N_5  and  C_6 
REMARK    4  A    between atoms: C_6  and  C_7 
REMARK    5  A    between atoms: C_15  and  C_16 
ROOT
HETATM    1  C   UNL     1      26.523  45.665  52.184  1.00  0.00     0.046 A 
HETATM    2  C   UNL     1      27.182  45.729  53.431  1.00  0.00     0.008 A 
HETATM    3  C   UNL     1      27.786  44.536  53.870  1.00  0.00     0.068 A 
HETATM    4  C   UNL     1      28.457  44.531  55.086  1.00  0.00     0.032 A 
HETATM    5  C   UNL     1      28.553  45.672  55.884  1.00  0.00     0.002 A 
HETATM    6  C   UNL     1      27.964  46.854  55.463  1.00  0.00     0.001 A 
HETATM    7  C   UNL     1      27.285  46.886  54.246  1.00  0.00     0.015 A 
HETATM    8  N   UNL     1      27.751  43.394  53.162  1.00  0.00    -0.248 NA
HETATM    9  C   UNL     1      27.109  43.354  51.971  1.00  0.00     0.068 A 
HETATM   10  C   UNL     1      26.477  44.472  51.455  1.00  0.00     0.050 A 
ENDROOT
BRANCH   1  11
HETATM   11  C   UNL     1      25.832  46.844  51.604  1.00  0.00     0.252 C 
HETATM   12  N   UNL     1      26.066  47.059  50.263  1.00  0.00    -0.354 N 
HETATM   13  H   UNL     1      26.755  46.507  49.768  1.00  0.00     0.162 HD
HETATM   14  O   UNL     1      25.115  47.560  52.289  1.00  0.00    -0.268 OA
BRANCH  12  15
HETATM   15  C   UNL     1      25.441  48.164  49.548  1.00  0.00     0.154 C 
BRANCH  15  16
HETATM   16  C   UNL     1      26.472  49.165  49.010  1.00  0.00     0.132 C 
HETATM   17  C   UNL     1      25.893  49.991  47.872  1.00  0.00     0.041 C 
BRANCH  16  18
HETATM   18  O   UNL     1      27.607  48.451  48.507  1.00  0.00    -0.394 OA
HETATM   19  H   UNL     1      27.922  47.900  49.246  1.00  0.00     0.210 HD
ENDBRANCH  16  18
ENDBRANCH  15  16
ENDBRANCH  12  15
ENDBRANCH   1  11
BRANCH   9  20
HETATM   20  C   UNL     1      27.124  42.046  51.280  1.00  0.00    -0.007 A 
HETATM   21  C   UNL     1      25.973  41.570  50.622  1.00  0.00     0.015 A 
HETATM   22  C   UNL     1      25.966  40.337  49.960  1.00  0.00     0.024 A 
HETATM   23  C   UNL     1      27.114  39.554  49.950  1.00  0.00     0.034 A 
HETATM   24 CL   UNL     1      27.111  38.038  49.139  1.00  0.00    -0.084 Cl
HETATM   25  C   UNL     1      28.264  39.991  50.598  1.00  0.00     0.024 A 
HETATM   26  C   UNL     1      28.268  41.226  51.258  1.00  0.00     0.015 A 
ENDBRANCH   9  20
TORSDOF 5
ENDMDL
MODEL 8
REMARK VINA RESULT:      -7.9      3.978      7.184
REMARK  5 active torsions:
REMARK  status: ('A' for Active; 'I' for Inactive)
REMARK    1  A    between atoms: C_2  and  O_3 
REMARK    2  A    between atoms: C_2  and  C_4 
REMARK    3  A    between atoms: C_4  and  N_5 
REMARK       I    between atoms: N_5  and  C_6 
REMARK    4  A    between atoms: C_6  and  C_7 
REMARK    5  A    between atoms: C_15  and  C_16 
ROOT
HETATM    1  C   UNL     1      28.284  42.560  53.043  1.00  0.00     0.046 A 
HETATM    2  C   UNL     1      28.964  43.292  54.041  1.00  0.00     0.008 A 
HETATM    3  C   UNL     1      28.609  44.649  54.158  1.00  0.00     0.068 A 
HETATM    4  C   UNL     1      29.233  45.427  55.125  1.00  0.00     0.032 A 
HETATM    5  C   UNL     1      30.199  44.903  55.985  1.00  0.00     0.002 A 
HETATM    6  C   UNL     1      30.556  43.567  55.883  1.00  0.00     0.001 A 
HETATM    7  C   UNL     1      29.944  42.766  54.921  1.00  0.00     0.015 A 
HETATM    8  N   UNL     1      27.683  45.234  53.377  1.00  0.00    -0.248 NA
HETATM    9  C   UNL     1      27.049  44.514  52.422  1.00  0.00     0.068 A 
HETATM   10  C   UNL     1      27.332  43.174  52.224  1.00  0.00     0.050 A 
ENDROOT
BRANCH   1  11
HETATM   11  C   UNL     1      28.567  41.123  52.800  1.00  0.00     0.252 C 
HETATM   12  N   UNL     1      28.926  40.807  51.507  1.00  0.00    -0.354 N 
HETATM   13  H   UNL     1      28.875  41.507  50.777  1.00  0.00     0.162 HD
HETATM   14  O   UNL     1      28.477  40.298  53.697  1.00  0.00    -0.268 OA
BRANCH  12  15
HETATM   15  C   UNL     1      29.254  39.443  51.119  1.00  0.00     0.154 C 
BRANCH  15  16
HETATM   16  C   UNL     1      28.514  39.006  49.847  1.00  0.00     0.132 C 
HETATM   17  C   UNL     1      28.623  40.064  48.760  1.00  0.00     0.041 C 
BRANCH  16  18
HETATM   18  O   UNL     1      27.127  38.818  50.146  1.00  0.00    -0.394 OA
HETATM   19  H   UNL     1      27.011  37.860  50.271  1.00  0.00     0.210 HD
ENDBRANCH  16  18
ENDBRANCH  15  16
ENDBRANCH  12  15
ENDBRANCH   1  11
BRANCH   9  20
HETATM   20  C   UNL     1      26.057  45.257  51.615  1.00  0.00    -0.007 A 
HETATM   21  C   UNL     1      26.063  46.665  51.590  1.00  0.00     0.015 A 
HETATM   22  C   UNL     1      25.136  47.389  50.831  1.00  0.00     0.024 A 
HETATM   23  C   UNL     1      24.178  46.711  50.086  1.00  0.00     0.034 A 
HETATM   24 CL   UNL     1      23.036  47.594  49.153  1.00  0.00    -0.084 Cl
HETATM   25  C   UNL     1      24.139  45.321  50.096  1.00  0.00     0.024 A 
HETATM   26  C   UNL     1      25.069  44.601  50.855  1.00  0.00     0.015 A 
ENDBRANCH   9  20
TORSDOF 5
ENDMDL
MODEL 9
REMARK VINA RESULT:      -7.8      1.980      2.673
REMARK  5 active torsions:
REMARK  status: ('A' for Active; 'I' for Inactive)
REMARK    1  A    between atoms: C_2  and  O_3 
REMARK    2  A    between atoms: C_2  and  C_4 
REMARK    3  A    between atoms: C_4  and  N_5 
REMARK       I    between atoms: N_5  and  C_6 
REMARK    4  A    between atoms: C_6  and  C_7 
REMARK    5  A    between atoms: C_15  and  C_16 
ROOT
HETATM    1  C   UNL     1      26.068  45.066  50.433  1.00  0.00     0.046 A 
HETATM    2  C   UNL     1      25.613  43.831  49.922  1.00  0.00     0.008 A 
HETATM    3  C   UNL     1      26.135  42.680  50.540  1.00  0.00     0.068 A 
HETATM    4  C   UNL     1      25.724  41.431  50.093  1.00  0.00     0.032 A 
HETATM    5  C   UNL     1      24.807  41.283  49.051  1.00  0.00     0.002 A 
HETATM    6  C   UNL     1      24.283  42.408  48.435  1.00  0.00     0.001 A 
HETATM    7  C   UNL     1      24.679  43.673  48.866  1.00  0.00     0.015 A 
HETATM    8  N   UNL     1      27.016  42.729  51.556  1.00  0.00    -0.248 NA
HETATM    9  C   UNL     1      27.443  43.925  52.025  1.00  0.00     0.068 A 
HETATM   10  C   UNL     1      26.993  45.115  51.480  1.00  0.00     0.050 A 
ENDROOT
BRANCH   1  11
HETATM   11  C   UNL     1      25.610  46.360  49.868  1.00  0.00     0.252 C 
HETATM   12  N   UNL     1      24.292  46.676  50.121  1.00  0.00    -0.354 N 
HETATM   13  H   UNL     1      23.679  46.001  50.560  1.00  0.00     0.162 HD
HETATM   14  O   UNL     1      26.364  47.075  49.224  1.00  0.00    -0.268 OA
BRANCH  12  15
HETATM   15  C   UNL     1      23.703  47.922  49.651  1.00  0.00     0.154 C 
BRANCH  15  16
HETATM   16  C   UNL     1      22.453  47.686  48.792  1.00  0.00     0.132 C 
HETATM   17  C   UNL     1      22.251  46.205  48.514  1.00  0.00     0.041 C 
BRANCH  16  18
HETATM   18  O   UNL     1      22.605  48.357  47.537  1.00  0.00    -0.394 OA
HETATM   19  H   UNL     1      21.755  48.800  47.369  1.00  0.00     0.210 HD
ENDBRANCH  16  18
ENDBRANCH  15  16
ENDBRANCH  12  15
ENDBRANCH   1  11
BRANCH   9  20
HETATM   20  C   UNL     1      28.417  43.865  53.136  1.00  0.00    -0.007 A 
HETATM   21  C   UNL     1      29.501  42.966  53.090  1.00  0.00     0.015 A 
HETATM   22  C   UNL     1      30.436  42.894  54.129  1.00  0.00     0.024 A 
HETATM   23  C   UNL     1      30.298  43.719  55.239  1.00  0.00     0.034 A 
HETATM   24 CL   UNL     1      31.442  43.635  56.519  1.00  0.00    -0.084 Cl
HETATM   25  C   UNL     1      29.233  44.611  55.319  1.00  0.00     0.024 A 
HETATM   26  C   UNL     1      28.301  44.681  54.277  1.00  0.00     0.015 A 
ENDBRANCH   9  20
TORSDOF 5
ENDMDL
MODEL 10
REMARK VINA RESULT:      -7.7      3.331      6.022
REMARK  5 active torsions:
REMARK  status: ('A' for Active; 'I' for Inactive)
REMARK    1  A    between atoms: C_2  and  O_3 
REMARK    2  A    between atoms: C_2  and  C_4 
REMARK    3  A    between atoms: C_4  and  N_5 
REMARK       I    between atoms: N_5  and  C_6 
REMARK    4  A    between atoms: C_6  and  C_7 
REMARK    5  A    between atoms: C_15  and  C_16 
ROOT
HETATM    1  C   UNL     1      24.078  47.349  49.435  1.00  0.00     0.046 A 
HETATM    2  C   UNL     1      24.996  48.355  49.063  1.00  0.00     0.008 A 
HETATM    3  C   UNL     1      26.323  48.168  49.496  1.00  0.00     0.068 A 
HETATM    4  C   UNL     1      27.279  49.117  49.159  1.00  0.00     0.032 A 
HETATM    5  C   UNL     1      26.966  50.248  48.404  1.00  0.00     0.002 A 
HETATM    6  C   UNL     1      25.664  50.444  47.970  1.00  0.00     0.001 A 
HETATM    7  C   UNL     1      24.686  49.506  48.293  1.00  0.00     0.015 A 
HETATM    8  N   UNL     1      26.714  47.104  50.219  1.00  0.00    -0.248 NA
HETATM    9  C   UNL     1      25.815  46.154  50.569  1.00  0.00     0.068 A 
HETATM   10  C   UNL     1      24.485  46.250  50.198  1.00  0.00     0.050 A 
ENDROOT
BRANCH   1  11
HETATM   11  C   UNL     1      22.644  47.423  49.058  1.00  0.00     0.252 C 
HETATM   12  N   UNL     1      21.966  48.519  49.547  1.00  0.00    -0.354 N 
HETATM   13  H   UNL     1      22.412  49.144  50.207  1.00  0.00     0.162 HD
HETATM   14  O   UNL     1      22.123  46.559  48.368  1.00  0.00    -0.268 OA
BRANCH  12  15
HETATM   15  C   UNL     1      20.559  48.741  49.246  1.00  0.00     0.154 C 
BRANCH  15  16
HETATM   16  C   UNL     1      20.136  50.197  49.488  1.00  0.00     0.132 C 
HETATM   17  C   UNL     1      20.882  51.146  48.564  1.00  0.00     0.041 C 
BRANCH  16  18
HETATM   18  O   UNL     1      20.442  50.560  50.839  1.00  0.00    -0.394 OA
HETATM   19  H   UNL     1      21.254  51.096  50.791  1.00  0.00     0.210 HD
ENDBRANCH  16  18
ENDBRANCH  15  16
ENDBRANCH  12  15
ENDBRANCH   1  11
BRANCH   9  20
HETATM   20  C   UNL     1      26.350  45.033  51.371  1.00  0.00    -0.007 A 
HETATM   21  C   UNL     1      25.927  44.838  52.700  1.00  0.00     0.015 A 
HETATM   22  C   UNL     1      26.417  43.781  53.477  1.00  0.00     0.024 A 
HETATM   23  C   UNL     1      27.348  42.903  52.935  1.00  0.00     0.034 A 
HETATM   24 CL   UNL     1      27.956  41.604  53.884  1.00  0.00    -0.084 Cl
HETATM   25  C   UNL     1      27.794  43.073  51.629  1.00  0.00     0.024 A 
HETATM   26  C   UNL     1      27.299  44.130  50.855  1.00  0.00     0.015 A 
ENDBRANCH   9  20
TORSDOF 5
ENDMDL
