MODEL 1
REMARK VINA RESULT:      -8.3      0.000      0.000
REMARK  3 active torsions:
REMARK  status: ('A' for Active; 'I' for Inactive)
REMARK    1  A    between atoms: C_4  and  C_5 
REMARK    2  A    between atoms: C_11  and  C_12 
REMARK    3  A    between atoms: C_21  and  N_22 
ROOT
HETATM    1  C   UNL     1      26.206  47.189  53.430  1.00  0.00     0.098 A 
HETATM    2  N   UNL     1      25.613  48.166  54.142  1.00  0.00    -0.172 NA
HETATM    3  N   UNL     1      26.192  48.102  55.356  1.00  0.00    -0.256 N 
HETATM    4  H   UNL     1      25.903  48.759  56.072  1.00  0.00     0.191 HD
HETATM    5  C   UNL     1      27.117  47.115  55.447  1.00  0.00     0.175 A 
HETATM    6  C   UNL     1      27.141  46.479  54.235  1.00  0.00     0.036 A 
HETATM    7  C   UNL     1      28.011  45.268  54.022  1.00  0.00     0.076 C 
HETATM    8  C   UNL     1      28.946  45.131  55.247  1.00  0.00     0.063 C 
HETATM    9  C   UNL     1      30.102  44.151  55.116  1.00  0.00     0.020 C 
HETATM   10  N   UNL     1      31.061  43.340  55.007  1.00  0.00    -0.096 N 
HETATM   11  C   UNL     1      28.822  45.862  56.387  1.00  0.00     0.139 C 
HETATM   12  O   UNL     1      27.834  46.850  56.530  1.00  0.00    -0.279 OA
ENDROOT
BRANCH   7  13
HETATM   13  C   UNL     1      27.108  44.029  53.661  1.00  0.00     0.003 C 
HETATM   14  C   UNL     1      27.294  42.802  54.574  1.00  0.00     0.032 C 
HETATM   15  C   UNL     1      28.233  41.769  54.041  1.00  0.00    -0.030 C 
HETATM   16  C   UNL     1      28.599  41.694  52.756  1.00  0.00    -0.031 C 
HETATM   17  C   UNL     1      28.116  42.629  51.694  1.00  0.00     0.027 C 
HETATM   18  C   UNL     1      27.084  43.654  52.165  1.00  0.00     0.009 C 
ENDBRANCH   7  13
BRANCH  11  19
HETATM   19  N   UNL     1      29.628  45.756  57.496  1.00  0.00    -0.282 NA
HETATM   20  H   UNL     1      30.628  45.709  57.320  1.00  0.00     0.126 HD
HETATM   21  H   UNL     1      29.381  46.428  58.218  1.00  0.00     0.126 HD
ENDBRANCH  11  19
BRANCH   1  22
HETATM   22  C   UNL     1      25.831  46.933  52.043  1.00  0.00    -0.005 A 
HETATM   23  C   UNL     1      26.519  47.549  50.990  1.00  0.00     0.014 A 
HETATM   24  C   UNL     1      26.188  47.255  49.664  1.00  0.00     0.001 A 
HETATM   25  C   UNL     1      25.169  46.347  49.384  1.00  0.00     0.000 A 
HETATM   26  C   UNL     1      24.471  45.737  50.426  1.00  0.00     0.001 A 
HETATM   27  C   UNL     1      24.797  46.033  51.751  1.00  0.00     0.014 A 
ENDBRANCH   1  22
TORSDOF 3
ENDMDL
MODEL 2
REMARK VINA RESULT:      -8.2     13.287     14.760
REMARK  3 active torsions:
REMARK  status: ('A' for Active; 'I' for Inactive)
REMARK    1  A    between atoms: C_4  and  C_5 
REMARK    2  A    between atoms: C_11  and  C_12 
REMARK    3  A    between atoms: C_21  and  N_22 
ROOT
HETATM    1  C   UNL     1      28.291  49.691  40.273  1.00  0.00     0.098 A 
HETATM    2  N   UNL     1      27.056  50.152  40.544  1.00  0.00    -0.172 NA
HETATM    3  N   UNL     1      27.228  51.465  40.786  1.00  0.00    -0.256 N 
HETATM    4  H   UNL     1      26.419  52.032  41.011  1.00  0.00     0.191 HD
HETATM    5  C   UNL     1      28.524  51.853  40.692  1.00  0.00     0.175 A 
HETATM    6  C   UNL     1      29.253  50.734  40.391  1.00  0.00     0.036 A 
HETATM    7  C   UNL     1      30.755  50.799  40.297  1.00  0.00     0.076 C 
HETATM    8  C   UNL     1      31.171  52.289  40.333  1.00  0.00     0.063 C 
HETATM    9  C   UNL     1      32.611  52.604  39.964  1.00  0.00     0.020 C 
HETATM   10  N   UNL     1      33.806  52.865  39.657  1.00  0.00    -0.096 N 
HETATM   11  C   UNL     1      30.321  53.312  40.620  1.00  0.00     0.139 C 
HETATM   12  O   UNL     1      28.957  53.092  40.874  1.00  0.00    -0.279 OA
ENDROOT
BRANCH   7  13
HETATM   13  C   UNL     1      31.391  49.846  41.378  1.00  0.00     0.003 C 
HETATM   14  C   UNL     1      31.497  50.448  42.792  1.00  0.00     0.032 C 
HETATM   15  C   UNL     1      32.829  51.046  43.114  1.00  0.00    -0.030 C 
HETATM   16  C   UNL     1      33.946  50.777  42.427  1.00  0.00    -0.031 C 
HETATM   17  C   UNL     1      34.004  49.845  41.259  1.00  0.00     0.027 C 
HETATM   18  C   UNL     1      32.689  49.137  40.938  1.00  0.00     0.009 C 
ENDBRANCH   7  13
BRANCH  11  19
HETATM   19  N   UNL     1      30.661  54.643  40.671  1.00  0.00    -0.282 NA
HETATM   20  H   UNL     1      30.388  55.143  41.514  1.00  0.00     0.126 HD
HETATM   21  H   UNL     1      31.629  54.804  40.405  1.00  0.00     0.126 HD
ENDBRANCH  11  19
BRANCH   1  22
HETATM   22  C   UNL     1      28.520  48.282  39.967  1.00  0.00    -0.005 A 
HETATM   23  C   UNL     1      27.934  47.276  40.745  1.00  0.00     0.014 A 
HETATM   24  C   UNL     1      28.115  45.931  40.411  1.00  0.00     0.001 A 
HETATM   25  C   UNL     1      28.882  45.585  39.301  1.00  0.00     0.000 A 
HETATM   26  C   UNL     1      29.479  46.579  38.527  1.00  0.00     0.001 A 
HETATM   27  C   UNL     1      29.303  47.923  38.861  1.00  0.00     0.014 A 
ENDBRANCH   1  22
TORSDOF 3
ENDMDL
MODEL 3
REMARK VINA RESULT:      -8.0      7.755     11.637
REMARK  3 active torsions:
REMARK  status: ('A' for Active; 'I' for Inactive)
REMARK    1  A    between atoms: C_4  and  C_5 
REMARK    2  A    between atoms: C_11  and  C_12 
REMARK    3  A    between atoms: C_21  and  N_22 
ROOT
HETATM    1  C   UNL     1      20.999  47.378  48.530  1.00  0.00     0.098 A 
HETATM    2  N   UNL     1      20.972  46.078  48.876  1.00  0.00    -0.172 NA
HETATM    3  N   UNL     1      19.674  45.730  48.791  1.00  0.00    -0.256 N 
HETATM    4  H   UNL     1      19.407  44.776  49.005  1.00  0.00     0.191 HD
HETATM    5  C   UNL     1      18.876  46.760  48.418  1.00  0.00     0.175 A 
HETATM    6  C   UNL     1      19.684  47.855  48.265  1.00  0.00     0.036 A 
HETATM    7  C   UNL     1      19.097  49.201  47.932  1.00  0.00     0.076 C 
HETATM    8  C   UNL     1      17.606  48.996  47.573  1.00  0.00     0.063 C 
HETATM    9  C   UNL     1      16.892  50.173  46.928  1.00  0.00     0.020 C 
HETATM   10  N   UNL     1      16.299  51.149  46.393  1.00  0.00    -0.096 N 
HETATM   11  C   UNL     1      16.932  47.828  47.751  1.00  0.00     0.139 C 
HETATM   12  O   UNL     1      17.563  46.677  48.251  1.00  0.00    -0.279 OA
ENDROOT
BRANCH   7  13
HETATM   13  C   UNL     1      19.426  50.219  49.088  1.00  0.00     0.003 C 
HETATM   14  C   UNL     1      18.327  50.366  50.157  1.00  0.00     0.032 C 
HETATM   15  C   UNL     1      17.403  51.522  49.943  1.00  0.00    -0.030 C 
HETATM   16  C   UNL     1      17.689  52.558  49.145  1.00  0.00    -0.031 C 
HETATM   17  C   UNL     1      18.962  52.692  48.371  1.00  0.00     0.027 C 
HETATM   18  C   UNL     1      19.981  51.580  48.619  1.00  0.00     0.009 C 
ENDBRANCH   7  13
BRANCH  11  19
HETATM   19  N   UNL     1      15.606  47.616  47.453  1.00  0.00    -0.282 NA
HETATM   20  H   UNL     1      15.193  46.766  47.827  1.00  0.00     0.126 HD
HETATM   21  H   UNL     1      15.038  48.443  47.616  1.00  0.00     0.126 HD
ENDBRANCH  11  19
BRANCH   1  22
HETATM   22  C   UNL     1      22.251  48.129  48.513  1.00  0.00    -0.005 A 
HETATM   23  C   UNL     1      22.380  49.291  47.742  1.00  0.00     0.014 A 
HETATM   24  C   UNL     1      23.564  50.031  47.774  1.00  0.00     0.001 A 
HETATM   25  C   UNL     1      24.625  49.615  48.576  1.00  0.00     0.000 A 
HETATM   26  C   UNL     1      24.510  48.453  49.339  1.00  0.00     0.001 A 
HETATM   27  C   UNL     1      23.329  47.710  49.304  1.00  0.00     0.014 A 
ENDBRANCH   1  22
TORSDOF 3
ENDMDL
MODEL 4
REMARK VINA RESULT:      -7.8     12.981     14.668
REMARK  3 active torsions:
REMARK  status: ('A' for Active; 'I' for Inactive)
REMARK    1  A    between atoms: C_4  and  C_5 
REMARK    2  A    between atoms: C_11  and  C_12 
REMARK    3  A    between atoms: C_21  and  N_22 
ROOT
HETATM    1  C   UNL     1      28.531  47.668  39.276  1.00  0.00     0.098 A 
HETATM    2  N   UNL     1      28.807  46.570  38.548  1.00  0.00    -0.172 NA
HETATM    3  N   UNL     1      30.089  46.279  38.845  1.00  0.00    -0.256 N 
HETATM    4  H   UNL     1      30.521  45.472  38.410  1.00  0.00     0.191 HD
HETATM    5  C   UNL     1      30.639  47.155  39.721  1.00  0.00     0.175 A 
HETATM    6  C   UNL     1      29.678  48.089  40.006  1.00  0.00     0.036 A 
HETATM    7  C   UNL     1      29.991  49.265  40.894  1.00  0.00     0.076 C 
HETATM    8  C   UNL     1      31.378  49.022  41.536  1.00  0.00     0.063 C 
HETATM    9  C   UNL     1      31.768  49.938  42.685  1.00  0.00     0.020 C 
HETATM   10  N   UNL     1      32.090  50.697  43.639  1.00  0.00    -0.096 N 
HETATM   11  C   UNL     1      32.225  48.022  41.168  1.00  0.00     0.139 C 
HETATM   12  O   UNL     1      31.880  47.085  40.180  1.00  0.00    -0.279 OA
ENDROOT
BRANCH   7  13
HETATM   13  C   UNL     1      29.796  50.601  40.084  1.00  0.00     0.003 C 
HETATM   14  C   UNL     1      31.096  51.242  39.563  1.00  0.00     0.032 C 
HETATM   15  C   UNL     1      31.650  52.320  40.438  1.00  0.00    -0.030 C 
HETATM   16  C   UNL     1      30.934  52.952  41.376  1.00  0.00    -0.031 C 
HETATM   17  C   UNL     1      29.496  52.664  41.666  1.00  0.00     0.027 C 
HETATM   18  C   UNL     1      28.852  51.629  40.743  1.00  0.00     0.009 C 
ENDBRANCH   7  13
BRANCH  11  19
HETATM   19  N   UNL     1      33.467  47.787  41.710  1.00  0.00    -0.282 NA
HETATM   20  H   UNL     1      33.530  47.011  42.364  1.00  0.00     0.126 HD
HETATM   21  H   UNL     1      34.199  47.776  41.005  1.00  0.00     0.126 HD
ENDBRANCH  11  19
BRANCH   1  22
HETATM   22  C   UNL     1      27.218  48.303  39.214  1.00  0.00    -0.005 A 
HETATM   23  C   UNL     1      26.967  49.342  38.309  1.00  0.00     0.014 A 
HETATM   24  C   UNL     1      25.692  49.907  38.219  1.00  0.00     0.001 A 
HETATM   25  C   UNL     1      24.663  49.438  39.033  1.00  0.00     0.000 A 
HETATM   26  C   UNL     1      24.905  48.411  39.945  1.00  0.00     0.001 A 
HETATM   27  C   UNL     1      26.180  47.849  40.039  1.00  0.00     0.014 A 
ENDBRANCH   1  22
TORSDOF 3
ENDMDL
MODEL 5
REMARK VINA RESULT:      -7.8     13.866     15.957
REMARK  3 active torsions:
REMARK  status: ('A' for Active; 'I' for Inactive)
REMARK    1  A    between atoms: C_4  and  C_5 
REMARK    2  A    between atoms: C_11  and  C_12 
REMARK    3  A    between atoms: C_21  and  N_22 
ROOT
HETATM    1  C   UNL     1      33.472  49.303  41.197  1.00  0.00     0.098 A 
HETATM    2  N   UNL     1      33.574  47.991  41.479  1.00  0.00    -0.172 NA
HETATM    3  N   UNL     1      32.501  47.432  40.887  1.00  0.00    -0.256 N 
HETATM    4  H   UNL     1      32.368  46.430  40.961  1.00  0.00     0.191 HD
HETATM    5  C   UNL     1      31.718  48.338  40.252  1.00  0.00     0.175 A 
HETATM    6  C   UNL     1      32.290  49.566  40.449  1.00  0.00     0.036 A 
HETATM    7  C   UNL     1      31.619  50.815  39.940  1.00  0.00     0.076 C 
HETATM    8  C   UNL     1      30.449  50.388  39.022  1.00  0.00     0.063 C 
HETATM    9  C   UNL     1      29.815  51.478  38.173  1.00  0.00     0.020 C 
HETATM   10  N   UNL     1      29.290  52.382  37.468  1.00  0.00    -0.096 N 
HETATM   11  C   UNL     1      30.003  49.108  38.900  1.00  0.00     0.139 C 
HETATM   12  O   UNL     1      30.611  48.043  39.585  1.00  0.00    -0.279 OA
ENDROOT
BRANCH   7  13
HETATM   13  C   UNL     1      31.277  51.760  41.152  1.00  0.00     0.003 C 
HETATM   14  C   UNL     1      30.071  51.316  42.002  1.00  0.00     0.032 C 
HETATM   15  C   UNL     1      28.780  51.976  41.638  1.00  0.00    -0.030 C 
HETATM   16  C   UNL     1      28.702  53.104  40.923  1.00  0.00    -0.031 C 
HETATM   17  C   UNL     1      29.890  53.846  40.400  1.00  0.00     0.027 C 
HETATM   18  C   UNL     1      31.241  53.265  40.815  1.00  0.00     0.009 C 
ENDBRANCH   7  13
BRANCH  11  19
HETATM   19  N   UNL     1      28.960  48.697  38.103  1.00  0.00    -0.282 NA
HETATM   20  H   UNL     1      28.206  49.367  37.972  1.00  0.00     0.126 HD
HETATM   21  H   UNL     1      29.281  48.280  37.234  1.00  0.00     0.126 HD
ENDBRANCH  11  19
BRANCH   1  22
HETATM   22  C   UNL     1      34.462  50.259  41.685  1.00  0.00    -0.005 A 
HETATM   23  C   UNL     1      34.192  51.063  42.800  1.00  0.00     0.014 A 
HETATM   24  C   UNL     1      35.166  51.936  43.292  1.00  0.00     0.001 A 
HETATM   25  C   UNL     1      36.413  52.009  42.675  1.00  0.00     0.000 A 
HETATM   26  C   UNL     1      36.688  51.220  41.558  1.00  0.00     0.001 A 
HETATM   27  C   UNL     1      35.714  50.351  41.062  1.00  0.00     0.014 A 
ENDBRANCH   1  22
TORSDOF 3
ENDMDL
MODEL 6
REMARK VINA RESULT:      -7.7      3.230      5.132
REMARK  3 active torsions:
REMARK  status: ('A' for Active; 'I' for Inactive)
REMARK    1  A    between atoms: C_4  and  C_5 
REMARK    2  A    between atoms: C_11  and  C_12 
REMARK    3  A    between atoms: C_21  and  N_22 
ROOT
HETATM    1  C   UNL     1      25.953  46.985  51.035  1.00  0.00     0.098 A 
HETATM    2  N   UNL     1      26.170  47.390  52.300  1.00  0.00    -0.172 NA
HETATM    3  N   UNL     1      26.441  46.258  52.978  1.00  0.00    -0.256 N 
HETATM    4  H   UNL     1      26.647  46.318  53.968  1.00  0.00     0.191 HD
HETATM    5  C   UNL     1      26.391  45.152  52.196  1.00  0.00     0.175 A 
HETATM    6  C   UNL     1      26.051  45.568  50.937  1.00  0.00     0.036 A 
HETATM    7  C   UNL     1      25.827  44.568  49.833  1.00  0.00     0.076 C 
HETATM    8  C   UNL     1      26.297  43.184  50.340  1.00  0.00     0.063 C 
HETATM    9  C   UNL     1      26.431  42.086  49.298  1.00  0.00     0.020 C 
HETATM   10  N   UNL     1      26.544  41.175  48.433  1.00  0.00    -0.096 N 
HETATM   11  C   UNL     1      26.639  42.920  51.631  1.00  0.00     0.139 C 
HETATM   12  O   UNL     1      26.629  43.918  52.619  1.00  0.00    -0.279 OA
ENDROOT
BRANCH   7  13
HETATM   13  C   UNL     1      24.344  44.681  49.315  1.00  0.00     0.003 C 
HETATM   14  C   UNL     1      23.275  44.131  50.280  1.00  0.00     0.032 C 
HETATM   15  C   UNL     1      22.847  42.727  49.995  1.00  0.00    -0.030 C 
HETATM   16  C   UNL     1      23.057  42.112  48.825  1.00  0.00    -0.031 C 
HETATM   17  C   UNL     1      23.742  42.748  47.658  1.00  0.00     0.027 C 
HETATM   18  C   UNL     1      24.125  44.214  47.861  1.00  0.00     0.009 C 
ENDBRANCH   7  13
BRANCH  11  19
HETATM   19  N   UNL     1      27.050  41.700  52.115  1.00  0.00    -0.282 NA
HETATM   20  H   UNL     1      26.344  41.149  52.597  1.00  0.00     0.126 HD
HETATM   21  H   UNL     1      27.570  41.167  51.424  1.00  0.00     0.126 HD
ENDBRANCH  11  19
BRANCH   1  22
HETATM   22  C   UNL     1      25.612  47.940  49.985  1.00  0.00    -0.005 A 
HETATM   23  C   UNL     1      24.275  48.186  49.646  1.00  0.00     0.014 A 
HETATM   24  C   UNL     1      23.958  49.141  48.677  1.00  0.00     0.001 A 
HETATM   25  C   UNL     1      24.972  49.855  48.042  1.00  0.00     0.000 A 
HETATM   26  C   UNL     1      26.306  49.611  48.365  1.00  0.00     0.001 A 
HETATM   27  C   UNL     1      26.626  48.652  49.329  1.00  0.00     0.014 A 
ENDBRANCH   1  22
TORSDOF 3
ENDMDL
MODEL 7
REMARK VINA RESULT:      -7.5     12.981     14.605
REMARK  3 active torsions:
REMARK  status: ('A' for Active; 'I' for Inactive)
REMARK    1  A    between atoms: C_4  and  C_5 
REMARK    2  A    between atoms: C_11  and  C_12 
REMARK    3  A    between atoms: C_21  and  N_22 
ROOT
HETATM    1  C   UNL     1      27.589  47.746  39.581  1.00  0.00     0.098 A 
HETATM    2  N   UNL     1      26.261  47.882  39.751  1.00  0.00    -0.172 NA
HETATM    3  N   UNL     1      26.098  49.158  40.149  1.00  0.00    -0.256 N 
HETATM    4  H   UNL     1      25.160  49.496  40.336  1.00  0.00     0.191 HD
HETATM    5  C   UNL     1      27.269  49.832  40.251  1.00  0.00     0.175 A 
HETATM    6  C   UNL     1      28.265  48.952  39.921  1.00  0.00     0.036 A 
HETATM    7  C   UNL     1      29.711  49.361  40.013  1.00  0.00     0.076 C 
HETATM    8  C   UNL     1      29.761  50.889  40.256  1.00  0.00     0.063 C 
HETATM    9  C   UNL     1      31.115  51.561  40.095  1.00  0.00     0.020 C 
HETATM   10  N   UNL     1      32.237  52.119  39.960  1.00  0.00    -0.096 N 
HETATM   11  C   UNL     1      28.672  51.651  40.547  1.00  0.00     0.139 C 
HETATM   12  O   UNL     1      27.380  51.103  40.613  1.00  0.00    -0.279 OA
ENDROOT
BRANCH   7  13
HETATM   13  C   UNL     1      30.453  48.441  41.055  1.00  0.00     0.003 C 
HETATM   14  C   UNL     1      30.394  48.933  42.513  1.00  0.00     0.032 C 
HETATM   15  C   UNL     1      31.590  49.716  42.953  1.00  0.00    -0.030 C 
HETATM   16  C   UNL     1      32.765  49.692  42.312  1.00  0.00    -0.031 C 
HETATM   17  C   UNL     1      33.031  48.883  41.083  1.00  0.00     0.027 C 
HETATM   18  C   UNL     1      31.870  47.996  40.637  1.00  0.00     0.009 C 
ENDBRANCH   7  13
BRANCH  11  19
HETATM   19  N   UNL     1      28.684  53.006  40.779  1.00  0.00    -0.282 NA
HETATM   20  H   UNL     1      29.483  53.365  41.294  1.00  0.00     0.126 HD
HETATM   21  H   UNL     1      28.474  53.542  39.940  1.00  0.00     0.126 HD
ENDBRANCH  11  19
BRANCH   1  22
HETATM   22  C   UNL     1      28.169  46.476  39.156  1.00  0.00    -0.005 A 
HETATM   23  C   UNL     1      27.998  45.317  39.925  1.00  0.00     0.014 A 
HETATM   24  C   UNL     1      28.511  44.095  39.483  1.00  0.00     0.001 A 
HETATM   25  C   UNL     1      29.197  44.024  38.273  1.00  0.00     0.000 A 
HETATM   26  C   UNL     1      29.383  45.174  37.505  1.00  0.00     0.001 A 
HETATM   27  C   UNL     1      28.875  46.397  37.948  1.00  0.00     0.014 A 
ENDBRANCH   1  22
TORSDOF 3
ENDMDL
MODEL 8
REMARK VINA RESULT:      -7.5      9.586     13.270
REMARK  3 active torsions:
REMARK  status: ('A' for Active; 'I' for Inactive)
REMARK    1  A    between atoms: C_4  and  C_5 
REMARK    2  A    between atoms: C_11  and  C_12 
REMARK    3  A    between atoms: C_21  and  N_22 
ROOT
HETATM    1  C   UNL     1      19.244  48.943  49.019  1.00  0.00     0.098 A 
HETATM    2  N   UNL     1      19.008  48.159  50.087  1.00  0.00    -0.172 NA
HETATM    3  N   UNL     1      17.768  47.674  49.885  1.00  0.00    -0.256 N 
HETATM    4  H   UNL     1      17.371  47.042  50.571  1.00  0.00     0.191 HD
HETATM    5  C   UNL     1      17.204  48.130  48.739  1.00  0.00     0.175 A 
HETATM    6  C   UNL     1      18.110  48.976  48.159  1.00  0.00     0.036 A 
HETATM    7  C   UNL     1      17.762  49.727  46.900  1.00  0.00     0.076 C 
HETATM    8  C   UNL     1      16.432  49.155  46.356  1.00  0.00     0.063 C 
HETATM    9  C   UNL     1      16.040  49.563  44.945  1.00  0.00     0.020 C 
HETATM   10  N   UNL     1      15.716  49.901  43.775  1.00  0.00    -0.096 N 
HETATM   11  C   UNL     1      15.639  48.284  47.039  1.00  0.00     0.139 C 
HETATM   12  O   UNL     1      15.997  47.795  48.307  1.00  0.00    -0.279 OA
ENDROOT
BRANCH   7  13
HETATM   13  C   UNL     1      17.821  51.276  47.178  1.00  0.00     0.003 C 
HETATM   14  C   UNL     1      17.071  51.738  48.441  1.00  0.00     0.032 C 
HETATM   15  C   UNL     1      15.684  52.239  48.191  1.00  0.00    -0.030 C 
HETATM   16  C   UNL     1      15.241  52.617  46.986  1.00  0.00    -0.031 C 
HETATM   17  C   UNL     1      16.072  52.590  45.743  1.00  0.00     0.027 C 
HETATM   18  C   UNL     1      17.526  52.169  45.955  1.00  0.00     0.009 C 
ENDBRANCH   7  13
BRANCH  11  19
HETATM   19  N   UNL     1      14.447  47.767  46.590  1.00  0.00    -0.282 NA
HETATM   20  H   UNL     1      13.897  47.251  47.272  1.00  0.00     0.126 HD
HETATM   21  H   UNL     1      13.902  48.450  46.070  1.00  0.00     0.126 HD
ENDBRANCH  11  19
BRANCH   1  22
HETATM   22  C   UNL     1      20.505  49.667  48.879  1.00  0.00    -0.005 A 
HETATM   23  C   UNL     1      20.966  50.506  49.901  1.00  0.00     0.014 A 
HETATM   24  C   UNL     1      22.199  51.152  49.781  1.00  0.00     0.001 A 
HETATM   25  C   UNL     1      22.977  50.964  48.640  1.00  0.00     0.000 A 
HETATM   26  C   UNL     1      22.521  50.140  47.612  1.00  0.00     0.001 A 
HETATM   27  C   UNL     1      21.286  49.497  47.728  1.00  0.00     0.014 A 
ENDBRANCH   1  22
TORSDOF 3
ENDMDL
MODEL 9
REMARK VINA RESULT:      -7.5     13.170     16.070
REMARK  3 active torsions:
REMARK  status: ('A' for Active; 'I' for Inactive)
REMARK    1  A    between atoms: C_4  and  C_5 
REMARK    2  A    between atoms: C_11  and  C_12 
REMARK    3  A    between atoms: C_21  and  N_22 
ROOT
HETATM    1  C   UNL     1      34.431  51.103  41.534  1.00  0.00     0.098 A 
HETATM    2  N   UNL     1      34.701  51.277  42.841  1.00  0.00    -0.172 NA
HETATM    3  N   UNL     1      33.598  50.839  43.477  1.00  0.00    -0.256 N 
HETATM    4  H   UNL     1      33.572  50.869  44.490  1.00  0.00     0.191 HD
HETATM    5  C   UNL     1      32.635  50.407  42.626  1.00  0.00     0.175 A 
HETATM    6  C   UNL     1      33.117  50.584  41.357  1.00  0.00     0.036 A 
HETATM    7  C   UNL     1      32.256  50.279  40.160  1.00  0.00     0.076 C 
HETATM    8  C   UNL     1      30.987  49.546  40.659  1.00  0.00     0.063 C 
HETATM    9  C   UNL     1      30.118  48.890  39.599  1.00  0.00     0.020 C 
HETATM   10  N   UNL     1      29.396  48.345  38.720  1.00  0.00    -0.096 N 
HETATM   11  C   UNL     1      30.647  49.418  41.970  1.00  0.00     0.139 C 
HETATM   12  O   UNL     1      31.461  49.918  42.999  1.00  0.00    -0.279 OA
ENDROOT
BRANCH   7  13
HETATM   13  C   UNL     1      32.045  51.591  39.315  1.00  0.00     0.003 C 
HETATM   14  C   UNL     1      31.474  52.786  40.102  1.00  0.00     0.032 C 
HETATM   15  C   UNL     1      29.992  52.952  39.990  1.00  0.00    -0.030 C 
HETATM   16  C   UNL     1      29.256  52.385  39.027  1.00  0.00    -0.031 C 
HETATM   17  C   UNL     1      29.818  51.521  37.944  1.00  0.00     0.027 C 
HETATM   18  C   UNL     1      31.340  51.386  37.958  1.00  0.00     0.009 C 
ENDBRANCH   7  13
BRANCH  11  19
HETATM   19  N   UNL     1      29.523  48.783  42.445  1.00  0.00    -0.282 NA
HETATM   20  H   UNL     1      29.182  49.096  43.351  1.00  0.00     0.126 HD
HETATM   21  H   UNL     1      28.791  48.718  41.743  1.00  0.00     0.126 HD
ENDBRANCH  11  19
BRANCH   1  22
HETATM   22  C   UNL     1      35.399  51.479  40.507  1.00  0.00    -0.005 A 
HETATM   23  C   UNL     1      36.255  50.523  39.946  1.00  0.00     0.014 A 
HETATM   24  C   UNL     1      37.140  50.882  38.926  1.00  0.00     0.001 A 
HETATM   25  C   UNL     1      37.176  52.195  38.463  1.00  0.00     0.000 A 
HETATM   26  C   UNL     1      36.334  53.156  39.023  1.00  0.00     0.001 A 
HETATM   27  C   UNL     1      35.453  52.801  40.046  1.00  0.00     0.014 A 
ENDBRANCH   1  22
TORSDOF 3
ENDMDL
MODEL 10
REMARK VINA RESULT:      -7.5     13.390     15.244
REMARK  3 active torsions:
REMARK  status: ('A' for Active; 'I' for Inactive)
REMARK    1  A    between atoms: C_4  and  C_5 
REMARK    2  A    between atoms: C_11  and  C_12 
REMARK    3  A    between atoms: C_21  and  N_22 
ROOT
HETATM    1  C   UNL     1      30.002  51.605  40.071  1.00  0.00     0.098 A 
HETATM    2  N   UNL     1      30.224  52.619  39.214  1.00  0.00    -0.172 NA
HETATM    3  N   UNL     1      29.183  52.576  38.360  1.00  0.00    -0.256 N 
HETATM    4  H   UNL     1      29.131  53.262  37.616  1.00  0.00     0.191 HD
HETATM    5  C   UNL     1      28.319  51.568  38.634  1.00  0.00     0.175 A 
HETATM    6  C   UNL     1      28.822  50.895  39.715  1.00  0.00     0.036 A 
HETATM    7  C   UNL     1      28.140  49.655  40.231  1.00  0.00     0.076 C 
HETATM    8  C   UNL     1      26.773  49.530  39.517  1.00  0.00     0.063 C 
HETATM    9  C   UNL     1      25.795  48.516  40.089  1.00  0.00     0.020 C 
HETATM   10  N   UNL     1      24.984  47.676  40.565  1.00  0.00    -0.096 N 
HETATM   11  C   UNL     1      26.390  50.298  38.461  1.00  0.00     0.139 C 
HETATM   12  O   UNL     1      27.211  51.317  37.950  1.00  0.00    -0.279 OA
ENDROOT
BRANCH   7  13
HETATM   13  C   UNL     1      29.124  48.431  40.124  1.00  0.00     0.003 C 
HETATM   14  C   UNL     1      29.512  48.032  38.687  1.00  0.00     0.032 C 
HETATM   15  C   UNL     1      28.698  46.918  38.111  1.00  0.00    -0.030 C 
HETATM   16  C   UNL     1      27.964  46.080  38.851  1.00  0.00    -0.031 C 
HETATM   17  C   UNL     1      27.866  46.147  40.342  1.00  0.00     0.027 C 
HETATM   18  C   UNL     1      28.747  47.213  40.993  1.00  0.00     0.009 C 
ENDBRANCH   7  13
BRANCH  11  19
HETATM   19  N   UNL     1      25.189  50.205  37.799  1.00  0.00    -0.282 NA
HETATM   20  H   UNL     1      24.498  50.916  38.022  1.00  0.00     0.126 HD
HETATM   21  H   UNL     1      25.310  50.065  36.799  1.00  0.00     0.126 HD
ENDBRANCH  11  19
BRANCH   1  22
HETATM   22  C   UNL     1      30.937  51.317  41.155  1.00  0.00    -0.005 A 
HETATM   23  C   UNL     1      31.895  50.303  41.025  1.00  0.00     0.014 A 
HETATM   24  C   UNL     1      32.819  50.071  42.046  1.00  0.00     0.001 A 
HETATM   25  C   UNL     1      32.792  50.849  43.202  1.00  0.00     0.000 A 
HETATM   26  C   UNL     1      31.835  51.853  43.346  1.00  0.00     0.001 A 
HETATM   27  C   UNL     1      30.907  52.083  42.328  1.00  0.00     0.014 A 
ENDBRANCH   1  22
TORSDOF 3
ENDMDL
