MODEL 1
REMARK VINA RESULT:     -10.5      0.000      0.000
REMARK  7 active torsions:
REMARK  status: ('A' for Active; 'I' for Inactive)
REMARK    1  A    between atoms: C_4  and  C_5 
REMARK    2  A    between atoms: C_5  and  N_6 
REMARK    3  A    between atoms: C_14  and  C_15 
REMARK    4  A    between atoms: C_18  and  O_19 
REMARK    5  A    between atoms: O_19  and  C_20 
REMARK    6  A    between atoms: C_20  and  C_21 
REMARK    7  A    between atoms: C_22  and  C_23 
ROOT
HETATM    1  N   UNL     1      26.151  43.976  51.495  1.00  0.00    -0.063 N 
HETATM    2  H   UNL     1      26.653  43.983  50.599  1.00  0.00     0.280 HD
HETATM    3  C   UNL     1      24.684  43.824  51.122  1.00  0.00     0.282 C 
HETATM    4  C   UNL     1      24.247  45.016  50.341  1.00  0.00     0.018 A 
HETATM    5  C   UNL     1      24.893  46.239  50.340  1.00  0.00    -0.023 A 
HETATM    6  C   UNL     1      24.228  47.173  49.481  1.00  0.00     0.073 A 
HETATM    7  C   UNL     1      23.129  46.614  48.875  1.00  0.00     0.088 A 
HETATM    8  N   UNL     1      22.355  47.269  47.989  1.00  0.00    -0.358 N 
HETATM    9  C   UNL     1      22.480  48.702  47.826  1.00  0.00     0.219 C 
HETATM   10  N   UNL     1      23.738  49.198  48.324  1.00  0.00    -0.332 N 
HETATM   11  C   UNL     1      24.576  48.547  49.182  1.00  0.00     0.256 C 
HETATM   12  O   UNL     1      25.564  49.096  49.657  1.00  0.00    -0.267 OA
HETATM   13  S   UNL     1      22.865  45.003  49.350  1.00  0.00    -0.074 SA
HETATM   14  C   UNL     1      26.152  46.469  51.126  1.00  0.00     0.068 C 
HETATM   15  C   UNL     1      26.412  45.334  52.136  1.00  0.00     0.240 C 
HETATM   16  H   UNL     1      21.444  46.891  47.742  1.00  0.00     0.162 HD
HETATM   17  H   UNL     1      23.958  50.170  48.162  1.00  0.00     0.165 HD
ENDROOT
BRANCH   9  18
HETATM   18  C   UNL     1      21.282  49.404  48.435  1.00  0.00    -0.016 A 
HETATM   19  C   UNL     1      21.102  50.796  48.340  1.00  0.00     0.014 A 
HETATM   20  C   UNL     1      20.010  51.422  48.950  1.00  0.00     0.038 A 
HETATM   21  C   UNL     1      19.106  50.662  49.685  1.00  0.00     0.079 A 
HETATM   22  C   UNL     1      19.254  49.279  49.778  1.00  0.00     0.038 A 
HETATM   23  C   UNL     1      20.340  48.655  49.163  1.00  0.00     0.014 A 
BRANCH  21  24
HETATM   24  O   UNL     1      17.973  51.195  50.328  1.00  0.00    -0.276 OA
BRANCH  24  25
HETATM   25  C   UNL     1      16.853  51.589  49.609  1.00  0.00     0.288 C 
HETATM   26  O   UNL     1      16.316  50.991  48.689  1.00  0.00    -0.260 OA
BRANCH  25  27
HETATM   27  C   UNL     1      16.355  52.895  50.092  1.00  0.00     0.085 C 
HETATM   28  C   UNL     1      15.069  53.154  50.370  1.00  0.00     0.043 C 
BRANCH  28  29
HETATM   29  C   UNL     1      14.675  54.422  50.876  1.00  0.00     0.075 A 
HETATM   30  O   UNL     1      13.783  54.599  51.912  1.00  0.00    -0.323 OA
HETATM   31  C   UNL     1      13.635  55.929  52.129  1.00  0.00     0.142 A 
HETATM   32  C   UNL     1      14.411  56.645  51.255  1.00  0.00     0.027 A 
HETATM   33  C   UNL     1      15.078  55.686  50.456  1.00  0.00     0.039 A 
ENDBRANCH  28  29
ENDBRANCH  25  27
ENDBRANCH  24  25
ENDBRANCH  21  24
ENDBRANCH   9  18
BRANCH   1  34
HETATM   34  C   UNL     1      26.707  42.803  52.258  1.00  0.00     0.273 C 
BRANCH  34  35
HETATM   35  C   UNL     1      27.982  43.058  53.017  1.00  0.00    -0.033 A 
HETATM   36  C   UNL     1      29.222  42.684  52.476  1.00  0.00     0.009 A 
HETATM   37  C   UNL     1      30.401  42.902  53.190  1.00  0.00     0.001 A 
HETATM   38  C   UNL     1      30.355  43.499  54.447  1.00  0.00     0.000 A 
HETATM   39  C   UNL     1      29.133  43.887  54.990  1.00  0.00     0.001 A 
HETATM   40  C   UNL     1      27.952  43.671  54.279  1.00  0.00     0.009 A 
ENDBRANCH  34  35
ENDBRANCH   1  34
TORSDOF 7
ENDMDL
MODEL 2
REMARK VINA RESULT:     -10.1      1.941      3.350
REMARK  7 active torsions:
REMARK  status: ('A' for Active; 'I' for Inactive)
REMARK    1  A    between atoms: C_4  and  C_5 
REMARK    2  A    between atoms: C_5  and  N_6 
REMARK    3  A    between atoms: C_14  and  C_15 
REMARK    4  A    between atoms: C_18  and  O_19 
REMARK    5  A    between atoms: O_19  and  C_20 
REMARK    6  A    between atoms: C_20  and  C_21 
REMARK    7  A    between atoms: C_22  and  C_23 
ROOT
HETATM    1  N   UNL     1      26.271  43.649  51.509  1.00  0.00    -0.063 N 
HETATM    2  H   UNL     1      26.745  43.695  50.599  1.00  0.00     0.280 HD
HETATM    3  C   UNL     1      24.802  43.439  51.177  1.00  0.00     0.282 C 
HETATM    4  C   UNL     1      24.290  44.625  50.432  1.00  0.00     0.018 A 
HETATM    5  C   UNL     1      24.881  45.876  50.435  1.00  0.00    -0.023 A 
HETATM    6  C   UNL     1      24.150  46.794  49.615  1.00  0.00     0.073 A 
HETATM    7  C   UNL     1      23.058  46.198  49.031  1.00  0.00     0.088 A 
HETATM    8  N   UNL     1      22.229  46.833  48.182  1.00  0.00    -0.358 N 
HETATM    9  C   UNL     1      22.286  48.273  48.043  1.00  0.00     0.219 C 
HETATM   10  N   UNL     1      23.536  48.816  48.513  1.00  0.00    -0.332 N 
HETATM   11  C   UNL     1      24.428  48.188  49.332  1.00  0.00     0.256 C 
HETATM   12  O   UNL     1      25.405  48.771  49.789  1.00  0.00    -0.267 OA
HETATM   13  S   UNL     1      22.880  44.568  49.483  1.00  0.00    -0.074 SA
HETATM   14  C   UNL     1      26.152  46.147  51.188  1.00  0.00     0.068 C 
HETATM   15  C   UNL     1      26.492  45.007  52.168  1.00  0.00     0.240 C 
HETATM   16  H   UNL     1      21.329  46.420  47.955  1.00  0.00     0.162 HD
HETATM   17  H   UNL     1      23.708  49.799  48.362  1.00  0.00     0.165 HD
ENDROOT
BRANCH   9  18
HETATM   18  C   UNL     1      21.078  48.910  48.701  1.00  0.00    -0.016 A 
HETATM   19  C   UNL     1      20.020  48.145  49.225  1.00  0.00     0.014 A 
HETATM   20  C   UNL     1      18.897  48.762  49.786  1.00  0.00     0.038 A 
HETATM   21  C   UNL     1      18.812  50.150  49.799  1.00  0.00     0.079 A 
HETATM   22  C   UNL     1      19.856  50.930  49.303  1.00  0.00     0.038 A 
HETATM   23  C   UNL     1      20.978  50.313  48.749  1.00  0.00     0.014 A 
BRANCH  21  24
HETATM   24  O   UNL     1      17.730  50.866  50.348  1.00  0.00    -0.276 OA
BRANCH  24  25
HETATM   25  C   UNL     1      17.014  51.782  49.591  1.00  0.00     0.288 C 
HETATM   26  O   UNL     1      17.110  53.000  49.615  1.00  0.00    -0.260 OA
BRANCH  25  27
HETATM   27  C   UNL     1      16.051  51.090  48.706  1.00  0.00     0.085 C 
HETATM   28  C   UNL     1      16.349  50.634  47.481  1.00  0.00     0.043 C 
BRANCH  28  29
HETATM   29  C   UNL     1      15.381  49.936  46.709  1.00  0.00     0.075 A 
HETATM   30  O   UNL     1      14.776  48.762  47.104  1.00  0.00    -0.323 OA
HETATM   31  C   UNL     1      13.916  48.374  46.131  1.00  0.00     0.142 A 
HETATM   32  C   UNL     1      13.936  49.266  45.091  1.00  0.00     0.027 A 
HETATM   33  C   UNL     1      14.868  50.266  45.459  1.00  0.00     0.039 A 
ENDBRANCH  28  29
ENDBRANCH  25  27
ENDBRANCH  24  25
ENDBRANCH  21  24
ENDBRANCH   9  18
BRANCH   1  34
HETATM   34  C   UNL     1      26.902  42.489  52.232  1.00  0.00     0.273 C 
BRANCH  34  35
HETATM   35  C   UNL     1      28.129  42.809  53.043  1.00  0.00    -0.033 A 
HETATM   36  C   UNL     1      28.013  43.389  54.316  1.00  0.00     0.009 A 
HETATM   37  C   UNL     1      29.152  43.705  55.057  1.00  0.00     0.001 A 
HETATM   38  C   UNL     1      30.417  43.441  54.539  1.00  0.00     0.000 A 
HETATM   39  C   UNL     1      30.547  42.853  53.283  1.00  0.00     0.001 A 
HETATM   40  C   UNL     1      29.411  42.535  52.539  1.00  0.00     0.009 A 
ENDBRANCH  34  35
ENDBRANCH   1  34
TORSDOF 7
ENDMDL
MODEL 3
REMARK VINA RESULT:     -10.0      3.189     12.965
REMARK  7 active torsions:
REMARK  status: ('A' for Active; 'I' for Inactive)
REMARK    1  A    between atoms: C_4  and  C_5 
REMARK    2  A    between atoms: C_5  and  N_6 
REMARK    3  A    between atoms: C_14  and  C_15 
REMARK    4  A    between atoms: C_18  and  O_19 
REMARK    5  A    between atoms: O_19  and  C_20 
REMARK    6  A    between atoms: C_20  and  C_21 
REMARK    7  A    between atoms: C_22  and  C_23 
ROOT
HETATM    1  N   UNL     1      17.923  51.194  49.422  1.00  0.00    -0.063 N 
HETATM    2  H   UNL     1      18.106  51.250  48.412  1.00  0.00     0.280 HD
HETATM    3  C   UNL     1      19.256  51.518  50.079  1.00  0.00     0.282 C 
HETATM    4  C   UNL     1      20.253  50.470  49.716  1.00  0.00     0.018 A 
HETATM    5  C   UNL     1      19.936  49.204  49.258  1.00  0.00    -0.023 A 
HETATM    6  C   UNL     1      21.119  48.442  48.991  1.00  0.00     0.073 A 
HETATM    7  C   UNL     1      22.260  49.163  49.249  1.00  0.00     0.088 A 
HETATM    8  N   UNL     1      23.503  48.690  49.042  1.00  0.00    -0.358 N 
HETATM    9  C   UNL     1      23.716  47.282  48.785  1.00  0.00     0.219 C 
HETATM   10  N   UNL     1      22.513  46.620  48.343  1.00  0.00    -0.332 N 
HETATM   11  C   UNL     1      21.240  47.088  48.489  1.00  0.00     0.256 C 
HETATM   12  O   UNL     1      20.265  46.402  48.201  1.00  0.00    -0.267 OA
HETATM   13  S   UNL     1      21.930  50.723  49.842  1.00  0.00    -0.074 SA
HETATM   14  C   UNL     1      18.514  48.773  49.047  1.00  0.00     0.068 C 
HETATM   15  C   UNL     1      17.515  49.751  49.697  1.00  0.00     0.240 C 
HETATM   16  H   UNL     1      24.299  49.173  49.449  1.00  0.00     0.162 HD
HETATM   17  H   UNL     1      22.587  45.660  48.042  1.00  0.00     0.165 HD
ENDROOT
BRANCH   9  18
HETATM   18  C   UNL     1      24.348  46.619  49.994  1.00  0.00    -0.016 A 
HETATM   19  C   UNL     1      25.241  47.301  50.839  1.00  0.00     0.014 A 
HETATM   20  C   UNL     1      25.843  46.650  51.922  1.00  0.00     0.038 A 
HETATM   21  C   UNL     1      25.578  45.304  52.147  1.00  0.00     0.079 A 
HETATM   22  C   UNL     1      24.681  44.612  51.333  1.00  0.00     0.038 A 
HETATM   23  C   UNL     1      24.077  45.264  50.258  1.00  0.00     0.014 A 
BRANCH  21  24
HETATM   24  O   UNL     1      26.125  44.562  53.211  1.00  0.00    -0.276 OA
BRANCH  24  25
HETATM   25  C   UNL     1      27.358  43.937  53.096  1.00  0.00     0.288 C 
HETATM   26  O   UNL     1      27.782  43.304  52.140  1.00  0.00    -0.260 OA
BRANCH  25  27
HETATM   27  C   UNL     1      28.153  44.116  54.331  1.00  0.00     0.085 C 
HETATM   28  C   UNL     1      29.463  43.849  54.428  1.00  0.00     0.043 C 
BRANCH  28  29
HETATM   29  C   UNL     1      30.167  44.093  55.638  1.00  0.00     0.075 A 
HETATM   30  O   UNL     1      29.923  45.161  56.474  1.00  0.00    -0.323 OA
HETATM   31  C   UNL     1      30.775  45.087  57.526  1.00  0.00     0.142 A 
HETATM   32  C   UNL     1      31.587  43.989  57.407  1.00  0.00     0.027 A 
HETATM   33  C   UNL     1      31.199  43.351  56.205  1.00  0.00     0.039 A 
ENDBRANCH  28  29
ENDBRANCH  25  27
ENDBRANCH  24  25
ENDBRANCH  21  24
ENDBRANCH   9  18
BRANCH   1  34
HETATM   34  C   UNL     1      16.849  52.214  49.693  1.00  0.00     0.273 C 
BRANCH  34  35
HETATM   35  C   UNL     1      15.993  52.595  48.516  1.00  0.00    -0.033 A 
HETATM   36  C   UNL     1      16.239  52.048  47.246  1.00  0.00     0.009 A 
HETATM   37  C   UNL     1      15.458  52.418  46.151  1.00  0.00     0.001 A 
HETATM   38  C   UNL     1      14.420  53.332  46.311  1.00  0.00     0.000 A 
HETATM   39  C   UNL     1      14.155  53.873  47.567  1.00  0.00     0.001 A 
HETATM   40  C   UNL     1      14.934  53.505  48.665  1.00  0.00     0.009 A 
ENDBRANCH  34  35
ENDBRANCH   1  34
TORSDOF 7
ENDMDL
MODEL 4
REMARK VINA RESULT:      -9.7      2.063      3.362
REMARK  7 active torsions:
REMARK  status: ('A' for Active; 'I' for Inactive)
REMARK    1  A    between atoms: C_4  and  C_5 
REMARK    2  A    between atoms: C_5  and  N_6 
REMARK    3  A    between atoms: C_14  and  C_15 
REMARK    4  A    between atoms: C_18  and  O_19 
REMARK    5  A    between atoms: O_19  and  C_20 
REMARK    6  A    between atoms: C_20  and  C_21 
REMARK    7  A    between atoms: C_22  and  C_23 
ROOT
HETATM    1  N   UNL     1      26.619  44.049  52.118  1.00  0.00    -0.063 N 
HETATM    2  H   UNL     1      27.088  43.979  51.207  1.00  0.00     0.280 HD
HETATM    3  C   UNL     1      25.150  43.791  51.822  1.00  0.00     0.282 C 
HETATM    4  C   UNL     1      24.628  44.868  50.933  1.00  0.00     0.018 A 
HETATM    5  C   UNL     1      25.213  46.111  50.773  1.00  0.00    -0.023 A 
HETATM    6  C   UNL     1      24.473  46.913  49.844  1.00  0.00     0.073 A 
HETATM    7  C   UNL     1      23.382  46.242  49.347  1.00  0.00     0.088 A 
HETATM    8  N   UNL     1      22.546  46.758  48.427  1.00  0.00    -0.358 N 
HETATM    9  C   UNL     1      22.596  48.168  48.104  1.00  0.00     0.219 C 
HETATM   10  N   UNL     1      23.845  48.773  48.493  1.00  0.00    -0.332 N 
HETATM   11  C   UNL     1      24.743  48.260  49.383  1.00  0.00     0.256 C 
HETATM   12  O   UNL     1      25.719  48.901  49.755  1.00  0.00    -0.267 OA
HETATM   13  S   UNL     1      23.214  44.683  50.007  1.00  0.00    -0.074 SA
HETATM   14  C   UNL     1      26.485  46.483  51.478  1.00  0.00     0.068 C 
HETATM   15  C   UNL     1      26.836  45.480  52.595  1.00  0.00     0.240 C 
HETATM   16  H   UNL     1      21.647  46.315  48.260  1.00  0.00     0.162 HD
HETATM   17  H   UNL     1      24.011  49.729  48.217  1.00  0.00     0.165 HD
ENDROOT
BRANCH   9  18
HETATM   18  C   UNL     1      21.387  48.880  48.680  1.00  0.00    -0.016 A 
HETATM   19  C   UNL     1      21.423  50.235  49.052  1.00  0.00     0.014 A 
HETATM   20  C   UNL     1      20.305  50.854  49.623  1.00  0.00     0.038 A 
HETATM   21  C   UNL     1      19.153  50.110  49.851  1.00  0.00     0.079 A 
HETATM   22  C   UNL     1      19.087  48.770  49.474  1.00  0.00     0.038 A 
HETATM   23  C   UNL     1      20.200  48.156  48.899  1.00  0.00     0.014 A 
BRANCH  21  24
HETATM   24  O   UNL     1      17.974  50.640  50.411  1.00  0.00    -0.276 OA
BRANCH  24  25
HETATM   25  C   UNL     1      17.175  51.528  49.704  1.00  0.00     0.288 C 
HETATM   26  O   UNL     1      16.480  52.423  50.159  1.00  0.00    -0.260 OA
BRANCH  25  27
HETATM   27  C   UNL     1      17.247  51.253  48.252  1.00  0.00     0.085 C 
HETATM   28  C   UNL     1      17.685  52.133  47.340  1.00  0.00     0.043 C 
BRANCH  28  29
HETATM   29  C   UNL     1      17.769  51.776  45.967  1.00  0.00     0.075 A 
HETATM   30  O   UNL     1      17.175  52.486  44.945  1.00  0.00    -0.323 OA
HETATM   31  C   UNL     1      17.453  51.865  43.773  1.00  0.00     0.142 A 
HETATM   32  C   UNL     1      18.220  50.751  43.993  1.00  0.00     0.027 A 
HETATM   33  C   UNL     1      18.425  50.693  45.392  1.00  0.00     0.039 A 
ENDBRANCH  28  29
ENDBRANCH  25  27
ENDBRANCH  24  25
ENDBRANCH  21  24
ENDBRANCH   9  18
BRANCH   1  34
HETATM   34  C   UNL     1      27.259  42.994  52.981  1.00  0.00     0.273 C 
BRANCH  34  35
HETATM   35  C   UNL     1      28.367  43.467  53.883  1.00  0.00    -0.033 A 
HETATM   36  C   UNL     1      29.620  42.832  53.868  1.00  0.00     0.009 A 
HETATM   37  C   UNL     1      30.639  43.258  54.721  1.00  0.00     0.001 A 
HETATM   38  C   UNL     1      30.422  44.323  55.591  1.00  0.00     0.000 A 
HETATM   39  C   UNL     1      29.189  44.970  55.606  1.00  0.00     0.001 A 
HETATM   40  C   UNL     1      28.167  44.548  54.756  1.00  0.00     0.009 A 
ENDBRANCH  34  35
ENDBRANCH   1  34
TORSDOF 7
ENDMDL
MODEL 5
REMARK VINA RESULT:      -9.5     21.305     26.028
REMARK  7 active torsions:
REMARK  status: ('A' for Active; 'I' for Inactive)
REMARK    1  A    between atoms: C_4  and  C_5 
REMARK    2  A    between atoms: C_5  and  N_6 
REMARK    3  A    between atoms: C_14  and  C_15 
REMARK    4  A    between atoms: C_18  and  O_19 
REMARK    5  A    between atoms: O_19  and  C_20 
REMARK    6  A    between atoms: C_20  and  C_21 
REMARK    7  A    between atoms: C_22  and  C_23 
ROOT
HETATM    1  N   UNL     1      37.473  49.470  67.399  1.00  0.00    -0.063 N 
HETATM    2  H   UNL     1      37.455  49.956  66.495  1.00  0.00     0.280 HD
HETATM    3  C   UNL     1      38.810  48.744  67.426  1.00  0.00     0.282 C 
HETATM    4  C   UNL     1      38.841  47.726  66.337  1.00  0.00     0.018 A 
HETATM    5  C   UNL     1      37.723  47.205  65.710  1.00  0.00    -0.023 A 
HETATM    6  C   UNL     1      38.092  46.256  64.703  1.00  0.00     0.073 A 
HETATM    7  C   UNL     1      39.455  46.114  64.612  1.00  0.00     0.088 A 
HETATM    8  N   UNL     1      40.061  45.312  63.716  1.00  0.00    -0.358 N 
HETATM    9  C   UNL     1      39.294  44.341  62.966  1.00  0.00     0.219 C 
HETATM   10  N   UNL     1      37.886  44.651  62.953  1.00  0.00    -0.332 N 
HETATM   11  C   UNL     1      37.242  45.495  63.810  1.00  0.00     0.256 C 
HETATM   12  O   UNL     1      36.020  45.603  63.811  1.00  0.00    -0.267 OA
HETATM   13  S   UNL     1      40.293  47.071  65.741  1.00  0.00    -0.074 SA
HETATM   14  C   UNL     1      36.336  47.660  66.063  1.00  0.00     0.068 C 
HETATM   15  C   UNL     1      36.315  48.479  67.369  1.00  0.00     0.240 C 
HETATM   16  H   UNL     1      41.043  45.079  63.833  1.00  0.00     0.162 HD
HETATM   17  H   UNL     1      37.285  44.088  62.371  1.00  0.00     0.165 HD
ENDROOT
BRANCH   9  18
HETATM   18  C   UNL     1      39.588  42.941  63.469  1.00  0.00    -0.016 A 
HETATM   19  C   UNL     1      39.260  41.793  62.725  1.00  0.00     0.014 A 
HETATM   20  C   UNL     1      39.503  40.513  63.234  1.00  0.00     0.038 A 
HETATM   21  C   UNL     1      40.048  40.373  64.506  1.00  0.00     0.079 A 
HETATM   22  C   UNL     1      40.398  41.496  65.255  1.00  0.00     0.038 A 
HETATM   23  C   UNL     1      40.162  42.772  64.742  1.00  0.00     0.014 A 
BRANCH  21  24
HETATM   24  O   UNL     1      40.338  39.132  65.104  1.00  0.00    -0.276 OA
BRANCH  24  25
HETATM   25  C   UNL     1      41.515  38.454  64.825  1.00  0.00     0.288 C 
HETATM   26  O   UNL     1      42.582  38.935  64.473  1.00  0.00    -0.260 OA
BRANCH  25  27
HETATM   27  C   UNL     1      41.332  36.996  64.996  1.00  0.00     0.085 C 
HETATM   28  C   UNL     1      40.842  36.424  66.105  1.00  0.00     0.043 C 
BRANCH  28  29
HETATM   29  C   UNL     1      40.651  35.017  66.175  1.00  0.00     0.075 A 
HETATM   30  O   UNL     1      41.670  34.093  66.092  1.00  0.00    -0.323 OA
HETATM   31  C   UNL     1      41.134  32.852  66.189  1.00  0.00     0.142 A 
HETATM   32  C   UNL     1      39.773  32.930  66.334  1.00  0.00     0.027 A 
HETATM   33  C   UNL     1      39.463  34.311  66.328  1.00  0.00     0.039 A 
ENDBRANCH  28  29
ENDBRANCH  25  27
ENDBRANCH  24  25
ENDBRANCH  21  24
ENDBRANCH   9  18
BRANCH   1  34
HETATM   34  C   UNL     1      37.349  50.551  68.440  1.00  0.00     0.273 C 
BRANCH  34  35
HETATM   35  C   UNL     1      37.382  51.965  67.924  1.00  0.00    -0.033 A 
HETATM   36  C   UNL     1      36.984  53.033  68.744  1.00  0.00     0.009 A 
HETATM   37  C   UNL     1      36.994  54.341  68.257  1.00  0.00     0.001 A 
HETATM   38  C   UNL     1      37.406  54.597  66.953  1.00  0.00     0.000 A 
HETATM   39  C   UNL     1      37.817  53.549  66.133  1.00  0.00     0.001 A 
HETATM   40  C   UNL     1      37.808  52.240  66.615  1.00  0.00     0.009 A 
ENDBRANCH  34  35
ENDBRANCH   1  34
TORSDOF 7
ENDMDL
MODEL 6
REMARK VINA RESULT:      -9.5      2.477      2.997
REMARK  7 active torsions:
REMARK  status: ('A' for Active; 'I' for Inactive)
REMARK    1  A    between atoms: C_4  and  C_5 
REMARK    2  A    between atoms: C_5  and  N_6 
REMARK    3  A    between atoms: C_14  and  C_15 
REMARK    4  A    between atoms: C_18  and  O_19 
REMARK    5  A    between atoms: O_19  and  C_20 
REMARK    6  A    between atoms: C_20  and  C_21 
REMARK    7  A    between atoms: C_22  and  C_23 
ROOT
HETATM    1  N   UNL     1      24.039  43.025  48.905  1.00  0.00    -0.063 N 
HETATM    2  H   UNL     1      24.804  43.418  48.344  1.00  0.00     0.280 HD
HETATM    3  C   UNL     1      22.767  43.462  48.195  1.00  0.00     0.282 C 
HETATM    4  C   UNL     1      22.668  44.949  48.229  1.00  0.00     0.018 A 
HETATM    5  C   UNL     1      23.341  45.765  49.122  1.00  0.00    -0.023 A 
HETATM    6  C   UNL     1      23.038  47.145  48.887  1.00  0.00     0.073 A 
HETATM    7  C   UNL     1      22.168  47.304  47.836  1.00  0.00     0.088 A 
HETATM    8  N   UNL     1      21.756  48.504  47.386  1.00  0.00    -0.358 N 
HETATM    9  C   UNL     1      22.000  49.700  48.164  1.00  0.00     0.219 C 
HETATM   10  N   UNL     1      23.052  49.515  49.132  1.00  0.00    -0.332 N 
HETATM   11  C   UNL     1      23.533  48.319  49.577  1.00  0.00     0.256 C 
HETATM   12  O   UNL     1      24.340  48.251  50.497  1.00  0.00    -0.267 OA
HETATM   13  S   UNL     1      21.682  45.823  47.155  1.00  0.00    -0.074 SA
HETATM   14  C   UNL     1      24.286  45.205  50.145  1.00  0.00     0.068 C 
HETATM   15  C   UNL     1      24.148  43.676  50.280  1.00  0.00     0.240 C 
HETATM   16  H   UNL     1      20.957  48.560  46.761  1.00  0.00     0.162 HD
HETATM   17  H   UNL     1      23.362  50.324  49.651  1.00  0.00     0.165 HD
ENDROOT
BRANCH   9  18
HETATM   18  C   UNL     1      20.706  50.195  48.782  1.00  0.00    -0.016 A 
HETATM   19  C   UNL     1      19.864  49.353  49.530  1.00  0.00     0.014 A 
HETATM   20  C   UNL     1      18.654  49.825  50.050  1.00  0.00     0.038 A 
HETATM   21  C   UNL     1      18.266  51.137  49.800  1.00  0.00     0.079 A 
HETATM   22  C   UNL     1      19.093  51.996  49.077  1.00  0.00     0.038 A 
HETATM   23  C   UNL     1      20.302  51.525  48.564  1.00  0.00     0.014 A 
BRANCH  21  24
HETATM   24  O   UNL     1      17.074  51.710  50.285  1.00  0.00    -0.276 OA
BRANCH  24  25
HETATM   25  C   UNL     1      15.936  51.784  49.496  1.00  0.00     0.288 C 
HETATM   26  O   UNL     1      15.698  51.153  48.477  1.00  0.00    -0.260 OA
BRANCH  25  27
HETATM   27  C   UNL     1      14.985  52.778  50.041  1.00  0.00     0.085 C 
HETATM   28  C   UNL     1      15.352  53.897  50.683  1.00  0.00     0.043 C 
BRANCH  28  29
HETATM   29  C   UNL     1      14.378  54.827  51.137  1.00  0.00     0.075 A 
HETATM   30  O   UNL     1      13.019  54.597  51.116  1.00  0.00    -0.323 OA
HETATM   31  C   UNL     1      12.391  55.690  51.614  1.00  0.00     0.142 A 
HETATM   32  C   UNL     1      13.306  56.648  51.966  1.00  0.00     0.027 A 
HETATM   33  C   UNL     1      14.575  56.099  51.665  1.00  0.00     0.039 A 
ENDBRANCH  28  29
ENDBRANCH  25  27
ENDBRANCH  24  25
ENDBRANCH  21  24
ENDBRANCH   9  18
BRANCH   1  34
HETATM   34  C   UNL     1      24.259  41.535  48.896  1.00  0.00     0.273 C 
BRANCH  34  35
HETATM   35  C   UNL     1      25.685  41.081  49.054  1.00  0.00    -0.033 A 
HETATM   36  C   UNL     1      26.596  41.203  47.992  1.00  0.00     0.009 A 
HETATM   37  C   UNL     1      27.911  40.761  48.134  1.00  0.00     0.001 A 
HETATM   38  C   UNL     1      28.334  40.199  49.335  1.00  0.00     0.000 A 
HETATM   39  C   UNL     1      27.445  40.083  50.401  1.00  0.00     0.001 A 
HETATM   40  C   UNL     1      26.129  40.524  50.264  1.00  0.00     0.009 A 
ENDBRANCH  34  35
ENDBRANCH   1  34
TORSDOF 7
ENDMDL
MODEL 7
REMARK VINA RESULT:      -9.4      3.880     12.645
REMARK  7 active torsions:
REMARK  status: ('A' for Active; 'I' for Inactive)
REMARK    1  A    between atoms: C_4  and  C_5 
REMARK    2  A    between atoms: C_5  and  N_6 
REMARK    3  A    between atoms: C_14  and  C_15 
REMARK    4  A    between atoms: C_18  and  O_19 
REMARK    5  A    between atoms: O_19  and  C_20 
REMARK    6  A    between atoms: C_20  and  C_21 
REMARK    7  A    between atoms: C_22  and  C_23 
ROOT
HETATM    1  N   UNL     1      17.843  50.055  48.133  1.00  0.00    -0.063 N 
HETATM    2  H   UNL     1      17.777  49.727  47.162  1.00  0.00     0.280 HD
HETATM    3  C   UNL     1      19.329  50.275  48.372  1.00  0.00     0.282 C 
HETATM    4  C   UNL     1      20.046  48.973  48.259  1.00  0.00     0.018 A 
HETATM    5  C   UNL     1      19.449  47.730  48.374  1.00  0.00    -0.023 A 
HETATM    6  C   UNL     1      20.409  46.680  48.208  1.00  0.00     0.073 A 
HETATM    7  C   UNL     1      21.669  47.174  47.969  1.00  0.00     0.088 A 
HETATM    8  N   UNL     1      22.742  46.395  47.737  1.00  0.00    -0.358 N 
HETATM    9  C   UNL     1      22.682  44.972  47.995  1.00  0.00     0.219 C 
HETATM   10  N   UNL     1      21.327  44.486  48.056  1.00  0.00    -0.332 N 
HETATM   11  C   UNL     1      20.208  45.246  48.239  1.00  0.00     0.256 C 
HETATM   12  O   UNL     1      19.105  44.738  48.409  1.00  0.00    -0.267 OA
HETATM   13  S   UNL     1      21.720  48.874  47.980  1.00  0.00    -0.074 SA
HETATM   14  C   UNL     1      17.972  47.581  48.599  1.00  0.00     0.068 C 
HETATM   15  C   UNL     1      17.314  48.916  48.999  1.00  0.00     0.240 C 
HETATM   16  H   UNL     1      23.674  46.797  47.784  1.00  0.00     0.162 HD
HETATM   17  H   UNL     1      21.187  43.489  48.131  1.00  0.00     0.165 HD
ENDROOT
BRANCH   9  18
HETATM   18  C   UNL     1      23.492  44.630  49.231  1.00  0.00    -0.016 A 
HETATM   19  C   UNL     1      24.405  45.535  49.801  1.00  0.00     0.014 A 
HETATM   20  C   UNL     1      25.171  45.176  50.916  1.00  0.00     0.038 A 
HETATM   21  C   UNL     1      25.049  43.897  51.448  1.00  0.00     0.079 A 
HETATM   22  C   UNL     1      24.137  42.989  50.911  1.00  0.00     0.038 A 
HETATM   23  C   UNL     1      23.369  43.351  49.804  1.00  0.00     0.014 A 
BRANCH  21  24
HETATM   24  O   UNL     1      25.766  43.442  52.571  1.00  0.00    -0.276 OA
BRANCH  24  25
HETATM   25  C   UNL     1      25.596  44.021  53.820  1.00  0.00     0.288 C 
HETATM   26  O   UNL     1      24.577  44.520  54.272  1.00  0.00    -0.260 OA
BRANCH  25  27
HETATM   27  C   UNL     1      26.858  43.982  54.591  1.00  0.00     0.085 C 
HETATM   28  C   UNL     1      28.002  44.556  54.192  1.00  0.00     0.043 C 
BRANCH  28  29
HETATM   29  C   UNL     1      29.162  44.514  55.013  1.00  0.00     0.075 A 
HETATM   30  O   UNL     1      29.492  45.483  55.936  1.00  0.00    -0.323 OA
HETATM   31  C   UNL     1      30.656  45.128  56.533  1.00  0.00     0.142 A 
HETATM   32  C   UNL     1      31.112  43.940  56.023  1.00  0.00     0.027 A 
HETATM   33  C   UNL     1      30.159  43.545  55.055  1.00  0.00     0.039 A 
ENDBRANCH  28  29
ENDBRANCH  25  27
ENDBRANCH  24  25
ENDBRANCH  21  24
ENDBRANCH   9  18
BRANCH   1  34
HETATM   34  C   UNL     1      17.025  51.318  48.187  1.00  0.00     0.273 C 
BRANCH  34  35
HETATM   35  C   UNL     1      16.580  51.869  46.860  1.00  0.00    -0.033 A 
HETATM   36  C   UNL     1      15.220  51.880  46.510  1.00  0.00     0.009 A 
HETATM   37  C   UNL     1      14.812  52.371  45.270  1.00  0.00     0.001 A 
HETATM   38  C   UNL     1      15.753  52.862  44.369  1.00  0.00     0.000 A 
HETATM   39  C   UNL     1      17.104  52.870  44.707  1.00  0.00     0.001 A 
HETATM   40  C   UNL     1      17.517  52.380  45.947  1.00  0.00     0.009 A 
ENDBRANCH  34  35
ENDBRANCH   1  34
TORSDOF 7
ENDMDL
MODEL 8
REMARK VINA RESULT:      -9.4      5.156     13.511
REMARK  7 active torsions:
REMARK  status: ('A' for Active; 'I' for Inactive)
REMARK    1  A    between atoms: C_4  and  C_5 
REMARK    2  A    between atoms: C_5  and  N_6 
REMARK    3  A    between atoms: C_14  and  C_15 
REMARK    4  A    between atoms: C_18  and  O_19 
REMARK    5  A    between atoms: O_19  and  C_20 
REMARK    6  A    between atoms: C_20  and  C_21 
REMARK    7  A    between atoms: C_22  and  C_23 
ROOT
HETATM    1  N   UNL     1      22.387  48.536  48.573  1.00  0.00    -0.063 N 
HETATM    2  H   UNL     1      21.952  48.507  49.504  1.00  0.00     0.280 HD
HETATM    3  C   UNL     1      22.251  47.120  48.034  1.00  0.00     0.282 C 
HETATM    4  C   UNL     1      23.029  46.186  48.896  1.00  0.00     0.018 A 
HETATM    5  C   UNL     1      24.054  46.564  49.745  1.00  0.00    -0.023 A 
HETATM    6  C   UNL     1      24.592  45.432  50.439  1.00  0.00     0.073 A 
HETATM    7  C   UNL     1      23.951  44.268  50.090  1.00  0.00     0.088 A 
HETATM    8  N   UNL     1      24.240  43.069  50.629  1.00  0.00    -0.358 N 
HETATM    9  C   UNL     1      25.439  42.892  51.420  1.00  0.00     0.219 C 
HETATM   10  N   UNL     1      25.961  44.145  51.906  1.00  0.00    -0.332 N 
HETATM   11  C   UNL     1      25.656  45.384  51.421  1.00  0.00     0.256 C 
HETATM   12  O   UNL     1      26.244  46.389  51.806  1.00  0.00    -0.267 OA
HETATM   13  S   UNL     1      22.742  44.510  48.918  1.00  0.00    -0.074 SA
HETATM   14  C   UNL     1      24.460  48.000  49.902  1.00  0.00     0.068 C 
HETATM   15  C   UNL     1      23.851  48.893  48.803  1.00  0.00     0.240 C 
HETATM   16  H   UNL     1      23.895  42.222  50.186  1.00  0.00     0.162 HD
HETATM   17  H   UNL     1      26.736  44.114  52.550  1.00  0.00     0.165 HD
ENDROOT
BRANCH   9  18
HETATM   18  C   UNL     1      26.462  42.083  50.646  1.00  0.00    -0.016 A 
HETATM   19  C   UNL     1      26.466  42.030  49.241  1.00  0.00     0.014 A 
HETATM   20  C   UNL     1      27.395  41.239  48.555  1.00  0.00     0.038 A 
HETATM   21  C   UNL     1      28.307  40.474  49.273  1.00  0.00     0.079 A 
HETATM   22  C   UNL     1      28.334  40.526  50.666  1.00  0.00     0.038 A 
HETATM   23  C   UNL     1      27.412  41.319  51.348  1.00  0.00     0.014 A 
BRANCH  21  24
HETATM   24  O   UNL     1      29.285  39.655  48.678  1.00  0.00    -0.276 OA
BRANCH  24  25
HETATM   25  C   UNL     1      29.492  38.351  49.106  1.00  0.00     0.288 C 
HETATM   26  O   UNL     1      30.495  37.895  49.634  1.00  0.00    -0.260 OA
BRANCH  25  27
HETATM   27  C   UNL     1      28.303  37.515  48.829  1.00  0.00     0.085 C 
HETATM   28  C   UNL     1      27.868  37.210  47.597  1.00  0.00     0.043 C 
BRANCH  28  29
HETATM   29  C   UNL     1      26.744  36.360  47.413  1.00  0.00     0.075 A 
HETATM   30  O   UNL     1      26.829  35.024  47.087  1.00  0.00    -0.323 OA
HETATM   31  C   UNL     1      25.572  34.526  46.985  1.00  0.00     0.142 A 
HETATM   32  C   UNL     1      24.648  35.507  47.234  1.00  0.00     0.027 A 
HETATM   33  C   UNL     1      25.393  36.678  47.510  1.00  0.00     0.039 A 
ENDBRANCH  28  29
ENDBRANCH  25  27
ENDBRANCH  24  25
ENDBRANCH  21  24
ENDBRANCH   9  18
BRANCH   1  34
HETATM   34  C   UNL     1      21.604  49.560  47.795  1.00  0.00     0.273 C 
BRANCH  34  35
HETATM   35  C   UNL     1      20.509  50.263  48.551  1.00  0.00    -0.033 A 
HETATM   36  C   UNL     1      19.785  49.591  49.548  1.00  0.00     0.009 A 
HETATM   37  C   UNL     1      18.755  50.238  50.233  1.00  0.00     0.001 A 
HETATM   38  C   UNL     1      18.442  51.561  49.935  1.00  0.00     0.000 A 
HETATM   39  C   UNL     1      19.161  52.244  48.958  1.00  0.00     0.001 A 
HETATM   40  C   UNL     1      20.192  51.601  48.271  1.00  0.00     0.009 A 
ENDBRANCH  34  35
ENDBRANCH   1  34
TORSDOF 7
ENDMDL
MODEL 9
REMARK VINA RESULT:      -9.3     10.407     12.386
REMARK  7 active torsions:
REMARK  status: ('A' for Active; 'I' for Inactive)
REMARK    1  A    between atoms: C_4  and  C_5 
REMARK    2  A    between atoms: C_5  and  N_6 
REMARK    3  A    between atoms: C_14  and  C_15 
REMARK    4  A    between atoms: C_18  and  O_19 
REMARK    5  A    between atoms: O_19  and  C_20 
REMARK    6  A    between atoms: C_20  and  C_21 
REMARK    7  A    between atoms: C_22  and  C_23 
ROOT
HETATM    1  N   UNL     1      28.562  43.825  53.655  1.00  0.00    -0.063 N 
HETATM    2  H   UNL     1      28.137  43.142  54.294  1.00  0.00     0.280 HD
HETATM    3  C   UNL     1      27.559  43.976  52.521  1.00  0.00     0.282 C 
HETATM    4  C   UNL     1      27.423  42.676  51.806  1.00  0.00     0.018 A 
HETATM    5  C   UNL     1      28.351  41.650  51.848  1.00  0.00    -0.023 A 
HETATM    6  C   UNL     1      27.921  40.533  51.061  1.00  0.00     0.073 A 
HETATM    7  C   UNL     1      26.699  40.762  50.475  1.00  0.00     0.088 A 
HETATM    8  N   UNL     1      26.055  39.855  49.718  1.00  0.00    -0.358 N 
HETATM    9  C   UNL     1      26.743  38.670  49.252  1.00  0.00     0.219 C 
HETATM   10  N   UNL     1      27.924  38.386  50.028  1.00  0.00    -0.332 N 
HETATM   11  C   UNL     1      28.578  39.260  50.846  1.00  0.00     0.256 C 
HETATM   12  O   UNL     1      29.650  38.975  51.368  1.00  0.00    -0.267 OA
HETATM   13  S   UNL     1      26.083  42.308  50.826  1.00  0.00    -0.074 SA
HETATM   14  C   UNL     1      29.601  41.750  52.673  1.00  0.00     0.068 C 
HETATM   15  C   UNL     1      29.856  43.191  53.158  1.00  0.00     0.240 C 
HETATM   16  H   UNL     1      25.273  40.148  49.139  1.00  0.00     0.162 HD
HETATM   17  H   UNL     1      28.413  37.523  49.842  1.00  0.00     0.165 HD
ENDROOT
BRANCH   9  18
HETATM   18  C   UNL     1      27.022  38.778  47.765  1.00  0.00    -0.016 A 
HETATM   19  C   UNL     1      28.078  38.082  47.149  1.00  0.00     0.014 A 
HETATM   20  C   UNL     1      28.339  38.236  45.783  1.00  0.00     0.038 A 
HETATM   21  C   UNL     1      27.562  39.111  45.031  1.00  0.00     0.079 A 
HETATM   22  C   UNL     1      26.499  39.797  45.616  1.00  0.00     0.038 A 
HETATM   23  C   UNL     1      26.236  39.638  46.977  1.00  0.00     0.014 A 
BRANCH  21  24
HETATM   24  O   UNL     1      27.738  39.329  43.651  1.00  0.00    -0.276 OA
BRANCH  24  25
HETATM   25  C   UNL     1      28.877  39.949  43.158  1.00  0.00     0.288 C 
HETATM   26  O   UNL     1      29.998  39.472  43.061  1.00  0.00    -0.260 OA
BRANCH  25  27
HETATM   27  C   UNL     1      28.579  41.339  42.748  1.00  0.00     0.085 C 
HETATM   28  C   UNL     1      27.578  41.682  41.924  1.00  0.00     0.043 C 
BRANCH  28  29
HETATM   29  C   UNL     1      27.327  43.046  41.614  1.00  0.00     0.075 A 
HETATM   30  O   UNL     1      28.030  43.769  40.675  1.00  0.00    -0.323 OA
HETATM   31  C   UNL     1      27.533  45.030  40.642  1.00  0.00     0.142 A 
HETATM   32  C   UNL     1      26.510  45.163  41.545  1.00  0.00     0.027 A 
HETATM   33  C   UNL     1      26.375  43.899  42.165  1.00  0.00     0.039 A 
ENDBRANCH  28  29
ENDBRANCH  25  27
ENDBRANCH  24  25
ENDBRANCH  21  24
ENDBRANCH   9  18
BRANCH   1  34
HETATM   34  C   UNL     1      28.748  45.077  54.471  1.00  0.00     0.273 C 
BRANCH  34  35
HETATM   35  C   UNL     1      29.569  44.928  55.723  1.00  0.00    -0.033 A 
HETATM   36  C   UNL     1      29.386  45.803  56.806  1.00  0.00     0.009 A 
HETATM   37  C   UNL     1      30.164  45.676  57.958  1.00  0.00     0.001 A 
HETATM   38  C   UNL     1      31.126  44.675  58.044  1.00  0.00     0.000 A 
HETATM   39  C   UNL     1      31.310  43.792  56.983  1.00  0.00     0.001 A 
HETATM   40  C   UNL     1      30.534  43.914  55.830  1.00  0.00     0.009 A 
ENDBRANCH  34  35
ENDBRANCH   1  34
TORSDOF 7
ENDMDL
MODEL 10
REMARK VINA RESULT:      -9.0     10.507     14.404
REMARK  7 active torsions:
REMARK  status: ('A' for Active; 'I' for Inactive)
REMARK    1  A    between atoms: C_4  and  C_5 
REMARK    2  A    between atoms: C_5  and  N_6 
REMARK    3  A    between atoms: C_14  and  C_15 
REMARK    4  A    between atoms: C_18  and  O_19 
REMARK    5  A    between atoms: O_19  and  C_20 
REMARK    6  A    between atoms: C_20  and  C_21 
REMARK    7  A    between atoms: C_22  and  C_23 
ROOT
HETATM    1  N   UNL     1      28.582  44.026  53.852  1.00  0.00    -0.063 N 
HETATM    2  H   UNL     1      28.044  43.350  54.409  1.00  0.00     0.280 HD
HETATM    3  C   UNL     1      27.711  44.315  52.639  1.00  0.00     0.282 C 
HETATM    4  C   UNL     1      27.545  43.066  51.842  1.00  0.00     0.018 A 
HETATM    5  C   UNL     1      28.381  41.967  51.913  1.00  0.00    -0.023 A 
HETATM    6  C   UNL     1      27.945  40.929  51.027  1.00  0.00     0.073 A 
HETATM    7  C   UNL     1      26.809  41.287  50.342  1.00  0.00     0.088 A 
HETATM    8  N   UNL     1      26.174  40.475  49.477  1.00  0.00    -0.358 N 
HETATM    9  C   UNL     1      26.811  39.261  49.012  1.00  0.00     0.219 C 
HETATM   10  N   UNL     1      27.883  38.842  49.879  1.00  0.00    -0.332 N 
HETATM   11  C   UNL     1      28.520  39.618  50.803  1.00  0.00     0.256 C 
HETATM   12  O   UNL     1      29.509  39.220  51.408  1.00  0.00    -0.267 OA
HETATM   13  S   UNL     1      26.284  42.860  50.720  1.00  0.00    -0.074 SA
HETATM   14  C   UNL     1      29.548  41.921  52.857  1.00  0.00     0.068 C 
HETATM   15  C   UNL     1      29.865  43.311  53.445  1.00  0.00     0.240 C 
HETATM   16  H   UNL     1      25.479  40.860  48.844  1.00  0.00     0.162 HD
HETATM   17  H   UNL     1      28.319  37.951  49.692  1.00  0.00     0.165 HD
ENDROOT
BRANCH   9  18
HETATM   18  C   UNL     1      27.243  39.418  47.567  1.00  0.00    -0.016 A 
HETATM   19  C   UNL     1      27.742  40.632  47.062  1.00  0.00     0.014 A 
HETATM   20  C   UNL     1      28.091  40.760  45.713  1.00  0.00     0.038 A 
HETATM   21  C   UNL     1      27.914  39.681  44.854  1.00  0.00     0.079 A 
HETATM   22  C   UNL     1      27.439  38.462  45.335  1.00  0.00     0.038 A 
HETATM   23  C   UNL     1      27.097  38.334  46.682  1.00  0.00     0.014 A 
BRANCH  21  24
HETATM   24  O   UNL     1      28.242  39.706  43.485  1.00  0.00    -0.276 OA
BRANCH  24  25
HETATM   25  C   UNL     1      29.431  40.263  43.038  1.00  0.00     0.288 C 
HETATM   26  O   UNL     1      29.662  41.443  42.824  1.00  0.00    -0.260 OA
BRANCH  25  27
HETATM   27  C   UNL     1      30.451  39.213  42.821  1.00  0.00     0.085 C 
HETATM   28  C   UNL     1      30.180  37.984  42.358  1.00  0.00     0.043 C 
BRANCH  28  29
HETATM   29  C   UNL     1      31.223  37.046  42.131  1.00  0.00     0.075 A 
HETATM   30  O   UNL     1      31.248  35.774  42.661  1.00  0.00    -0.323 OA
HETATM   31  C   UNL     1      32.383  35.159  42.247  1.00  0.00     0.142 A 
HETATM   32  C   UNL     1      33.119  35.998  41.451  1.00  0.00     0.027 A 
HETATM   33  C   UNL     1      32.379  37.202  41.373  1.00  0.00     0.039 A 
ENDBRANCH  28  29
ENDBRANCH  25  27
ENDBRANCH  24  25
ENDBRANCH  21  24
ENDBRANCH   9  18
BRANCH   1  34
HETATM   34  C   UNL     1      28.784  45.216  54.752  1.00  0.00     0.273 C 
BRANCH  34  35
HETATM   35  C   UNL     1      29.693  45.001  55.931  1.00  0.00    -0.033 A 
HETATM   36  C   UNL     1      30.636  43.960  55.926  1.00  0.00     0.009 A 
HETATM   37  C   UNL     1      31.464  43.749  57.029  1.00  0.00     0.001 A 
HETATM   38  C   UNL     1      31.365  44.574  58.145  1.00  0.00     0.000 A 
HETATM   39  C   UNL     1      30.443  45.619  58.160  1.00  0.00     0.001 A 
HETATM   40  C   UNL     1      29.614  45.834  57.059  1.00  0.00     0.009 A 
ENDBRANCH  34  35
ENDBRANCH   1  34
TORSDOF 7
ENDMDL
