MODEL 1
REMARK VINA RESULT:      -9.4      0.000      0.000
REMARK  4 active torsions:
REMARK  status: ('A' for Active; 'I' for Inactive)
REMARK    1  A    between atoms: C_6  and  C_7 
REMARK       I    between atoms: C_7  and  N_8 
REMARK    2  A    between atoms: N_8  and  C_9 
REMARK    3  A    between atoms: C_16  and  C_17 
REMARK       I    between atoms: C_17  and  N_18 
REMARK    4  A    between atoms: C_25  and  O_26 
ROOT
HETATM    1  C   UNL     1      26.165  45.988  52.068  1.00  0.00     0.259 C 
HETATM    2  N   UNL     1      26.451  46.290  50.749  1.00  0.00    -0.323 N 
HETATM    3  O   UNL     1      25.409  46.620  52.795  1.00  0.00    -0.267 OA
HETATM    4  H   UNL     1      27.036  45.633  50.257  1.00  0.00     0.169 HD
ENDROOT
BRANCH   2   5
HETATM    5  C   UNL     1      25.951  47.364  49.979  1.00  0.00     0.036 A 
HETATM    6  C   UNL     1      24.606  47.502  49.609  1.00  0.00     0.046 A 
HETATM    7  C   UNL     1      24.210  48.599  48.812  1.00  0.00     0.030 A 
HETATM    8  C   UNL     1      25.165  49.533  48.432  1.00  0.00     0.063 A 
HETATM    9  C   UNL     1      22.992  49.055  48.220  1.00  0.00     0.156 A 
HETATM   10  N   UNL     1      24.491  50.462  47.690  1.00  0.00    -0.277 N 
HETATM   11  C   UNL     1      26.510  49.434  48.792  1.00  0.00     0.034 A 
HETATM   12  H   UNL     1      24.872  51.293  47.253  1.00  0.00     0.189 HD
HETATM   13  N   UNL     1      23.183  50.205  47.534  1.00  0.00    -0.168 NA
HETATM   14  C   UNL     1      26.883  48.326  49.565  1.00  0.00     0.032 A 
BRANCH   9  15
HETATM   15  C   UNL     1      21.671  48.416  48.283  1.00  0.00     0.270 C 
HETATM   16  N   UNL     1      21.057  48.518  49.502  1.00  0.00    -0.365 N 
HETATM   17  H   UNL     1      21.532  49.020  50.244  1.00  0.00     0.159 HD
HETATM   18  H   UNL     1      20.136  48.131  49.631  1.00  0.00     0.159 HD
HETATM   19  O   UNL     1      21.127  47.842  47.346  1.00  0.00    -0.266 OA
ENDBRANCH   9  15
ENDBRANCH   2   5
BRANCH   1  20
HETATM   20  C   UNL     1      26.824  44.778  52.554  1.00  0.00     0.074 A 
HETATM   21  C   UNL     1      26.509  43.506  52.092  1.00  0.00     0.066 A 
HETATM   22  C   UNL     1      25.535  43.001  51.099  1.00  0.00     0.078 C 
HETATM   23  O   UNL     1      27.294  42.568  52.686  1.00  0.00    -0.314 OA
HETATM   24  C   UNL     1      28.100  43.215  53.562  1.00  0.00     0.087 A 
HETATM   25  C   UNL     1      27.848  44.582  53.545  1.00  0.00     0.019 A 
HETATM   26  C   UNL     1      29.043  42.596  54.377  1.00  0.00     0.041 A 
HETATM   27  C   UNL     1      28.578  45.396  54.446  1.00  0.00     0.052 A 
HETATM   28  C   UNL     1      29.549  44.809  55.273  1.00  0.00     0.069 A 
HETATM   29  C   UNL     1      29.770  43.428  55.232  1.00  0.00     0.039 A 
BRANCH  28  30
HETATM   30  O   UNL     1      30.338  45.475  56.172  1.00  0.00    -0.356 OA
HETATM   31  C   UNL     1      29.731  45.891  57.388  1.00  0.00     0.210 C 
ENDBRANCH  28  30
ENDBRANCH   1  20
TORSDOF 4
ENDMDL
MODEL 2
REMARK VINA RESULT:      -9.4      4.486      7.616
REMARK  4 active torsions:
REMARK  status: ('A' for Active; 'I' for Inactive)
REMARK    1  A    between atoms: C_6  and  C_7 
REMARK       I    between atoms: C_7  and  N_8 
REMARK    2  A    between atoms: N_8  and  C_9 
REMARK    3  A    between atoms: C_16  and  C_17 
REMARK       I    between atoms: C_17  and  N_18 
REMARK    4  A    between atoms: C_25  and  O_26 
ROOT
HETATM    1  C   UNL     1      26.830  43.572  52.304  1.00  0.00     0.259 C 
HETATM    2  N   UNL     1      27.829  42.935  51.593  1.00  0.00    -0.323 N 
HETATM    3  O   UNL     1      25.632  43.339  52.213  1.00  0.00    -0.267 OA
HETATM    4  H   UNL     1      28.777  43.185  51.831  1.00  0.00     0.169 HD
ENDROOT
BRANCH   2   5
HETATM    5  C   UNL     1      27.688  41.909  50.631  1.00  0.00     0.036 A 
HETATM    6  C   UNL     1      28.248  40.631  50.763  1.00  0.00     0.046 A 
HETATM    7  C   UNL     1      28.074  39.682  49.731  1.00  0.00     0.030 A 
HETATM    8  C   UNL     1      27.327  40.034  48.614  1.00  0.00     0.063 A 
HETATM    9  C   UNL     1      28.500  38.341  49.482  1.00  0.00     0.156 A 
HETATM   10  N   UNL     1      27.329  38.928  47.811  1.00  0.00    -0.277 N 
HETATM   11  C   UNL     1      26.745  41.293  48.455  1.00  0.00     0.034 A 
HETATM   12  H   UNL     1      26.876  38.821  46.912  1.00  0.00     0.189 HD
HETATM   13  N   UNL     1      28.031  37.891  48.296  1.00  0.00    -0.168 NA
HETATM   14  C   UNL     1      26.949  42.223  49.482  1.00  0.00     0.032 A 
BRANCH   9  15
HETATM   15  C   UNL     1      29.347  37.497  50.335  1.00  0.00     0.270 C 
HETATM   16  N   UNL     1      28.697  36.423  50.882  1.00  0.00    -0.365 N 
HETATM   17  H   UNL     1      27.719  36.283  50.658  1.00  0.00     0.159 HD
HETATM   18  H   UNL     1      29.205  35.775  51.461  1.00  0.00     0.159 HD
HETATM   19  O   UNL     1      30.537  37.697  50.555  1.00  0.00    -0.266 OA
ENDBRANCH   9  15
ENDBRANCH   2   5
BRANCH   1  20
HETATM   20  C   UNL     1      27.322  44.567  53.254  1.00  0.00     0.074 A 
HETATM   21  C   UNL     1      26.765  45.834  53.382  1.00  0.00     0.066 A 
HETATM   22  C   UNL     1      25.649  46.523  52.695  1.00  0.00     0.078 C 
HETATM   23  O   UNL     1      27.389  46.542  54.359  1.00  0.00    -0.314 OA
HETATM   24  C   UNL     1      28.379  45.757  54.853  1.00  0.00     0.087 A 
HETATM   25  C   UNL     1      28.404  44.530  54.200  1.00  0.00     0.019 A 
HETATM   26  C   UNL     1      29.257  46.132  55.866  1.00  0.00     0.041 A 
HETATM   27  C   UNL     1      29.418  43.611  54.569  1.00  0.00     0.052 A 
HETATM   28  C   UNL     1      30.313  43.949  55.598  1.00  0.00     0.069 A 
HETATM   29  C   UNL     1      30.225  45.194  56.229  1.00  0.00     0.039 A 
BRANCH  28  30
HETATM   30  O   UNL     1      31.323  43.153  56.067  1.00  0.00    -0.356 OA
HETATM   31  C   UNL     1      31.855  43.464  57.349  1.00  0.00     0.210 C 
ENDBRANCH  28  30
ENDBRANCH   1  20
TORSDOF 4
ENDMDL
MODEL 3
REMARK VINA RESULT:      -9.3      4.206      8.190
REMARK  4 active torsions:
REMARK  status: ('A' for Active; 'I' for Inactive)
REMARK    1  A    between atoms: C_6  and  C_7 
REMARK       I    between atoms: C_7  and  N_8 
REMARK    2  A    between atoms: N_8  and  C_9 
REMARK    3  A    between atoms: C_16  and  C_17 
REMARK       I    between atoms: C_17  and  N_18 
REMARK    4  A    between atoms: C_25  and  O_26 
ROOT
HETATM    1  C   UNL     1      29.056  43.174  52.871  1.00  0.00     0.259 C 
HETATM    2  N   UNL     1      27.919  42.780  52.191  1.00  0.00    -0.323 N 
HETATM    3  O   UNL     1      30.190  42.763  52.660  1.00  0.00    -0.267 OA
HETATM    4  H   UNL     1      27.065  43.263  52.428  1.00  0.00     0.169 HD
ENDROOT
BRANCH   2   5
HETATM    5  C   UNL     1      27.821  41.841  51.139  1.00  0.00     0.036 A 
HETATM    6  C   UNL     1      28.368  40.552  51.188  1.00  0.00     0.046 A 
HETATM    7  C   UNL     1      28.240  39.696  50.071  1.00  0.00     0.030 A 
HETATM    8  C   UNL     1      27.550  40.148  48.954  1.00  0.00     0.063 A 
HETATM    9  C   UNL     1      28.672  38.377  49.730  1.00  0.00     0.156 A 
HETATM   10  N   UNL     1      27.587  39.114  48.061  1.00  0.00    -0.277 N 
HETATM   11  C   UNL     1      26.982  41.421  48.875  1.00  0.00     0.034 A 
HETATM   12  H   UNL     1      27.178  39.088  47.134  1.00  0.00     0.189 HD
HETATM   13  N   UNL     1      28.259  38.034  48.488  1.00  0.00    -0.168 NA
HETATM   14  C   UNL     1      27.140  42.258  49.987  1.00  0.00     0.032 A 
BRANCH   9  15
HETATM   15  C   UNL     1      29.473  37.456  50.548  1.00  0.00     0.270 C 
HETATM   16  N   UNL     1      28.797  36.337  50.954  1.00  0.00    -0.365 N 
HETATM   17  H   UNL     1      27.834  36.219  50.662  1.00  0.00     0.159 HD
HETATM   18  H   UNL     1      29.274  35.637  51.498  1.00  0.00     0.159 HD
HETATM   19  O   UNL     1      30.647  37.633  50.853  1.00  0.00    -0.266 OA
ENDBRANCH   9  15
ENDBRANCH   2   5
BRANCH   1  20
HETATM   20  C   UNL     1      28.815  44.199  53.884  1.00  0.00     0.074 A 
HETATM   21  C   UNL     1      29.500  44.247  55.092  1.00  0.00     0.066 A 
HETATM   22  C   UNL     1      30.554  43.398  55.692  1.00  0.00     0.078 C 
HETATM   23  O   UNL     1      29.106  45.317  55.830  1.00  0.00    -0.314 OA
HETATM   24  C   UNL     1      28.138  45.955  55.127  1.00  0.00     0.087 A 
HETATM   25  C   UNL     1      27.895  45.304  53.923  1.00  0.00     0.019 A 
HETATM   26  C   UNL     1      27.468  47.097  55.557  1.00  0.00     0.041 A 
HETATM   27  C   UNL     1      26.871  45.821  53.092  1.00  0.00     0.052 A 
HETATM   28  C   UNL     1      26.184  46.981  53.485  1.00  0.00     0.069 A 
HETATM   29  C   UNL     1      26.486  47.602  54.702  1.00  0.00     0.039 A 
BRANCH  28  30
HETATM   30  O   UNL     1      25.190  47.598  52.774  1.00  0.00    -0.356 OA
HETATM   31  C   UNL     1      25.026  47.212  51.416  1.00  0.00     0.210 C 
ENDBRANCH  28  30
ENDBRANCH   1  20
TORSDOF 4
ENDMDL
MODEL 4
REMARK VINA RESULT:      -9.1      1.814      2.154
REMARK  4 active torsions:
REMARK  status: ('A' for Active; 'I' for Inactive)
REMARK    1  A    between atoms: C_6  and  C_7 
REMARK       I    between atoms: C_7  and  N_8 
REMARK    2  A    between atoms: N_8  and  C_9 
REMARK    3  A    between atoms: C_16  and  C_17 
REMARK       I    between atoms: C_17  and  N_18 
REMARK    4  A    between atoms: C_25  and  O_26 
ROOT
HETATM    1  C   UNL     1      26.425  44.643  52.679  1.00  0.00     0.259 C 
HETATM    2  N   UNL     1      26.616  45.204  51.431  1.00  0.00    -0.323 N 
HETATM    3  O   UNL     1      25.397  44.715  53.341  1.00  0.00    -0.267 OA
HETATM    4  H   UNL     1      27.493  44.997  50.977  1.00  0.00     0.169 HD
ENDROOT
BRANCH   2   5
HETATM    5  C   UNL     1      25.697  45.963  50.672  1.00  0.00     0.036 A 
HETATM    6  C   UNL     1      24.459  45.478  50.229  1.00  0.00     0.046 A 
HETATM    7  C   UNL     1      23.621  46.307  49.451  1.00  0.00     0.030 A 
HETATM    8  C   UNL     1      24.038  47.600  49.161  1.00  0.00     0.063 A 
HETATM    9  C   UNL     1      22.353  46.174  48.806  1.00  0.00     0.156 A 
HETATM   10  N   UNL     1      23.031  48.148  48.415  1.00  0.00    -0.277 N 
HETATM   11  C   UNL     1      25.258  48.121  49.595  1.00  0.00     0.034 A 
HETATM   12  H   UNL     1      22.992  49.085  48.032  1.00  0.00     0.189 HD
HETATM   13  N   UNL     1      22.004  47.318  48.174  1.00  0.00    -0.168 NA
HETATM   14  C   UNL     1      26.080  47.272  50.348  1.00  0.00     0.032 A 
BRANCH   9  15
HETATM   15  C   UNL     1      21.486  44.989  48.768  1.00  0.00     0.270 C 
HETATM   16  N   UNL     1      20.234  45.194  49.283  1.00  0.00    -0.365 N 
HETATM   17  H   UNL     1      19.997  46.117  49.628  1.00  0.00     0.159 HD
HETATM   18  H   UNL     1      19.563  44.444  49.276  1.00  0.00     0.159 HD
HETATM   19  O   UNL     1      21.813  43.897  48.315  1.00  0.00    -0.266 OA
ENDBRANCH   9  15
ENDBRANCH   2   5
BRANCH   1  20
HETATM   20  C   UNL     1      27.572  43.883  53.169  1.00  0.00     0.074 A 
HETATM   21  C   UNL     1      27.908  42.623  52.687  1.00  0.00     0.066 A 
HETATM   22  C   UNL     1      27.307  41.736  51.666  1.00  0.00     0.078 C 
HETATM   23  O   UNL     1      29.034  42.159  53.289  1.00  0.00    -0.314 OA
HETATM   24  C   UNL     1      29.421  43.094  54.191  1.00  0.00     0.087 A 
HETATM   25  C   UNL     1      28.550  44.177  54.182  1.00  0.00     0.019 A 
HETATM   26  C   UNL     1      30.533  42.982  55.022  1.00  0.00     0.041 A 
HETATM   27  C   UNL     1      28.790  45.222  55.108  1.00  0.00     0.052 A 
HETATM   28  C   UNL     1      29.910  45.150  55.952  1.00  0.00     0.069 A 
HETATM   29  C   UNL     1      30.762  44.042  55.902  1.00  0.00     0.039 A 
BRANCH  28  30
HETATM   30  O   UNL     1      30.273  46.094  56.876  1.00  0.00    -0.356 OA
HETATM   31  C   UNL     1      30.381  45.671  58.229  1.00  0.00     0.210 C 
ENDBRANCH  28  30
ENDBRANCH   1  20
TORSDOF 4
ENDMDL
MODEL 5
REMARK VINA RESULT:      -9.0      1.238      3.131
REMARK  4 active torsions:
REMARK  status: ('A' for Active; 'I' for Inactive)
REMARK    1  A    between atoms: C_6  and  C_7 
REMARK       I    between atoms: C_7  and  N_8 
REMARK    2  A    between atoms: N_8  and  C_9 
REMARK    3  A    between atoms: C_16  and  C_17 
REMARK       I    between atoms: C_17  and  N_18 
REMARK    4  A    between atoms: C_25  and  O_26 
ROOT
HETATM    1  C   UNL     1      26.237  46.671  52.679  1.00  0.00     0.259 C 
HETATM    2  N   UNL     1      26.450  46.731  51.314  1.00  0.00    -0.323 N 
HETATM    3  O   UNL     1      25.463  47.379  53.310  1.00  0.00    -0.267 OA
HETATM    4  H   UNL     1      27.066  46.032  50.926  1.00  0.00     0.169 HD
ENDROOT
BRANCH   2   5
HETATM    5  C   UNL     1      25.841  47.599  50.380  1.00  0.00     0.036 A 
HETATM    6  C   UNL     1      24.470  47.597  50.088  1.00  0.00     0.046 A 
HETATM    7  C   UNL     1      23.962  48.487  49.115  1.00  0.00     0.030 A 
HETATM    8  C   UNL     1      24.835  49.363  48.485  1.00  0.00     0.063 A 
HETATM    9  C   UNL     1      22.685  48.756  48.533  1.00  0.00     0.156 A 
HETATM   10  N   UNL     1      24.063  50.088  47.621  1.00  0.00    -0.277 N 
HETATM   11  C   UNL     1      26.204  49.401  48.759  1.00  0.00     0.034 A 
HETATM   12  H   UNL     1      24.367  50.826  46.997  1.00  0.00     0.189 HD
HETATM   13  N   UNL     1      22.765  49.746  47.616  1.00  0.00    -0.168 NA
HETATM   14  C   UNL     1      26.687  48.495  49.712  1.00  0.00     0.032 A 
BRANCH   9  15
HETATM   15  C   UNL     1      21.410  48.085  48.821  1.00  0.00     0.270 C 
HETATM   16  N   UNL     1      20.613  48.755  49.711  1.00  0.00    -0.365 N 
HETATM   17  H   UNL     1      20.940  49.639  50.084  1.00  0.00     0.159 HD
HETATM   18  H   UNL     1      19.708  48.383  49.948  1.00  0.00     0.159 HD
HETATM   19  O   UNL     1      21.049  47.025  48.321  1.00  0.00    -0.266 OA
ENDBRANCH   9  15
ENDBRANCH   2   5
BRANCH   1  20
HETATM   20  C   UNL     1      27.004  45.626  53.353  1.00  0.00     0.074 A 
HETATM   21  C   UNL     1      27.724  45.849  54.520  1.00  0.00     0.066 A 
HETATM   22  C   UNL     1      27.943  47.046  55.363  1.00  0.00     0.078 C 
HETATM   23  O   UNL     1      28.315  44.703  54.951  1.00  0.00    -0.314 OA
HETATM   24  C   UNL     1      28.014  43.734  54.051  1.00  0.00     0.087 A 
HETATM   25  C   UNL     1      27.222  44.243  53.027  1.00  0.00     0.019 A 
HETATM   26  C   UNL     1      28.447  42.414  54.133  1.00  0.00     0.041 A 
HETATM   27  C   UNL     1      26.862  43.363  51.977  1.00  0.00     0.052 A 
HETATM   28  C   UNL     1      27.269  42.020  52.033  1.00  0.00     0.069 A 
HETATM   29  C   UNL     1      28.050  41.563  53.100  1.00  0.00     0.039 A 
BRANCH  28  30
HETATM   30  O   UNL     1      26.977  41.060  51.102  1.00  0.00    -0.356 OA
HETATM   31  C   UNL     1      25.818  41.259  50.303  1.00  0.00     0.210 C 
ENDBRANCH  28  30
ENDBRANCH   1  20
TORSDOF 4
ENDMDL
MODEL 6
REMARK VINA RESULT:      -8.6      4.443      7.838
REMARK  4 active torsions:
REMARK  status: ('A' for Active; 'I' for Inactive)
REMARK    1  A    between atoms: C_6  and  C_7 
REMARK       I    between atoms: C_7  and  N_8 
REMARK    2  A    between atoms: N_8  and  C_9 
REMARK    3  A    between atoms: C_16  and  C_17 
REMARK       I    between atoms: C_17  and  N_18 
REMARK    4  A    between atoms: C_25  and  O_26 
ROOT
HETATM    1  C   UNL     1      26.049  43.141  51.044  1.00  0.00     0.259 C 
HETATM    2  N   UNL     1      27.196  42.816  50.344  1.00  0.00    -0.323 N 
HETATM    3  O   UNL     1      25.027  42.468  51.088  1.00  0.00    -0.267 OA
HETATM    4  H   UNL     1      27.984  43.435  50.464  1.00  0.00     0.169 HD
ENDROOT
BRANCH   2   5
HETATM    5  C   UNL     1      27.429  41.673  49.547  1.00  0.00     0.036 A 
HETATM    6  C   UNL     1      28.088  40.523  50.004  1.00  0.00     0.046 A 
HETATM    7  C   UNL     1      28.298  39.441  49.119  1.00  0.00     0.030 A 
HETATM    8  C   UNL     1      27.822  39.535  47.818  1.00  0.00     0.063 A 
HETATM    9  C   UNL     1      28.933  38.163  49.189  1.00  0.00     0.156 A 
HETATM   10  N   UNL     1      28.162  38.354  47.220  1.00  0.00    -0.277 N 
HETATM   11  C   UNL     1      27.151  40.659  47.333  1.00  0.00     0.034 A 
HETATM   12  H   UNL     1      27.969  38.070  46.267  1.00  0.00     0.189 HD
HETATM   13  N   UNL     1      28.838  37.505  48.011  1.00  0.00    -0.168 NA
HETATM   14  C   UNL     1      26.974  41.727  48.222  1.00  0.00     0.032 A 
BRANCH   9  15
HETATM   15  C   UNL     1      29.631  37.570  50.338  1.00  0.00     0.270 C 
HETATM   16  N   UNL     1      28.928  36.581  50.971  1.00  0.00    -0.365 N 
HETATM   17  H   UNL     1      28.016  36.327  50.609  1.00  0.00     0.159 HD
HETATM   18  H   UNL     1      29.339  36.100  51.755  1.00  0.00     0.159 HD
HETATM   19  O   UNL     1      30.750  37.897  50.721  1.00  0.00    -0.266 OA
ENDBRANCH   9  15
ENDBRANCH   2   5
BRANCH   1  20
HETATM   20  C   UNL     1      26.151  44.386  51.803  1.00  0.00     0.074 A 
HETATM   21  C   UNL     1      25.367  45.502  51.538  1.00  0.00     0.066 A 
HETATM   22  C   UNL     1      24.315  45.785  50.536  1.00  0.00     0.078 C 
HETATM   23  O   UNL     1      25.641  46.505  52.413  1.00  0.00    -0.314 OA
HETATM   24  C   UNL     1      26.629  46.065  53.231  1.00  0.00     0.087 A 
HETATM   25  C   UNL     1      27.004  44.769  52.896  1.00  0.00     0.019 A 
HETATM   26  C   UNL     1      27.199  46.812  54.258  1.00  0.00     0.041 A 
HETATM   27  C   UNL     1      28.064  44.182  53.630  1.00  0.00     0.052 A 
HETATM   28  C   UNL     1      28.653  44.899  54.684  1.00  0.00     0.069 A 
HETATM   29  C   UNL     1      28.220  46.195  54.984  1.00  0.00     0.039 A 
BRANCH  28  30
HETATM   30  O   UNL     1      29.667  44.448  55.485  1.00  0.00    -0.356 OA
HETATM   31  C   UNL     1      30.184  45.353  56.452  1.00  0.00     0.210 C 
ENDBRANCH  28  30
ENDBRANCH   1  20
TORSDOF 4
ENDMDL
MODEL 7
REMARK VINA RESULT:      -8.6      1.882      3.558
REMARK  4 active torsions:
REMARK  status: ('A' for Active; 'I' for Inactive)
REMARK    1  A    between atoms: C_6  and  C_7 
REMARK       I    between atoms: C_7  and  N_8 
REMARK    2  A    between atoms: N_8  and  C_9 
REMARK    3  A    between atoms: C_16  and  C_17 
REMARK       I    between atoms: C_17  and  N_18 
REMARK    4  A    between atoms: C_25  and  O_26 
ROOT
HETATM    1  C   UNL     1      26.024  46.783  53.182  1.00  0.00     0.259 C 
HETATM    2  N   UNL     1      25.952  46.042  52.018  1.00  0.00    -0.323 N 
HETATM    3  O   UNL     1      25.272  47.698  53.491  1.00  0.00    -0.267 OA
HETATM    4  H   UNL     1      26.597  45.270  51.938  1.00  0.00     0.169 HD
ENDROOT
BRANCH   2   5
HETATM    5  C   UNL     1      25.024  46.179  50.960  1.00  0.00     0.036 A 
HETATM    6  C   UNL     1      24.763  47.388  50.301  1.00  0.00     0.046 A 
HETATM    7  C   UNL     1      23.795  47.427  49.272  1.00  0.00     0.030 A 
HETATM    8  C   UNL     1      23.138  46.255  48.923  1.00  0.00     0.063 A 
HETATM    9  C   UNL     1      23.239  48.430  48.420  1.00  0.00     0.156 A 
HETATM   10  N   UNL     1      22.286  46.603  47.913  1.00  0.00    -0.277 N 
HETATM   11  C   UNL     1      23.381  45.031  49.549  1.00  0.00     0.034 A 
HETATM   12  H   UNL     1      21.650  45.995  47.409  1.00  0.00     0.189 HD
HETATM   13  N   UNL     1      22.312  47.905  47.587  1.00  0.00    -0.168 NA
HETATM   14  C   UNL     1      24.330  45.022  50.580  1.00  0.00     0.032 A 
BRANCH   9  15
HETATM   15  C   UNL     1      23.560  49.864  48.394  1.00  0.00     0.270 C 
HETATM   16  N   UNL     1      24.803  50.150  47.897  1.00  0.00    -0.365 N 
HETATM   17  H   UNL     1      25.387  49.385  47.580  1.00  0.00     0.159 HD
HETATM   18  H   UNL     1      25.099  51.109  47.818  1.00  0.00     0.159 HD
HETATM   19  O   UNL     1      22.806  50.756  48.767  1.00  0.00    -0.266 OA
ENDBRANCH   9  15
ENDBRANCH   2   5
BRANCH   1  20
HETATM   20  C   UNL     1      27.086  46.356  54.091  1.00  0.00     0.074 A 
HETATM   21  C   UNL     1      27.424  47.055  55.243  1.00  0.00     0.066 A 
HETATM   22  C   UNL     1      26.910  48.299  55.860  1.00  0.00     0.078 C 
HETATM   23  O   UNL     1      28.418  46.422  55.920  1.00  0.00    -0.314 OA
HETATM   24  C   UNL     1      28.759  45.326  55.199  1.00  0.00     0.087 A 
HETATM   25  C   UNL     1      27.987  45.236  54.046  1.00  0.00     0.019 A 
HETATM   26  C   UNL     1      29.754  44.421  55.556  1.00  0.00     0.041 A 
HETATM   27  C   UNL     1      28.257  44.167  53.156  1.00  0.00     0.052 A 
HETATM   28  C   UNL     1      29.244  43.226  53.490  1.00  0.00     0.069 A 
HETATM   29  C   UNL     1      29.976  43.360  54.675  1.00  0.00     0.039 A 
BRANCH  28  30
HETATM   30  O   UNL     1      29.594  42.137  52.737  1.00  0.00    -0.356 OA
HETATM   31  C   UNL     1      28.538  41.353  52.198  1.00  0.00     0.210 C 
ENDBRANCH  28  30
ENDBRANCH   1  20
TORSDOF 4
ENDMDL
MODEL 8
REMARK VINA RESULT:      -8.4      2.232      3.246
REMARK  4 active torsions:
REMARK  status: ('A' for Active; 'I' for Inactive)
REMARK    1  A    between atoms: C_6  and  C_7 
REMARK       I    between atoms: C_7  and  N_8 
REMARK    2  A    between atoms: N_8  and  C_9 
REMARK    3  A    between atoms: C_16  and  C_17 
REMARK       I    between atoms: C_17  and  N_18 
REMARK    4  A    between atoms: C_25  and  O_26 
ROOT
HETATM    1  C   UNL     1      26.959  43.407  50.673  1.00  0.00     0.259 C 
HETATM    2  N   UNL     1      25.732  43.861  51.118  1.00  0.00    -0.323 N 
HETATM    3  O   UNL     1      27.336  43.402  49.508  1.00  0.00    -0.267 OA
HETATM    4  H   UNL     1      25.594  43.871  52.118  1.00  0.00     0.169 HD
ENDROOT
BRANCH   2   5
HETATM    5  C   UNL     1      24.675  44.398  50.348  1.00  0.00     0.036 A 
HETATM    6  C   UNL     1      24.470  45.770  50.149  1.00  0.00     0.046 A 
HETATM    7  C   UNL     1      23.366  46.208  49.385  1.00  0.00     0.030 A 
HETATM    8  C   UNL     1      22.519  45.260  48.826  1.00  0.00     0.063 A 
HETATM    9  C   UNL     1      22.816  47.469  48.999  1.00  0.00     0.156 A 
HETATM   10  N   UNL     1      21.570  45.975  48.149  1.00  0.00    -0.277 N 
HETATM   11  C   UNL     1      22.699  43.886  48.992  1.00  0.00     0.034 A 
HETATM   12  H   UNL     1      20.790  45.609  47.615  1.00  0.00     0.189 HD
HETATM   13  N   UNL     1      21.710  47.307  48.236  1.00  0.00    -0.168 NA
HETATM   14  C   UNL     1      23.788  43.477  49.772  1.00  0.00     0.032 A 
BRANCH   9  15
HETATM   15  C   UNL     1      23.309  48.807  49.351  1.00  0.00     0.270 C 
HETATM   16  N   UNL     1      22.336  49.666  49.786  1.00  0.00    -0.365 N 
HETATM   17  H   UNL     1      21.382  49.328  49.847  1.00  0.00     0.159 HD
HETATM   18  H   UNL     1      22.585  50.598  50.073  1.00  0.00     0.159 HD
HETATM   19  O   UNL     1      24.482  49.160  49.285  1.00  0.00    -0.266 OA
ENDBRANCH   9  15
ENDBRANCH   2   5
BRANCH   1  20
HETATM   20  C   UNL     1      27.844  42.948  51.741  1.00  0.00     0.074 A 
HETATM   21  C   UNL     1      28.398  41.673  51.770  1.00  0.00     0.066 A 
HETATM   22  C   UNL     1      28.294  40.503  50.869  1.00  0.00     0.078 C 
HETATM   23  O   UNL     1      29.206  41.522  52.852  1.00  0.00    -0.314 OA
HETATM   24  C   UNL     1      29.159  42.681  53.554  1.00  0.00     0.087 A 
HETATM   25  C   UNL     1      28.320  43.599  52.932  1.00  0.00     0.019 A 
HETATM   26  C   UNL     1      29.847  42.918  54.741  1.00  0.00     0.041 A 
HETATM   27  C   UNL     1      28.124  44.848  53.570  1.00  0.00     0.052 A 
HETATM   28  C   UNL     1      28.813  45.128  54.762  1.00  0.00     0.069 A 
HETATM   29  C   UNL     1      29.659  44.169  55.330  1.00  0.00     0.039 A 
BRANCH  28  30
HETATM   30  O   UNL     1      28.735  46.296  55.471  1.00  0.00    -0.356 OA
HETATM   31  C   UNL     1      27.988  47.359  54.894  1.00  0.00     0.210 C 
ENDBRANCH  28  30
ENDBRANCH   1  20
TORSDOF 4
ENDMDL
MODEL 9
REMARK VINA RESULT:      -8.4      2.697      8.780
REMARK  4 active torsions:
REMARK  status: ('A' for Active; 'I' for Inactive)
REMARK    1  A    between atoms: C_6  and  C_7 
REMARK       I    between atoms: C_7  and  N_8 
REMARK    2  A    between atoms: N_8  and  C_9 
REMARK    3  A    between atoms: C_16  and  C_17 
REMARK       I    between atoms: C_17  and  N_18 
REMARK    4  A    between atoms: C_25  and  O_26 
ROOT
HETATM    1  C   UNL     1      24.761  47.330  50.342  1.00  0.00     0.259 C 
HETATM    2  N   UNL     1      24.739  46.400  51.364  1.00  0.00    -0.323 N 
HETATM    3  O   UNL     1      25.654  48.143  50.139  1.00  0.00    -0.267 OA
HETATM    4  H   UNL     1      23.969  45.747  51.359  1.00  0.00     0.169 HD
ENDROOT
BRANCH   2   5
HETATM    5  C   UNL     1      25.711  46.194  52.369  1.00  0.00     0.036 A 
HETATM    6  C   UNL     1      26.612  45.120  52.377  1.00  0.00     0.046 A 
HETATM    7  C   UNL     1      27.529  44.986  53.444  1.00  0.00     0.030 A 
HETATM    8  C   UNL     1      27.531  45.941  54.451  1.00  0.00     0.063 A 
HETATM    9  C   UNL     1      28.541  44.051  53.819  1.00  0.00     0.156 A 
HETATM   10  N   UNL     1      28.514  45.553  55.318  1.00  0.00    -0.277 N 
HETATM   11  C   UNL     1      26.657  47.030  54.470  1.00  0.00     0.034 A 
HETATM   12  H   UNL     1      28.801  46.020  56.171  1.00  0.00     0.189 HD
HETATM   13  N   UNL     1      29.140  44.416  54.976  1.00  0.00    -0.168 NA
HETATM   14  C   UNL     1      25.743  47.129  53.413  1.00  0.00     0.032 A 
BRANCH   9  15
HETATM   15  C   UNL     1      28.934  42.823  53.114  1.00  0.00     0.270 C 
HETATM   16  N   UNL     1      30.286  42.675  52.958  1.00  0.00    -0.365 N 
HETATM   17  H   UNL     1      30.899  43.388  53.337  1.00  0.00     0.159 HD
HETATM   18  H   UNL     1      30.649  41.851  52.507  1.00  0.00     0.159 HD
HETATM   19  O   UNL     1      28.152  41.976  52.696  1.00  0.00    -0.266 OA
ENDBRANCH   9  15
ENDBRANCH   2   5
BRANCH   1  20
HETATM   20  C   UNL     1      23.609  47.252  49.446  1.00  0.00     0.074 A 
HETATM   21  C   UNL     1      23.224  46.079  48.808  1.00  0.00     0.066 A 
HETATM   22  C   UNL     1      23.767  44.702  48.805  1.00  0.00     0.078 C 
HETATM   23  O   UNL     1      22.105  46.279  48.062  1.00  0.00    -0.314 OA
HETATM   24  C   UNL     1      21.773  47.588  48.180  1.00  0.00     0.087 A 
HETATM   25  C   UNL     1      22.673  48.252  49.006  1.00  0.00     0.019 A 
HETATM   26  C   UNL     1      20.687  48.190  47.551  1.00  0.00     0.041 A 
HETATM   27  C   UNL     1      22.491  49.644  49.191  1.00  0.00     0.052 A 
HETATM   28  C   UNL     1      21.398  50.283  48.584  1.00  0.00     0.069 A 
HETATM   29  C   UNL     1      20.515  49.557  47.777  1.00  0.00     0.039 A 
BRANCH  28  30
HETATM   30  O   UNL     1      21.091  51.613  48.693  1.00  0.00    -0.356 OA
HETATM   31  C   UNL     1      19.719  51.974  48.603  1.00  0.00     0.210 C 
ENDBRANCH  28  30
ENDBRANCH   1  20
TORSDOF 4
ENDMDL
MODEL 10
REMARK VINA RESULT:      -8.2      9.459     14.167
REMARK  4 active torsions:
REMARK  status: ('A' for Active; 'I' for Inactive)
REMARK    1  A    between atoms: C_6  and  C_7 
REMARK       I    between atoms: C_7  and  N_8 
REMARK    2  A    between atoms: N_8  and  C_9 
REMARK    3  A    between atoms: C_16  and  C_17 
REMARK       I    between atoms: C_17  and  N_18 
REMARK    4  A    between atoms: C_25  and  O_26 
ROOT
HETATM    1  C   UNL     1      15.311  53.179  49.527  1.00  0.00     0.259 C 
HETATM    2  N   UNL     1      16.620  53.012  49.114  1.00  0.00    -0.323 N 
HETATM    3  O   UNL     1      14.648  52.354  50.142  1.00  0.00    -0.267 OA
HETATM    4  H   UNL     1      17.058  53.811  48.681  1.00  0.00     0.169 HD
ENDROOT
BRANCH   2   5
HETATM    5  C   UNL     1      17.450  51.884  49.303  1.00  0.00     0.036 A 
HETATM    6  C   UNL     1      17.075  50.573  48.979  1.00  0.00     0.046 A 
HETATM    7  C   UNL     1      17.967  49.508  49.233  1.00  0.00     0.030 A 
HETATM    8  C   UNL     1      19.212  49.791  49.780  1.00  0.00     0.063 A 
HETATM    9  C   UNL     1      17.943  48.087  49.085  1.00  0.00     0.156 A 
HETATM   10  N   UNL     1      19.840  48.583  49.898  1.00  0.00    -0.277 N 
HETATM   11  C   UNL     1      19.624  51.084  50.104  1.00  0.00     0.034 A 
HETATM   12  H   UNL     1      20.772  48.407  50.257  1.00  0.00     0.189 HD
HETATM   13  N   UNL     1      19.106  47.533  49.497  1.00  0.00    -0.168 NA
HETATM   14  C   UNL     1      18.714  52.122  49.862  1.00  0.00     0.032 A 
BRANCH   9  15
HETATM   15  C   UNL     1      16.842  47.257  48.577  1.00  0.00     0.270 C 
HETATM   16  N   UNL     1      17.144  45.926  48.479  1.00  0.00    -0.365 N 
HETATM   17  H   UNL     1      18.066  45.615  48.765  1.00  0.00     0.159 HD
HETATM   18  H   UNL     1      16.442  45.277  48.163  1.00  0.00     0.159 HD
HETATM   19  O   UNL     1      15.734  47.680  48.268  1.00  0.00    -0.266 OA
ENDBRANCH   9  15
ENDBRANCH   2   5
BRANCH   1  20
HETATM   20  C   UNL     1      14.751  54.489  49.202  1.00  0.00     0.074 A 
HETATM   21  C   UNL     1      14.128  54.768  47.992  1.00  0.00     0.066 A 
HETATM   22  C   UNL     1      13.862  53.960  46.780  1.00  0.00     0.078 C 
HETATM   23  O   UNL     1      13.670  56.047  47.966  1.00  0.00    -0.314 OA
HETATM   24  C   UNL     1      14.019  56.621  49.144  1.00  0.00     0.087 A 
HETATM   25  C   UNL     1      14.707  55.719  49.947  1.00  0.00     0.019 A 
HETATM   26  C   UNL     1      13.738  57.938  49.498  1.00  0.00     0.041 A 
HETATM   27  C   UNL     1      15.185  56.183  51.197  1.00  0.00     0.052 A 
HETATM   28  C   UNL     1      14.908  57.501  51.593  1.00  0.00     0.069 A 
HETATM   29  C   UNL     1      14.195  58.358  50.749  1.00  0.00     0.039 A 
BRANCH  28  30
HETATM   30  O   UNL     1      15.291  58.074  52.777  1.00  0.00    -0.356 OA
HETATM   31  C   UNL     1      15.087  59.473  52.919  1.00  0.00     0.210 C 
ENDBRANCH  28  30
ENDBRANCH   1  20
TORSDOF 4
ENDMDL
