MODEL 1
REMARK VINA RESULT:      -9.5      0.000      0.000
REMARK  3 active torsions:
REMARK  status: ('A' for Active; 'I' for Inactive)
REMARK    1  A    between atoms: C_6  and  O_7 
REMARK    2  A    between atoms: O_7  and  C_8 
REMARK       I    between atoms: N_10  and  C_11 
REMARK       I    between atoms: C_11  and  N_12 
REMARK    3  A    between atoms: N_12  and  C_13 
ROOT
HETATM    1  C   UNL     1      25.168  46.470  49.961  1.00  0.00     0.148 C 
HETATM    2  C   UNL     1      25.550  46.117  51.405  1.00  0.00     0.160 C 
HETATM    3  N   UNL     1      26.410  44.947  51.289  1.00  0.00    -0.331 N 
HETATM    4  C   UNL     1      27.364  44.506  52.186  1.00  0.00     0.323 C 
HETATM    5  N   UNL     1      27.277  45.096  53.424  1.00  0.00    -0.309 N 
HETATM    6  O   UNL     1      28.194  43.666  51.854  1.00  0.00    -0.247 OA
HETATM    7  C   UNL     1      26.377  44.416  49.938  1.00  0.00     0.130 C 
HETATM    8  C   UNL     1      25.183  45.094  49.291  1.00  0.00     0.054 C 
HETATM    9  H   UNL     1      26.379  45.492  53.652  1.00  0.00     0.170 HD
ENDROOT
BRANCH   5  10
HETATM   10  C   UNL     1      28.215  45.028  54.476  1.00  0.00     0.037 A 
HETATM   11  C   UNL     1      29.152  43.995  54.604  1.00  0.00     0.043 A 
HETATM   12  C   UNL     1      30.084  44.021  55.663  1.00  0.00    -0.006 A 
HETATM   13  C   UNL     1      30.052  45.082  56.564  1.00  0.00     0.042 A 
HETATM   14  C   UNL     1      31.144  43.161  56.065  1.00  0.00     0.030 A 
HETATM   15  N   UNL     1      31.055  44.865  57.482  1.00  0.00    -0.365 N 
HETATM   16  C   UNL     1      29.130  46.128  56.462  1.00  0.00     0.033 A 
HETATM   17  H   UNL     1      31.265  45.477  58.259  1.00  0.00     0.165 HD
HETATM   18  C   UNL     1      31.725  43.707  57.187  1.00  0.00     0.089 A 
HETATM   19  C   UNL     1      28.218  46.081  55.399  1.00  0.00     0.032 A 
ENDBRANCH   5  10
BRANCH   1  20
HETATM   20  O   UNL     1      23.878  47.069  49.934  1.00  0.00    -0.344 OA
BRANCH  20  21
HETATM   21  C   UNL     1      23.701  48.205  49.196  1.00  0.00     0.070 A 
HETATM   22  C   UNL     1      22.380  48.438  48.802  1.00  0.00     0.060 A 
HETATM   23  C   UNL     1      22.059  49.563  48.045  1.00  0.00     0.036 A 
HETATM   24  C   UNL     1      23.049  50.469  47.674  1.00  0.00     0.024 A 
HETATM   25 CL   UNL     1      20.430  49.836  47.564  1.00  0.00    -0.084 Cl
HETATM   26  C   UNL     1      24.367  50.244  48.065  1.00  0.00     0.004 A 
HETATM   27  C   UNL     1      24.694  49.115  48.823  1.00  0.00     0.037 A 
ENDBRANCH  20  21
ENDBRANCH   1  20
TORSDOF 3
ENDMDL
MODEL 2
REMARK VINA RESULT:      -9.5      0.741      1.377
REMARK  3 active torsions:
REMARK  status: ('A' for Active; 'I' for Inactive)
REMARK    1  A    between atoms: C_6  and  O_7 
REMARK    2  A    between atoms: O_7  and  C_8 
REMARK       I    between atoms: N_10  and  C_11 
REMARK       I    between atoms: C_11  and  N_12 
REMARK    3  A    between atoms: N_12  and  C_13 
ROOT
HETATM    1  C   UNL     1      25.561  46.429  50.165  1.00  0.00     0.148 C 
HETATM    2  C   UNL     1      25.994  46.014  51.577  1.00  0.00     0.160 C 
HETATM    3  N   UNL     1      26.731  44.771  51.392  1.00  0.00    -0.331 N 
HETATM    4  C   UNL     1      27.690  44.224  52.222  1.00  0.00     0.323 C 
HETATM    5  N   UNL     1      27.735  44.796  53.471  1.00  0.00    -0.309 N 
HETATM    6  O   UNL     1      28.416  43.316  51.827  1.00  0.00    -0.247 OA
HETATM    7  C   UNL     1      26.565  44.272  50.038  1.00  0.00     0.130 C 
HETATM    8  C   UNL     1      25.404  45.072  49.476  1.00  0.00     0.054 C 
HETATM    9  H   UNL     1      26.894  45.270  53.760  1.00  0.00     0.170 HD
ENDROOT
BRANCH   5  10
HETATM   10  C   UNL     1      28.724  44.619  54.461  1.00  0.00     0.037 A 
HETATM   11  C   UNL     1      28.831  45.434  55.596  1.00  0.00     0.043 A 
HETATM   12  C   UNL     1      29.824  45.166  56.561  1.00  0.00    -0.006 A 
HETATM   13  C   UNL     1      30.685  44.089  56.363  1.00  0.00     0.042 A 
HETATM   14  C   UNL     1      30.189  45.773  57.795  1.00  0.00     0.030 A 
HETATM   15  N   UNL     1      31.543  44.052  57.439  1.00  0.00    -0.365 N 
HETATM   16  C   UNL     1      30.603  43.258  55.242  1.00  0.00     0.033 A 
HETATM   17  H   UNL     1      32.280  43.372  57.562  1.00  0.00     0.165 HD
HETATM   18  C   UNL     1      31.249  45.064  58.314  1.00  0.00     0.089 A 
HETATM   19  C   UNL     1      29.605  43.542  54.300  1.00  0.00     0.032 A 
ENDBRANCH   5  10
BRANCH   1  20
HETATM   20  O   UNL     1      24.335  47.147  50.226  1.00  0.00    -0.344 OA
BRANCH  20  21
HETATM   21  C   UNL     1      24.177  48.241  49.421  1.00  0.00     0.070 A 
HETATM   22  C   UNL     1      22.848  48.542  49.110  1.00  0.00     0.060 A 
HETATM   23  C   UNL     1      22.546  49.634  48.298  1.00  0.00     0.036 A 
HETATM   24  C   UNL     1      23.562  50.438  47.790  1.00  0.00     0.024 A 
HETATM   25 CL   UNL     1      20.905  49.991  47.919  1.00  0.00    -0.084 Cl
HETATM   26  C   UNL     1      24.889  50.145  48.099  1.00  0.00     0.004 A 
HETATM   27  C   UNL     1      25.197  49.049  48.912  1.00  0.00     0.037 A 
ENDBRANCH  20  21
ENDBRANCH   1  20
TORSDOF 3
ENDMDL
MODEL 3
REMARK VINA RESULT:      -9.3      2.715      4.361
REMARK  3 active torsions:
REMARK  status: ('A' for Active; 'I' for Inactive)
REMARK    1  A    between atoms: C_6  and  O_7 
REMARK    2  A    between atoms: O_7  and  C_8 
REMARK       I    between atoms: N_10  and  C_11 
REMARK       I    between atoms: C_11  and  N_12 
REMARK    3  A    between atoms: N_12  and  C_13 
ROOT
HETATM    1  C   UNL     1      23.279  50.002  48.639  1.00  0.00     0.148 C 
HETATM    2  C   UNL     1      23.748  48.652  49.198  1.00  0.00     0.160 C 
HETATM    3  N   UNL     1      25.203  48.710  49.141  1.00  0.00    -0.331 N 
HETATM    4  C   UNL     1      26.108  47.994  49.902  1.00  0.00     0.323 C 
HETATM    5  N   UNL     1      25.550  46.936  50.579  1.00  0.00    -0.309 N 
HETATM    6  O   UNL     1      27.290  48.322  49.940  1.00  0.00    -0.247 OA
HETATM    7  C   UNL     1      25.643  49.859  48.371  1.00  0.00     0.130 C 
HETATM    8  C   UNL     1      24.396  50.332  47.646  1.00  0.00     0.054 C 
HETATM    9  H   UNL     1      24.682  46.591  50.203  1.00  0.00     0.170 HD
ENDROOT
BRANCH   5  10
HETATM   10  C   UNL     1      26.146  46.155  51.592  1.00  0.00     0.037 A 
HETATM   11  C   UNL     1      26.774  44.927  51.347  1.00  0.00     0.043 A 
HETATM   12  C   UNL     1      27.382  44.226  52.408  1.00  0.00    -0.006 A 
HETATM   13  C   UNL     1      27.345  44.774  53.688  1.00  0.00     0.042 A 
HETATM   14  C   UNL     1      28.092  42.995  52.500  1.00  0.00     0.030 A 
HETATM   15  N   UNL     1      28.004  43.900  54.523  1.00  0.00    -0.365 N 
HETATM   16  C   UNL     1      26.728  45.997  53.964  1.00  0.00     0.033 A 
HETATM   17  H   UNL     1      28.132  44.040  55.516  1.00  0.00     0.165 HD
HETATM   18  C   UNL     1      28.464  42.822  53.814  1.00  0.00     0.089 A 
HETATM   19  C   UNL     1      26.135  46.676  52.891  1.00  0.00     0.032 A 
ENDBRANCH   5  10
BRANCH   1  20
HETATM   20  O   UNL     1      22.018  49.849  48.000  1.00  0.00    -0.344 OA
BRANCH  20  21
HETATM   21  C   UNL     1      20.902  50.316  48.636  1.00  0.00     0.070 A 
HETATM   22  C   UNL     1      20.337  49.416  49.544  1.00  0.00     0.060 A 
HETATM   23  C   UNL     1      19.194  49.766  50.263  1.00  0.00     0.036 A 
HETATM   24  C   UNL     1      18.606  51.015  50.087  1.00  0.00     0.024 A 
HETATM   25 CL   UNL     1      18.507  48.647  51.375  1.00  0.00    -0.084 Cl
HETATM   26  C   UNL     1      19.165  51.917  49.185  1.00  0.00     0.004 A 
HETATM   27  C   UNL     1      20.310  51.569  48.460  1.00  0.00     0.037 A 
ENDBRANCH  20  21
ENDBRANCH   1  20
TORSDOF 3
ENDMDL
MODEL 4
REMARK VINA RESULT:      -9.1      2.661      4.543
REMARK  3 active torsions:
REMARK  status: ('A' for Active; 'I' for Inactive)
REMARK    1  A    between atoms: C_6  and  O_7 
REMARK    2  A    between atoms: O_7  and  C_8 
REMARK       I    between atoms: N_10  and  C_11 
REMARK       I    between atoms: C_11  and  N_12 
REMARK    3  A    between atoms: N_12  and  C_13 
ROOT
HETATM    1  C   UNL     1      22.480  49.819  48.812  1.00  0.00     0.148 C 
HETATM    2  C   UNL     1      23.064  48.537  49.421  1.00  0.00     0.160 C 
HETATM    3  N   UNL     1      24.502  48.651  49.223  1.00  0.00    -0.331 N 
HETATM    4  C   UNL     1      25.507  48.035  49.945  1.00  0.00     0.323 C 
HETATM    5  N   UNL     1      25.066  47.009  50.747  1.00  0.00    -0.309 N 
HETATM    6  O   UNL     1      26.670  48.413  49.846  1.00  0.00    -0.247 OA
HETATM    7  C   UNL     1      24.814  49.754  48.333  1.00  0.00     0.130 C 
HETATM    8  C   UNL     1      23.484  50.118  47.697  1.00  0.00     0.054 C 
HETATM    9  H   UNL     1      24.184  46.601  50.481  1.00  0.00     0.170 HD
ENDROOT
BRANCH   5  10
HETATM   10  C   UNL     1      25.789  46.334  51.753  1.00  0.00     0.037 A 
HETATM   11  C   UNL     1      26.505  45.152  51.523  1.00  0.00     0.043 A 
HETATM   12  C   UNL     1      27.237  44.560  52.573  1.00  0.00    -0.006 A 
HETATM   13  C   UNL     1      27.231  45.168  53.826  1.00  0.00     0.042 A 
HETATM   14  C   UNL     1      28.056  43.401  52.674  1.00  0.00     0.030 A 
HETATM   15  N   UNL     1      28.015  44.397  54.656  1.00  0.00    -0.365 N 
HETATM   16  C   UNL     1      26.528  46.348  54.086  1.00  0.00     0.033 A 
HETATM   17  H   UNL     1      28.190  44.598  55.630  1.00  0.00     0.165 HD
HETATM   18  C   UNL     1      28.522  43.327  53.967  1.00  0.00     0.089 A 
HETATM   19  C   UNL     1      25.812  46.919  53.025  1.00  0.00     0.032 A 
ENDBRANCH   5  10
BRANCH   1  20
HETATM   20  O   UNL     1      21.175  49.565  48.308  1.00  0.00    -0.344 OA
BRANCH  20  21
HETATM   21  C   UNL     1      20.196  50.493  48.532  1.00  0.00     0.070 A 
HETATM   22  C   UNL     1      19.466  50.848  47.394  1.00  0.00     0.060 A 
HETATM   23  C   UNL     1      18.437  51.784  47.482  1.00  0.00     0.036 A 
HETATM   24  C   UNL     1      18.122  52.373  48.704  1.00  0.00     0.024 A 
HETATM   25 CL   UNL     1      17.548  52.214  46.073  1.00  0.00    -0.084 Cl
HETATM   26  C   UNL     1      18.845  52.022  49.842  1.00  0.00     0.004 A 
HETATM   27  C   UNL     1      19.880  51.085  49.757  1.00  0.00     0.037 A 
ENDBRANCH  20  21
ENDBRANCH   1  20
TORSDOF 3
ENDMDL
MODEL 5
REMARK VINA RESULT:      -8.9      4.958      6.632
REMARK  3 active torsions:
REMARK  status: ('A' for Active; 'I' for Inactive)
REMARK    1  A    between atoms: C_6  and  O_7 
REMARK    2  A    between atoms: O_7  and  C_8 
REMARK       I    between atoms: N_10  and  C_11 
REMARK       I    between atoms: C_11  and  N_12 
REMARK    3  A    between atoms: N_12  and  C_13 
ROOT
HETATM    1  C   UNL     1      26.593  41.972  49.682  1.00  0.00     0.148 C 
HETATM    2  C   UNL     1      27.455  42.883  50.567  1.00  0.00     0.160 C 
HETATM    3  N   UNL     1      26.528  43.446  51.539  1.00  0.00    -0.331 N 
HETATM    4  C   UNL     1      26.819  43.946  52.794  1.00  0.00     0.323 C 
HETATM    5  N   UNL     1      28.159  44.168  53.007  1.00  0.00    -0.309 N 
HETATM    6  O   UNL     1      25.924  44.148  53.609  1.00  0.00    -0.247 OA
HETATM    7  C   UNL     1      25.155  43.159  51.167  1.00  0.00     0.130 C 
HETATM    8  C   UNL     1      25.241  42.687  49.727  1.00  0.00     0.054 C 
HETATM    9  H   UNL     1      28.716  44.280  52.175  1.00  0.00     0.170 HD
ENDROOT
BRANCH   5  10
HETATM   10  C   UNL     1      28.796  44.463  54.231  1.00  0.00     0.037 A 
HETATM   11  C   UNL     1      29.772  43.640  54.807  1.00  0.00     0.043 A 
HETATM   12  C   UNL     1      30.392  44.026  56.014  1.00  0.00    -0.006 A 
HETATM   13  C   UNL     1      30.016  45.226  56.612  1.00  0.00     0.042 A 
HETATM   14  C   UNL     1      31.398  43.445  56.836  1.00  0.00     0.030 A 
HETATM   15  N   UNL     1      30.765  45.360  57.759  1.00  0.00    -0.365 N 
HETATM   16  C   UNL     1      29.046  46.069  56.061  1.00  0.00     0.033 A 
HETATM   17  H   UNL     1      30.702  46.140  58.399  1.00  0.00     0.165 HD
HETATM   18  C   UNL     1      31.608  44.290  57.902  1.00  0.00     0.089 A 
HETATM   19  C   UNL     1      28.449  45.665  54.859  1.00  0.00     0.032 A 
ENDBRANCH   5  10
BRANCH   1  20
HETATM   20  O   UNL     1      27.133  41.922  48.368  1.00  0.00    -0.344 OA
BRANCH  20  21
HETATM   21  C   UNL     1      27.526  40.711  47.869  1.00  0.00     0.070 A 
HETATM   22  C   UNL     1      28.418  40.012  48.688  1.00  0.00     0.060 A 
HETATM   23  C   UNL     1      28.898  38.762  48.298  1.00  0.00     0.036 A 
HETATM   24  C   UNL     1      28.494  38.196  47.093  1.00  0.00     0.024 A 
HETATM   25 CL   UNL     1      29.998  37.914  49.314  1.00  0.00    -0.084 Cl
HETATM   26  C   UNL     1      27.604  38.887  46.273  1.00  0.00     0.004 A 
HETATM   27  C   UNL     1      27.121  40.142  46.659  1.00  0.00     0.037 A 
ENDBRANCH  20  21
ENDBRANCH   1  20
TORSDOF 3
ENDMDL
MODEL 6
REMARK VINA RESULT:      -8.8      4.651     10.539
REMARK  3 active torsions:
REMARK  status: ('A' for Active; 'I' for Inactive)
REMARK    1  A    between atoms: C_6  and  O_7 
REMARK    2  A    between atoms: O_7  and  C_8 
REMARK       I    between atoms: N_10  and  C_11 
REMARK       I    between atoms: C_11  and  N_12 
REMARK    3  A    between atoms: N_12  and  C_13 
ROOT
HETATM    1  C   UNL     1      26.210  47.049  49.846  1.00  0.00     0.148 C 
HETATM    2  C   UNL     1      24.876  47.795  49.977  1.00  0.00     0.160 C 
HETATM    3  N   UNL     1      24.999  48.942  49.086  1.00  0.00    -0.331 N 
HETATM    4  C   UNL     1      23.983  49.662  48.488  1.00  0.00     0.323 C 
HETATM    5  N   UNL     1      22.740  49.417  49.023  1.00  0.00    -0.309 N 
HETATM    6  O   UNL     1      24.222  50.432  47.563  1.00  0.00    -0.247 OA
HETATM    7  C   UNL     1      26.368  49.092  48.628  1.00  0.00     0.130 C 
HETATM    8  C   UNL     1      27.179  48.196  49.546  1.00  0.00     0.054 C 
HETATM    9  H   UNL     1      22.738  49.044  49.958  1.00  0.00     0.170 HD
ENDROOT
BRANCH   5  10
HETATM   10  C   UNL     1      21.489  49.818  48.507  1.00  0.00     0.037 A 
HETATM   11  C   UNL     1      20.893  51.049  48.808  1.00  0.00     0.043 A 
HETATM   12  C   UNL     1      19.658  51.393  48.219  1.00  0.00    -0.006 A 
HETATM   13  C   UNL     1      19.054  50.493  47.344  1.00  0.00     0.042 A 
HETATM   14  C   UNL     1      18.810  52.533  48.299  1.00  0.00     0.030 A 
HETATM   15  N   UNL     1      17.879  51.069  46.917  1.00  0.00    -0.365 N 
HETATM   16  C   UNL     1      19.625  49.258  47.023  1.00  0.00     0.033 A 
HETATM   17  H   UNL     1      17.229  50.639  46.273  1.00  0.00     0.165 HD
HETATM   18  C   UNL     1      17.724  52.306  47.486  1.00  0.00     0.089 A 
HETATM   19  C   UNL     1      20.854  48.942  47.618  1.00  0.00     0.032 A 
ENDBRANCH   5  10
BRANCH   1  20
HETATM   20  O   UNL     1      26.518  46.388  51.066  1.00  0.00    -0.344 OA
BRANCH  20  21
HETATM   21  C   UNL     1      26.770  45.045  51.037  1.00  0.00     0.070 A 
HETATM   22  C   UNL     1      27.070  44.487  52.283  1.00  0.00     0.060 A 
HETATM   23  C   UNL     1      27.346  43.125  52.396  1.00  0.00     0.036 A 
HETATM   24  C   UNL     1      27.324  42.306  51.271  1.00  0.00     0.024 A 
HETATM   25 CL   UNL     1      27.716  42.451  53.935  1.00  0.00    -0.084 Cl
HETATM   26  C   UNL     1      27.024  42.856  50.026  1.00  0.00     0.004 A 
HETATM   27  C   UNL     1      26.748  44.223  49.908  1.00  0.00     0.037 A 
ENDBRANCH  20  21
ENDBRANCH   1  20
TORSDOF 3
ENDMDL
MODEL 7
REMARK VINA RESULT:      -8.7      4.137     10.248
REMARK  3 active torsions:
REMARK  status: ('A' for Active; 'I' for Inactive)
REMARK    1  A    between atoms: C_6  and  O_7 
REMARK    2  A    between atoms: O_7  and  C_8 
REMARK       I    between atoms: N_10  and  C_11 
REMARK       I    between atoms: C_11  and  N_12 
REMARK    3  A    between atoms: N_12  and  C_13 
ROOT
HETATM    1  C   UNL     1      25.659  45.423  49.953  1.00  0.00     0.148 C 
HETATM    2  C   UNL     1      24.327  46.174  50.085  1.00  0.00     0.160 C 
HETATM    3  N   UNL     1      24.667  47.576  49.884  1.00  0.00    -0.331 N 
HETATM    4  C   UNL     1      23.837  48.595  49.459  1.00  0.00     0.323 C 
HETATM    5  N   UNL     1      22.500  48.276  49.500  1.00  0.00    -0.309 N 
HETATM    6  O   UNL     1      24.303  49.666  49.082  1.00  0.00    -0.247 OA
HETATM    7  C   UNL     1      26.107  47.763  49.894  1.00  0.00     0.130 C 
HETATM    8  C   UNL     1      26.656  46.466  50.462  1.00  0.00     0.054 C 
HETATM    9  H   UNL     1      22.254  47.526  50.126  1.00  0.00     0.170 HD
ENDROOT
BRANCH   5  10
HETATM   10  C   UNL     1      21.426  49.001  48.941  1.00  0.00     0.037 A 
HETATM   11  C   UNL     1      20.948  50.203  49.479  1.00  0.00     0.043 A 
HETATM   12  C   UNL     1      19.896  50.889  48.836  1.00  0.00    -0.006 A 
HETATM   13  C   UNL     1      19.352  50.352  47.672  1.00  0.00     0.042 A 
HETATM   14  C   UNL     1      19.202  52.102  49.103  1.00  0.00     0.030 A 
HETATM   15  N   UNL     1      18.358  51.209  47.256  1.00  0.00    -0.365 N 
HETATM   16  C   UNL     1      19.808  49.156  47.111  1.00  0.00     0.033 A 
HETATM   17  H   UNL     1      17.787  51.071  46.434  1.00  0.00     0.165 HD
HETATM   18  C   UNL     1      18.262  52.274  48.113  1.00  0.00     0.089 A 
HETATM   19  C   UNL     1      20.857  48.496  47.766  1.00  0.00     0.032 A 
ENDBRANCH   5  10
BRANCH   1  20
HETATM   20  O   UNL     1      25.639  44.255  50.765  1.00  0.00    -0.344 OA
BRANCH  20  21
HETATM   21  C   UNL     1      26.353  44.258  51.931  1.00  0.00     0.070 A 
HETATM   22  C   UNL     1      27.641  43.727  51.820  1.00  0.00     0.060 A 
HETATM   23  C   UNL     1      28.477  43.671  52.934  1.00  0.00     0.036 A 
HETATM   24  C   UNL     1      28.041  44.144  54.168  1.00  0.00     0.024 A 
HETATM   25 CL   UNL     1      30.060  43.012  52.784  1.00  0.00    -0.084 Cl
HETATM   26  C   UNL     1      26.758  44.676  54.285  1.00  0.00     0.004 A 
HETATM   27  C   UNL     1      25.915  44.732  53.170  1.00  0.00     0.037 A 
ENDBRANCH  20  21
ENDBRANCH   1  20
TORSDOF 3
ENDMDL
MODEL 8
REMARK VINA RESULT:      -8.4      4.636      8.986
REMARK  3 active torsions:
REMARK  status: ('A' for Active; 'I' for Inactive)
REMARK    1  A    between atoms: C_6  and  O_7 
REMARK    2  A    between atoms: O_7  and  C_8 
REMARK       I    between atoms: N_10  and  C_11 
REMARK       I    between atoms: C_11  and  N_12 
REMARK    3  A    between atoms: N_12  and  C_13 
ROOT
HETATM    1  C   UNL     1      27.930  46.850  55.200  1.00  0.00     0.148 C 
HETATM    2  C   UNL     1      27.206  45.616  54.648  1.00  0.00     0.160 C 
HETATM    3  N   UNL     1      26.188  46.148  53.752  1.00  0.00    -0.331 N 
HETATM    4  C   UNL     1      25.581  45.511  52.688  1.00  0.00     0.323 C 
HETATM    5  N   UNL     1      25.781  44.151  52.667  1.00  0.00    -0.309 N 
HETATM    6  O   UNL     1      24.937  46.150  51.860  1.00  0.00    -0.247 OA
HETATM    7  C   UNL     1      26.068  47.587  53.908  1.00  0.00     0.130 C 
HETATM    8  C   UNL     1      26.811  47.895  55.195  1.00  0.00     0.054 C 
HETATM    9  H   UNL     1      26.025  43.736  53.551  1.00  0.00     0.170 HD
ENDROOT
BRANCH   5  10
HETATM   10  C   UNL     1      25.484  43.256  51.617  1.00  0.00     0.037 A 
HETATM   11  C   UNL     1      24.281  43.282  50.901  1.00  0.00     0.043 A 
HETATM   12  C   UNL     1      24.077  42.378  49.838  1.00  0.00    -0.006 A 
HETATM   13  C   UNL     1      25.085  41.471  49.520  1.00  0.00     0.042 A 
HETATM   14  C   UNL     1      23.008  42.152  48.927  1.00  0.00     0.030 A 
HETATM   15  N   UNL     1      24.636  40.719  48.459  1.00  0.00    -0.365 N 
HETATM   16  C   UNL     1      26.297  41.421  50.215  1.00  0.00     0.033 A 
HETATM   17  H   UNL     1      25.161  39.977  48.017  1.00  0.00     0.165 HD
HETATM   18  C   UNL     1      23.380  41.125  48.089  1.00  0.00     0.089 A 
HETATM   19  C   UNL     1      26.477  42.333  51.265  1.00  0.00     0.032 A 
ENDBRANCH   5  10
BRANCH   1  20
HETATM   20  O   UNL     1      28.412  46.583  56.511  1.00  0.00    -0.344 OA
BRANCH  20  21
HETATM   21  C   UNL     1      29.407  45.659  56.666  1.00  0.00     0.070 A 
HETATM   22  C   UNL     1      29.580  44.808  55.571  1.00  0.00     0.060 A 
HETATM   23  C   UNL     1      30.562  43.819  55.597  1.00  0.00     0.036 A 
HETATM   24  C   UNL     1      31.383  43.669  56.711  1.00  0.00     0.024 A 
HETATM   25 CL   UNL     1      30.762  42.776  54.242  1.00  0.00    -0.084 Cl
HETATM   26  C   UNL     1      31.216  44.515  57.805  1.00  0.00     0.004 A 
HETATM   27  C   UNL     1      30.231  45.507  57.784  1.00  0.00     0.037 A 
ENDBRANCH  20  21
ENDBRANCH   1  20
TORSDOF 3
ENDMDL
MODEL 9
REMARK VINA RESULT:      -8.2      4.446      9.199
REMARK  3 active torsions:
REMARK  status: ('A' for Active; 'I' for Inactive)
REMARK    1  A    between atoms: C_6  and  O_7 
REMARK    2  A    between atoms: O_7  and  C_8 
REMARK       I    between atoms: N_10  and  C_11 
REMARK       I    between atoms: C_11  and  N_12 
REMARK    3  A    between atoms: N_12  and  C_13 
ROOT
HETATM    1  C   UNL     1      26.855  45.824  53.484  1.00  0.00     0.148 C 
HETATM    2  C   UNL     1      26.025  44.687  52.875  1.00  0.00     0.160 C 
HETATM    3  N   UNL     1      25.250  45.316  51.814  1.00  0.00    -0.331 N 
HETATM    4  C   UNL     1      24.706  44.718  50.694  1.00  0.00     0.323 C 
HETATM    5  N   UNL     1      24.680  43.344  50.756  1.00  0.00    -0.309 N 
HETATM    6  O   UNL     1      24.305  45.397  49.754  1.00  0.00    -0.247 OA
HETATM    7  C   UNL     1      25.348  46.763  51.895  1.00  0.00     0.130 C 
HETATM    8  C   UNL     1      25.937  47.029  53.268  1.00  0.00     0.054 C 
HETATM    9  H   UNL     1      24.721  42.953  51.683  1.00  0.00     0.170 HD
ENDROOT
BRANCH   5  10
HETATM   10  C   UNL     1      24.394  42.443  49.708  1.00  0.00     0.037 A 
HETATM   11  C   UNL     1      25.363  41.627  49.111  1.00  0.00     0.043 A 
HETATM   12  C   UNL     1      24.989  40.722  48.096  1.00  0.00    -0.006 A 
HETATM   13  C   UNL     1      23.654  40.660  47.706  1.00  0.00     0.042 A 
HETATM   14  C   UNL     1      25.700  39.772  47.311  1.00  0.00     0.030 A 
HETATM   15  N   UNL     1      23.564  39.708  46.715  1.00  0.00    -0.365 N 
HETATM   16  C   UNL     1      22.664  41.460  48.284  1.00  0.00     0.033 A 
HETATM   17  H   UNL     1      22.709  39.451  46.241  1.00  0.00     0.165 HD
HETATM   18  C   UNL     1      24.796  39.161  46.471  1.00  0.00     0.089 A 
HETATM   19  C   UNL     1      23.060  42.348  49.293  1.00  0.00     0.032 A 
ENDBRANCH   5  10
BRANCH   1  20
HETATM   20  O   UNL     1      27.091  45.567  54.863  1.00  0.00    -0.344 OA
BRANCH  20  21
HETATM   21  C   UNL     1      28.329  45.130  55.244  1.00  0.00     0.070 A 
HETATM   22  C   UNL     1      28.857  45.791  56.357  1.00  0.00     0.060 A 
HETATM   23  C   UNL     1      30.113  45.443  56.851  1.00  0.00     0.036 A 
HETATM   24  C   UNL     1      30.854  44.432  56.246  1.00  0.00     0.024 A 
HETATM   25 CL   UNL     1      30.752  46.267  58.220  1.00  0.00    -0.084 Cl
HETATM   26  C   UNL     1      30.332  43.768  55.138  1.00  0.00     0.004 A 
HETATM   27  C   UNL     1      29.073  44.116  54.637  1.00  0.00     0.037 A 
ENDBRANCH  20  21
ENDBRANCH   1  20
TORSDOF 3
ENDMDL
MODEL 10
REMARK VINA RESULT:      -8.2      4.277      9.894
REMARK  3 active torsions:
REMARK  status: ('A' for Active; 'I' for Inactive)
REMARK    1  A    between atoms: C_6  and  O_7 
REMARK    2  A    between atoms: O_7  and  C_8 
REMARK       I    between atoms: N_10  and  C_11 
REMARK       I    between atoms: C_11  and  N_12 
REMARK    3  A    between atoms: N_12  and  C_13 
ROOT
HETATM    1  C   UNL     1      26.853  45.553  53.193  1.00  0.00     0.148 C 
HETATM    2  C   UNL     1      25.601  44.993  52.505  1.00  0.00     0.160 C 
HETATM    3  N   UNL     1      25.117  46.081  51.667  1.00  0.00    -0.331 N 
HETATM    4  C   UNL     1      24.328  45.992  50.536  1.00  0.00     0.323 C 
HETATM    5  N   UNL     1      23.736  44.762  50.368  1.00  0.00    -0.309 N 
HETATM    6  O   UNL     1      24.208  46.950  49.779  1.00  0.00    -0.247 OA
HETATM    7  C   UNL     1      25.811  47.318  51.978  1.00  0.00     0.130 C 
HETATM    8  C   UNL     1      26.512  47.041  53.295  1.00  0.00     0.054 C 
HETATM    9  H   UNL     1      23.647  44.208  51.204  1.00  0.00     0.170 HD
ENDROOT
BRANCH   5  10
HETATM   10  C   UNL     1      23.059  44.284  49.225  1.00  0.00     0.037 A 
HETATM   11  C   UNL     1      21.811  44.767  48.813  1.00  0.00     0.043 A 
HETATM   12  C   UNL     1      21.219  44.265  47.635  1.00  0.00    -0.006 A 
HETATM   13  C   UNL     1      21.894  43.292  46.902  1.00  0.00     0.042 A 
HETATM   14  C   UNL     1      20.002  44.537  46.950  1.00  0.00     0.030 A 
HETATM   15  N   UNL     1      21.108  42.984  45.815  1.00  0.00    -0.365 N 
HETATM   16  C   UNL     1      23.141  42.792  47.287  1.00  0.00     0.033 A 
HETATM   17  H   UNL     1      21.347  42.304  45.107  1.00  0.00     0.165 HD
HETATM   18  C   UNL     1      19.962  43.734  45.832  1.00  0.00     0.089 A 
HETATM   19  C   UNL     1      23.710  43.310  48.458  1.00  0.00     0.032 A 
ENDBRANCH   5  10
BRANCH   1  20
HETATM   20  O   UNL     1      27.016  44.948  54.470  1.00  0.00    -0.344 OA
BRANCH  20  21
HETATM   21  C   UNL     1      28.279  44.635  54.889  1.00  0.00     0.070 A 
HETATM   22  C   UNL     1      28.737  45.401  55.964  1.00  0.00     0.060 A 
HETATM   23  C   UNL     1      30.009  45.184  56.491  1.00  0.00     0.036 A 
HETATM   24  C   UNL     1      30.836  44.201  55.955  1.00  0.00     0.024 A 
HETATM   25 CL   UNL     1      30.562  46.137  57.813  1.00  0.00    -0.084 Cl
HETATM   26  C   UNL     1      30.385  43.433  54.884  1.00  0.00     0.004 A 
HETATM   27  C   UNL     1      29.109  43.649  54.351  1.00  0.00     0.037 A 
ENDBRANCH  20  21
ENDBRANCH   1  20
TORSDOF 3
ENDMDL
