MODEL 1
REMARK VINA RESULT:      -9.6      0.000      0.000
REMARK  7 active torsions:
REMARK  status: ('A' for Active; 'I' for Inactive)
REMARK    1  A    between atoms: C_2  and  N_3 
REMARK    2  A    between atoms: C_11  and  C_12 
REMARK    3  A    between atoms: C_14  and  O_15 
REMARK    4  A    between atoms: C_17  and  O_18 
REMARK    5  A    between atoms: O_18  and  C_19 
REMARK    6  A    between atoms: C_19  and  C_20 
REMARK    7  A    between atoms: C_31  and  O_32 
ROOT
HETATM    1  N   UNL     1      17.983  51.800  47.867  1.00  0.00    -0.067 N 
HETATM    2  H   UNL     1      17.480  52.651  47.587  1.00  0.00     0.280 HD
HETATM    3  C   UNL     1      19.311  52.282  48.458  1.00  0.00     0.281 C 
HETATM    4  C   UNL     1      20.288  51.161  48.537  1.00  0.00     0.018 A 
HETATM    5  C   UNL     1      20.210  49.987  47.807  1.00  0.00    -0.024 A 
HETATM    6  C   UNL     1      21.292  49.107  48.134  1.00  0.00     0.057 A 
HETATM    7  C   UNL     1      22.121  49.654  49.084  1.00  0.00     0.087 A 
HETATM    8  N   UNL     1      23.176  48.989  49.582  1.00  0.00    -0.357 N 
HETATM    9  C   UNL     1      23.619  47.790  48.887  1.00  0.00     0.243 C 
HETATM   10  N   UNL     1      22.661  47.124  47.988  1.00  0.00    -0.235 NA
HETATM   11  C   UNL     1      21.614  47.784  47.669  1.00  0.00     0.173 C 
HETATM   12  S   UNL     1      21.642  51.209  49.566  1.00  0.00    -0.074 SA
HETATM   13  C   UNL     1      19.075  49.726  46.860  1.00  0.00     0.068 C 
HETATM   14  C   UNL     1      18.244  50.995  46.593  1.00  0.00     0.240 C 
HETATM   15  H   UNL     1      23.878  49.448  50.155  1.00  0.00     0.162 HD
ENDROOT
BRANCH   9  16
HETATM   16  C   UNL     1      24.114  46.786  49.918  1.00  0.00    -0.012 A 
HETATM   17  C   UNL     1      23.693  45.442  49.871  1.00  0.00     0.050 A 
HETATM   18  C   UNL     1      24.196  44.499  50.772  1.00  0.00     0.102 A 
HETATM   19  C   UNL     1      25.154  44.905  51.714  1.00  0.00     0.112 A 
HETATM   20  C   UNL     1      25.565  46.235  51.791  1.00  0.00     0.041 A 
HETATM   21  C   UNL     1      25.049  47.170  50.890  1.00  0.00     0.014 A 
BRANCH  18  22
HETATM   22  O   UNL     1      23.845  43.175  50.799  1.00  0.00    -0.353 OA
HETATM   23  C   UNL     1      24.156  42.393  49.653  1.00  0.00     0.210 C 
ENDBRANCH  18  22
BRANCH  19  24
HETATM   24  O   UNL     1      25.666  43.880  52.554  1.00  0.00    -0.272 OA
BRANCH  24  25
HETATM   25  C   UNL     1      25.804  43.952  53.930  1.00  0.00     0.300 C 
HETATM   26  O   UNL     1      24.935  43.984  54.785  1.00  0.00    -0.259 OA
BRANCH  25  27
HETATM   27  C   UNL     1      27.239  43.873  54.246  1.00  0.00     0.061 A 
HETATM   28  C   UNL     1      27.948  44.946  54.797  1.00  0.00     0.050 A 
HETATM   29 CL   UNL     1      27.209  46.455  55.195  1.00  0.00    -0.083 Cl
HETATM   30  C   UNL     1      29.307  44.793  55.092  1.00  0.00     0.025 A 
HETATM   31  C   UNL     1      29.950  43.577  54.849  1.00  0.00     0.002 A 
HETATM   32  C   UNL     1      29.236  42.503  54.319  1.00  0.00     0.001 A 
HETATM   33  C   UNL     1      27.880  42.646  54.022  1.00  0.00     0.019 A 
ENDBRANCH  25  27
ENDBRANCH  24  25
ENDBRANCH  19  24
ENDBRANCH   9  16
BRANCH  11  34
HETATM   34  O   UNL     1      20.730  47.207  46.838  1.00  0.00    -0.344 OA
HETATM   35  H   UNL     1      20.080  46.750  47.404  1.00  0.00     0.219 HD
ENDBRANCH  11  34
BRANCH   1  36
HETATM   36  C   UNL     1      17.127  51.113  48.911  1.00  0.00     0.231 C 
HETATM   37  C   UNL     1      16.444  52.125  49.811  1.00  0.00     0.034 C 
ENDBRANCH   1  36
TORSDOF 7
ENDMDL
MODEL 2
REMARK VINA RESULT:      -9.6      2.096      2.999
REMARK  7 active torsions:
REMARK  status: ('A' for Active; 'I' for Inactive)
REMARK    1  A    between atoms: C_2  and  N_3 
REMARK    2  A    between atoms: C_11  and  C_12 
REMARK    3  A    between atoms: C_14  and  O_15 
REMARK    4  A    between atoms: C_17  and  O_18 
REMARK    5  A    between atoms: O_18  and  C_19 
REMARK    6  A    between atoms: C_19  and  C_20 
REMARK    7  A    between atoms: C_31  and  O_32 
ROOT
HETATM    1  N   UNL     1      19.661  50.048  47.559  1.00  0.00    -0.067 N 
HETATM    2  H   UNL     1      19.167  50.677  46.914  1.00  0.00     0.280 HD
HETATM    3  C   UNL     1      21.118  50.519  47.558  1.00  0.00     0.281 C 
HETATM    4  C   UNL     1      22.008  49.471  48.130  1.00  0.00     0.018 A 
HETATM    5  C   UNL     1      21.687  48.129  48.240  1.00  0.00    -0.024 A 
HETATM    6  C   UNL     1      22.752  47.396  48.856  1.00  0.00     0.057 A 
HETATM    7  C   UNL     1      23.810  48.212  49.176  1.00  0.00     0.087 A 
HETATM    8  N   UNL     1      24.903  47.752  49.807  1.00  0.00    -0.357 N 
HETATM    9  C   UNL     1      25.094  46.311  49.884  1.00  0.00     0.243 C 
HETATM   10  N   UNL     1      23.914  45.451  49.691  1.00  0.00    -0.235 NA
HETATM   11  C   UNL     1      22.870  46.005  49.205  1.00  0.00     0.173 C 
HETATM   12  S   UNL     1      23.561  49.828  48.728  1.00  0.00    -0.074 SA
HETATM   13  C   UNL     1      20.351  47.604  47.800  1.00  0.00     0.068 C 
HETATM   14  C   UNL     1      19.570  48.640  46.970  1.00  0.00     0.240 C 
HETATM   15  H   UNL     1      25.746  48.311  49.897  1.00  0.00     0.162 HD
ENDROOT
BRANCH   9  16
HETATM   16  C   UNL     1      25.741  45.977  51.220  1.00  0.00    -0.012 A 
HETATM   17  C   UNL     1      26.385  44.739  51.415  1.00  0.00     0.050 A 
HETATM   18  C   UNL     1      27.040  44.452  52.616  1.00  0.00     0.102 A 
HETATM   19  C   UNL     1      27.072  45.430  53.623  1.00  0.00     0.112 A 
HETATM   20  C   UNL     1      26.420  46.650  53.456  1.00  0.00     0.041 A 
HETATM   21  C   UNL     1      25.761  46.923  52.255  1.00  0.00     0.014 A 
BRANCH  18  22
HETATM   22  O   UNL     1      27.692  43.278  52.893  1.00  0.00    -0.353 OA
HETATM   23  C   UNL     1      28.050  42.455  51.791  1.00  0.00     0.210 C 
ENDBRANCH  18  22
BRANCH  19  24
HETATM   24  O   UNL     1      27.809  45.091  54.789  1.00  0.00    -0.272 OA
BRANCH  24  25
HETATM   25  C   UNL     1      28.773  45.878  55.396  1.00  0.00     0.300 C 
HETATM   26  O   UNL     1      28.793  47.089  55.539  1.00  0.00    -0.259 OA
BRANCH  25  27
HETATM   27  C   UNL     1      29.786  44.985  55.979  1.00  0.00     0.061 A 
HETATM   28  C   UNL     1      30.282  45.155  57.276  1.00  0.00     0.050 A 
HETATM   29 CL   UNL     1      29.734  46.403  58.336  1.00  0.00    -0.083 Cl
HETATM   30  C   UNL     1      31.231  44.254  57.774  1.00  0.00     0.025 A 
HETATM   31  C   UNL     1      31.672  43.188  56.987  1.00  0.00     0.002 A 
HETATM   32  C   UNL     1      31.161  43.008  55.702  1.00  0.00     0.001 A 
HETATM   33  C   UNL     1      30.215  43.901  55.198  1.00  0.00     0.019 A 
ENDBRANCH  25  27
ENDBRANCH  24  25
ENDBRANCH  19  24
ENDBRANCH   9  16
BRANCH  11  34
HETATM   34  O   UNL     1      21.782  45.241  49.005  1.00  0.00    -0.344 OA
HETATM   35  H   UNL     1      21.584  44.817  49.860  1.00  0.00     0.219 HD
ENDBRANCH  11  34
BRANCH   1  36
HETATM   36  C   UNL     1      19.019  50.230  48.919  1.00  0.00     0.231 C 
HETATM   37  C   UNL     1      19.453  51.535  49.559  1.00  0.00     0.034 C 
ENDBRANCH   1  36
TORSDOF 7
ENDMDL
MODEL 3
REMARK VINA RESULT:      -9.2      1.725      2.115
REMARK  7 active torsions:
REMARK  status: ('A' for Active; 'I' for Inactive)
REMARK    1  A    between atoms: C_2  and  N_3 
REMARK    2  A    between atoms: C_11  and  C_12 
REMARK    3  A    between atoms: C_14  and  O_15 
REMARK    4  A    between atoms: C_17  and  O_18 
REMARK    5  A    between atoms: O_18  and  C_19 
REMARK    6  A    between atoms: C_19  and  C_20 
REMARK    7  A    between atoms: C_31  and  O_32 
ROOT
HETATM    1  N   UNL     1      17.939  50.450  48.072  1.00  0.00    -0.067 N 
HETATM    2  H   UNL     1      17.339  51.112  47.565  1.00  0.00     0.280 HD
HETATM    3  C   UNL     1      19.365  50.743  47.598  1.00  0.00     0.281 C 
HETATM    4  C   UNL     1      20.275  49.615  47.944  1.00  0.00     0.018 A 
HETATM    5  C   UNL     1      19.865  48.325  48.237  1.00  0.00    -0.024 A 
HETATM    6  C   UNL     1      20.985  47.490  48.550  1.00  0.00     0.057 A 
HETATM    7  C   UNL     1      22.169  48.183  48.479  1.00  0.00     0.087 A 
HETATM    8  N   UNL     1      23.350  47.616  48.779  1.00  0.00    -0.357 N 
HETATM    9  C   UNL     1      23.404  46.166  48.892  1.00  0.00     0.243 C 
HETATM   10  N   UNL     1      22.139  45.448  49.124  1.00  0.00    -0.235 NA
HETATM   11  C   UNL     1      21.059  46.107  48.940  1.00  0.00     0.173 C 
HETATM   12  S   UNL     1      21.964  49.803  48.019  1.00  0.00    -0.074 SA
HETATM   13  C   UNL     1      18.412  47.950  48.257  1.00  0.00     0.068 C 
HETATM   14  C   UNL     1      17.525  49.044  47.634  1.00  0.00     0.240 C 
HETATM   15  H   UNL     1      24.233  48.073  48.572  1.00  0.00     0.162 HD
ENDROOT
BRANCH   9  16
HETATM   16  C   UNL     1      24.392  45.801  49.989  1.00  0.00    -0.012 A 
HETATM   17  C   UNL     1      24.810  44.466  50.163  1.00  0.00     0.050 A 
HETATM   18  C   UNL     1      25.769  44.132  51.124  1.00  0.00     0.102 A 
HETATM   19  C   UNL     1      26.335  45.155  51.901  1.00  0.00     0.112 A 
HETATM   20  C   UNL     1      25.917  46.477  51.759  1.00  0.00     0.041 A 
HETATM   21  C   UNL     1      24.952  46.797  50.802  1.00  0.00     0.014 A 
BRANCH  18  22
HETATM   22  O   UNL     1      26.234  42.864  51.361  1.00  0.00    -0.353 OA
HETATM   23  C   UNL     1      26.804  42.163  50.265  1.00  0.00     0.210 C 
ENDBRANCH  18  22
BRANCH  19  24
HETATM   24  O   UNL     1      27.347  44.749  52.812  1.00  0.00    -0.272 OA
BRANCH  24  25
HETATM   25  C   UNL     1      27.160  44.444  54.149  1.00  0.00     0.300 C 
HETATM   26  O   UNL     1      26.121  44.196  54.739  1.00  0.00    -0.259 OA
BRANCH  25  27
HETATM   27  C   UNL     1      28.484  44.349  54.782  1.00  0.00     0.061 A 
HETATM   28  C   UNL     1      29.308  43.227  54.640  1.00  0.00     0.050 A 
HETATM   29 CL   UNL     1      28.872  41.857  53.682  1.00  0.00    -0.083 Cl
HETATM   30  C   UNL     1      30.565  43.213  55.253  1.00  0.00     0.025 A 
HETATM   31  C   UNL     1      31.001  44.315  55.994  1.00  0.00     0.002 A 
HETATM   32  C   UNL     1      30.188  45.441  56.117  1.00  0.00     0.001 A 
HETATM   33  C   UNL     1      28.932  45.463  55.508  1.00  0.00     0.019 A 
ENDBRANCH  25  27
ENDBRANCH  24  25
ENDBRANCH  19  24
ENDBRANCH   9  16
BRANCH  11  34
HETATM   34  O   UNL     1      19.890  45.472  49.130  1.00  0.00    -0.344 OA
HETATM   35  H   UNL     1      19.959  44.623  48.657  1.00  0.00     0.219 HD
ENDBRANCH  11  34
BRANCH   1  36
HETATM   36  C   UNL     1      17.770  50.751  49.547  1.00  0.00     0.231 C 
HETATM   37  C   UNL     1      18.281  52.139  49.884  1.00  0.00     0.034 C 
ENDBRANCH   1  36
TORSDOF 7
ENDMDL
MODEL 4
REMARK VINA RESULT:      -9.0      1.629      2.360
REMARK  7 active torsions:
REMARK  status: ('A' for Active; 'I' for Inactive)
REMARK    1  A    between atoms: C_2  and  N_3 
REMARK    2  A    between atoms: C_11  and  C_12 
REMARK    3  A    between atoms: C_14  and  O_15 
REMARK    4  A    between atoms: C_17  and  O_18 
REMARK    5  A    between atoms: O_18  and  C_19 
REMARK    6  A    between atoms: C_19  and  C_20 
REMARK    7  A    between atoms: C_31  and  O_32 
ROOT
HETATM    1  N   UNL     1      17.050  51.076  48.024  1.00  0.00    -0.067 N 
HETATM    2  H   UNL     1      16.474  51.812  47.598  1.00  0.00     0.280 HD
HETATM    3  C   UNL     1      18.450  51.253  47.429  1.00  0.00     0.281 C 
HETATM    4  C   UNL     1      19.272  50.031  47.651  1.00  0.00     0.018 A 
HETATM    5  C   UNL     1      18.767  48.775  47.937  1.00  0.00    -0.024 A 
HETATM    6  C   UNL     1      19.824  47.825  48.116  1.00  0.00     0.057 A 
HETATM    7  C   UNL     1      21.059  48.406  47.959  1.00  0.00     0.087 A 
HETATM    8  N   UNL     1      22.201  47.719  48.130  1.00  0.00    -0.357 N 
HETATM    9  C   UNL     1      22.123  46.267  48.188  1.00  0.00     0.243 C 
HETATM   10  N   UNL     1      20.820  45.661  48.512  1.00  0.00    -0.235 NA
HETATM   11  C   UNL     1      19.797  46.426  48.451  1.00  0.00     0.173 C 
HETATM   12  S   UNL     1      20.972  50.056  47.575  1.00  0.00    -0.074 SA
HETATM   13  C   UNL     1      17.291  48.536  48.079  1.00  0.00     0.068 C 
HETATM   14  C   UNL     1      16.463  49.735  47.579  1.00  0.00     0.240 C 
HETATM   15  H   UNL     1      23.102  48.100  47.857  1.00  0.00     0.162 HD
ENDROOT
BRANCH   9  16
HETATM   16  C   UNL     1      23.165  45.764  49.176  1.00  0.00    -0.012 A 
HETATM   17  C   UNL     1      24.223  46.598  49.590  1.00  0.00     0.050 A 
HETATM   18  C   UNL     1      25.145  46.168  50.548  1.00  0.00     0.102 A 
HETATM   19  C   UNL     1      24.986  44.894  51.118  1.00  0.00     0.112 A 
HETATM   20  C   UNL     1      23.960  44.047  50.703  1.00  0.00     0.041 A 
HETATM   21  C   UNL     1      23.050  44.485  49.739  1.00  0.00     0.014 A 
BRANCH  18  22
HETATM   22  O   UNL     1      26.201  46.909  51.010  1.00  0.00    -0.353 OA
HETATM   23  C   UNL     1      26.630  48.002  50.210  1.00  0.00     0.210 C 
ENDBRANCH  18  22
BRANCH  19  24
HETATM   24  O   UNL     1      25.922  44.551  52.130  1.00  0.00    -0.272 OA
BRANCH  24  25
HETATM   25  C   UNL     1      25.696  44.602  53.495  1.00  0.00     0.300 C 
HETATM   26  O   UNL     1      24.732  44.204  54.126  1.00  0.00    -0.259 OA
BRANCH  25  27
HETATM   27  C   UNL     1      26.906  45.144  54.134  1.00  0.00     0.061 A 
HETATM   28  C   UNL     1      27.036  46.494  54.476  1.00  0.00     0.050 A 
HETATM   29 CL   UNL     1      25.782  47.654  54.217  1.00  0.00    -0.083 Cl
HETATM   30  C   UNL     1      28.207  46.937  55.101  1.00  0.00     0.025 A 
HETATM   31  C   UNL     1      29.235  46.037  55.391  1.00  0.00     0.002 A 
HETATM   32  C   UNL     1      29.095  44.687  55.068  1.00  0.00     0.001 A 
HETATM   33  C   UNL     1      27.930  44.238  54.445  1.00  0.00     0.019 A 
ENDBRANCH  25  27
ENDBRANCH  24  25
ENDBRANCH  19  24
ENDBRANCH   9  16
BRANCH  11  34
HETATM   34  O   UNL     1      18.593  45.897  48.728  1.00  0.00    -0.344 OA
HETATM   35  H   UNL     1      17.995  46.191  48.016  1.00  0.00     0.219 HD
ENDBRANCH  11  34
BRANCH   1  36
HETATM   36  C   UNL     1      17.043  51.329  49.517  1.00  0.00     0.231 C 
HETATM   37  C   UNL     1      18.042  52.406  49.894  1.00  0.00     0.034 C 
ENDBRANCH   1  36
TORSDOF 7
ENDMDL
MODEL 5
REMARK VINA RESULT:      -8.5      3.750     10.469
REMARK  7 active torsions:
REMARK  status: ('A' for Active; 'I' for Inactive)
REMARK    1  A    between atoms: C_2  and  N_3 
REMARK    2  A    between atoms: C_11  and  C_12 
REMARK    3  A    between atoms: C_14  and  O_15 
REMARK    4  A    between atoms: C_17  and  O_18 
REMARK    5  A    between atoms: O_18  and  C_19 
REMARK    6  A    between atoms: C_19  and  C_20 
REMARK    7  A    between atoms: C_31  and  O_32 
ROOT
HETATM    1  N   UNL     1      26.808  43.147  51.978  1.00  0.00    -0.067 N 
HETATM    2  H   UNL     1      27.422  42.327  52.058  1.00  0.00     0.280 HD
HETATM    3  C   UNL     1      25.663  42.715  51.057  1.00  0.00     0.281 C 
HETATM    4  C   UNL     1      24.926  43.904  50.544  1.00  0.00     0.018 A 
HETATM    5  C   UNL     1      25.424  45.195  50.514  1.00  0.00    -0.024 A 
HETATM    6  C   UNL     1      24.455  46.106  49.983  1.00  0.00     0.057 A 
HETATM    7  C   UNL     1      23.289  45.464  49.643  1.00  0.00     0.087 A 
HETATM    8  N   UNL     1      22.220  46.125  49.169  1.00  0.00    -0.357 N 
HETATM    9  C   UNL     1      22.404  47.500  48.729  1.00  0.00     0.243 C 
HETATM   10  N   UNL     1      23.583  48.228  49.230  1.00  0.00    -0.235 NA
HETATM   11  C   UNL     1      24.498  47.531  49.787  1.00  0.00     0.173 C 
HETATM   12  S   UNL     1      23.346  43.792  49.922  1.00  0.00    -0.074 SA
HETATM   13  C   UNL     1      26.790  45.521  51.044  1.00  0.00     0.068 C 
HETATM   14  C   UNL     1      27.624  44.253  51.307  1.00  0.00     0.240 C 
HETATM   15  H   UNL     1      21.424  45.639  48.767  1.00  0.00     0.162 HD
ENDROOT
BRANCH   9  16
HETATM   16  C   UNL     1      21.150  48.291  49.068  1.00  0.00    -0.012 A 
HETATM   17  C   UNL     1      19.889  47.662  49.090  1.00  0.00     0.050 A 
HETATM   18  C   UNL     1      18.741  48.366  49.467  1.00  0.00     0.102 A 
HETATM   19  C   UNL     1      18.866  49.710  49.853  1.00  0.00     0.112 A 
HETATM   20  C   UNL     1      20.101  50.354  49.814  1.00  0.00     0.041 A 
HETATM   21  C   UNL     1      21.239  49.643  49.428  1.00  0.00     0.014 A 
BRANCH  18  22
HETATM   22  O   UNL     1      17.478  47.836  49.518  1.00  0.00    -0.353 OA
HETATM   23  C   UNL     1      17.047  47.068  48.403  1.00  0.00     0.210 C 
ENDBRANCH  18  22
BRANCH  19  24
HETATM   24  O   UNL     1      17.668  50.341  50.283  1.00  0.00    -0.272 OA
BRANCH  24  25
HETATM   25  C   UNL     1      17.162  51.536  49.799  1.00  0.00     0.300 C 
HETATM   26  O   UNL     1      17.035  52.602  50.376  1.00  0.00    -0.259 OA
BRANCH  25  27
HETATM   27  C   UNL     1      16.877  51.360  48.366  1.00  0.00     0.061 A 
HETATM   28  C   UNL     1      17.686  51.909  47.365  1.00  0.00     0.050 A 
HETATM   29 CL   UNL     1      19.115  52.818  47.705  1.00  0.00    -0.083 Cl
HETATM   30  C   UNL     1      17.367  51.684  46.022  1.00  0.00     0.025 A 
HETATM   31  C   UNL     1      16.256  50.908  45.681  1.00  0.00     0.002 A 
HETATM   32  C   UNL     1      15.464  50.343  46.680  1.00  0.00     0.001 A 
HETATM   33  C   UNL     1      15.775  50.563  48.022  1.00  0.00     0.019 A 
ENDBRANCH  25  27
ENDBRANCH  24  25
ENDBRANCH  19  24
ENDBRANCH   9  16
BRANCH  11  34
HETATM   34  O   UNL     1      25.592  48.167  50.240  1.00  0.00    -0.344 OA
HETATM   35  H   UNL     1      25.274  48.972  50.689  1.00  0.00     0.219 HD
ENDBRANCH  11  34
BRANCH   1  36
HETATM   36  C   UNL     1      26.312  43.457  53.375  1.00  0.00     0.231 C 
HETATM   37  C   UNL     1      27.468  43.729  54.318  1.00  0.00     0.034 C 
ENDBRANCH   1  36
TORSDOF 7
ENDMDL
MODEL 6
REMARK VINA RESULT:      -8.4      7.344     10.489
REMARK  7 active torsions:
REMARK  status: ('A' for Active; 'I' for Inactive)
REMARK    1  A    between atoms: C_2  and  N_3 
REMARK    2  A    between atoms: C_11  and  C_12 
REMARK    3  A    between atoms: C_14  and  O_15 
REMARK    4  A    between atoms: C_17  and  O_18 
REMARK    5  A    between atoms: O_18  and  C_19 
REMARK    6  A    between atoms: C_19  and  C_20 
REMARK    7  A    between atoms: C_31  and  O_32 
ROOT
HETATM    1  N   UNL     1      28.060  36.351  44.812  1.00  0.00    -0.067 N 
HETATM    2  H   UNL     1      27.864  35.598  44.142  1.00  0.00     0.280 HD
HETATM    3  C   UNL     1      27.224  36.026  46.053  1.00  0.00     0.281 C 
HETATM    4  C   UNL     1      27.106  37.221  46.934  1.00  0.00     0.018 A 
HETATM    5  C   UNL     1      27.316  38.528  46.532  1.00  0.00    -0.024 A 
HETATM    6  C   UNL     1      27.146  39.436  47.626  1.00  0.00     0.057 A 
HETATM    7  C   UNL     1      26.822  38.775  48.786  1.00  0.00     0.087 A 
HETATM    8  N   UNL     1      26.662  39.417  49.955  1.00  0.00    -0.357 N 
HETATM    9  C   UNL     1      26.537  40.867  49.929  1.00  0.00     0.243 C 
HETATM   10  N   UNL     1      27.035  41.577  48.737  1.00  0.00    -0.235 NA
HETATM   11  C   UNL     1      27.287  40.865  47.706  1.00  0.00     0.173 C 
HETATM   12  S   UNL     1      26.690  37.097  48.579  1.00  0.00    -0.074 SA
HETATM   13  C   UNL     1      27.722  38.861  45.124  1.00  0.00     0.068 C 
HETATM   14  C   UNL     1      27.567  37.653  44.180  1.00  0.00     0.240 C 
HETATM   15  H   UNL     1      26.265  38.958  50.770  1.00  0.00     0.162 HD
ENDROOT
BRANCH   9  16
HETATM   16  C   UNL     1      27.215  41.436  51.166  1.00  0.00    -0.012 A 
HETATM   17  C   UNL     1      26.719  42.601  51.785  1.00  0.00     0.050 A 
HETATM   18  C   UNL     1      27.294  43.091  52.961  1.00  0.00     0.102 A 
HETATM   19  C   UNL     1      28.364  42.388  53.537  1.00  0.00     0.112 A 
HETATM   20  C   UNL     1      28.884  41.248  52.925  1.00  0.00     0.041 A 
HETATM   21  C   UNL     1      28.306  40.772  51.747  1.00  0.00     0.014 A 
BRANCH  18  22
HETATM   22  O   UNL     1      26.877  44.212  53.630  1.00  0.00    -0.353 OA
HETATM   23  C   UNL     1      26.706  45.400  52.869  1.00  0.00     0.210 C 
ENDBRANCH  18  22
BRANCH  19  24
HETATM   24  O   UNL     1      28.856  42.910  54.763  1.00  0.00    -0.272 OA
BRANCH  24  25
HETATM   25  C   UNL     1      30.118  43.441  54.971  1.00  0.00     0.300 C 
HETATM   26  O   UNL     1      31.129  43.293  54.305  1.00  0.00    -0.259 OA
BRANCH  25  27
HETATM   27  C   UNL     1      30.041  44.354  56.121  1.00  0.00     0.061 A 
HETATM   28  C   UNL     1      30.909  44.262  57.215  1.00  0.00     0.050 A 
HETATM   29 CL   UNL     1      32.178  43.094  57.311  1.00  0.00    -0.083 Cl
HETATM   30  C   UNL     1      30.792  45.178  58.266  1.00  0.00     0.025 A 
HETATM   31  C   UNL     1      29.824  46.184  58.221  1.00  0.00     0.002 A 
HETATM   32  C   UNL     1      28.973  46.287  57.121  1.00  0.00     0.001 A 
HETATM   33  C   UNL     1      29.083  45.378  56.068  1.00  0.00     0.019 A 
ENDBRANCH  25  27
ENDBRANCH  24  25
ENDBRANCH  19  24
ENDBRANCH   9  16
BRANCH  11  34
HETATM   34  O   UNL     1      27.728  41.489  46.599  1.00  0.00    -0.344 OA
HETATM   35  H   UNL     1      26.935  41.727  46.085  1.00  0.00     0.219 HD
ENDBRANCH  11  34
BRANCH   1  36
HETATM   36  C   UNL     1      29.544  36.291  45.111  1.00  0.00     0.231 C 
HETATM   37  C   UNL     1      30.364  36.602  43.873  1.00  0.00     0.034 C 
ENDBRANCH   1  36
TORSDOF 7
ENDMDL
MODEL 7
REMARK VINA RESULT:      -8.4      4.944     10.767
REMARK  7 active torsions:
REMARK  status: ('A' for Active; 'I' for Inactive)
REMARK    1  A    between atoms: C_2  and  N_3 
REMARK    2  A    between atoms: C_11  and  C_12 
REMARK    3  A    between atoms: C_14  and  O_15 
REMARK    4  A    between atoms: C_17  and  O_18 
REMARK    5  A    between atoms: O_18  and  C_19 
REMARK    6  A    between atoms: C_19  and  C_20 
REMARK    7  A    between atoms: C_31  and  O_32 
ROOT
HETATM    1  N   UNL     1      26.842  36.589  47.722  1.00  0.00    -0.067 N 
HETATM    2  H   UNL     1      27.250  35.739  47.314  1.00  0.00     0.280 HD
HETATM    3  C   UNL     1      27.480  37.756  46.964  1.00  0.00     0.281 C 
HETATM    4  C   UNL     1      27.285  39.033  47.705  1.00  0.00     0.018 A 
HETATM    5  C   UNL     1      26.983  39.131  49.053  1.00  0.00    -0.024 A 
HETATM    6  C   UNL     1      26.837  40.500  49.448  1.00  0.00     0.057 A 
HETATM    7  C   UNL     1      27.033  41.355  48.391  1.00  0.00     0.087 A 
HETATM    8  N   UNL     1      26.899  42.687  48.513  1.00  0.00    -0.357 N 
HETATM    9  C   UNL     1      26.838  43.248  49.854  1.00  0.00     0.243 C 
HETATM   10  N   UNL     1      26.473  42.346  50.961  1.00  0.00    -0.235 NA
HETATM   11  C   UNL     1      26.501  41.092  50.715  1.00  0.00     0.173 C 
HETATM   12  S   UNL     1      27.415  40.551  46.947  1.00  0.00    -0.074 SA
HETATM   13  C   UNL     1      26.794  37.909  49.905  1.00  0.00     0.068 C 
HETATM   14  C   UNL     1      27.268  36.629  49.191  1.00  0.00     0.240 C 
HETATM   15  H   UNL     1      27.201  43.325  47.783  1.00  0.00     0.162 HD
ENDROOT
BRANCH   9  16
HETATM   16  C   UNL     1      25.884  44.432  49.842  1.00  0.00    -0.012 A 
HETATM   17  C   UNL     1      26.367  45.745  50.018  1.00  0.00     0.050 A 
HETATM   18  C   UNL     1      25.506  46.844  49.940  1.00  0.00     0.102 A 
HETATM   19  C   UNL     1      24.149  46.624  49.656  1.00  0.00     0.112 A 
HETATM   20  C   UNL     1      23.650  45.331  49.503  1.00  0.00     0.041 A 
HETATM   21  C   UNL     1      24.517  44.241  49.591  1.00  0.00     0.014 A 
BRANCH  18  22
HETATM   22  O   UNL     1      25.887  48.151  50.097  1.00  0.00    -0.353 OA
HETATM   23  C   UNL     1      26.913  48.639  49.242  1.00  0.00     0.210 C 
ENDBRANCH  18  22
BRANCH  19  24
HETATM   24  O   UNL     1      23.348  47.791  49.530  1.00  0.00    -0.272 OA
BRANCH  24  25
HETATM   25  C   UNL     1      22.446  48.049  48.512  1.00  0.00     0.300 C 
HETATM   26  O   UNL     1      22.400  47.571  47.391  1.00  0.00    -0.259 OA
BRANCH  25  27
HETATM   27  C   UNL     1      21.419  48.962  49.038  1.00  0.00     0.061 A 
HETATM   28  C   UNL     1      21.636  50.336  49.183  1.00  0.00     0.050 A 
HETATM   29 CL   UNL     1      23.114  51.107  48.728  1.00  0.00    -0.083 Cl
HETATM   30  C   UNL     1      20.607  51.148  49.671  1.00  0.00     0.025 A 
HETATM   31  C   UNL     1      19.368  50.594  50.001  1.00  0.00     0.002 A 
HETATM   32  C   UNL     1      19.146  49.228  49.836  1.00  0.00     0.001 A 
HETATM   33  C   UNL     1      20.167  48.411  49.350  1.00  0.00     0.019 A 
ENDBRANCH  25  27
ENDBRANCH  24  25
ENDBRANCH  19  24
ENDBRANCH   9  16
BRANCH  11  34
HETATM   34  O   UNL     1      26.187  40.244  51.710  1.00  0.00    -0.344 OA
HETATM   35  H   UNL     1      26.184  40.773  52.529  1.00  0.00     0.219 HD
ENDBRANCH  11  34
BRANCH   1  36
HETATM   36  C   UNL     1      25.349  36.516  47.476  1.00  0.00     0.231 C 
HETATM   37  C   UNL     1      24.898  35.081  47.278  1.00  0.00     0.034 C 
ENDBRANCH   1  36
TORSDOF 7
ENDMDL
MODEL 8
REMARK VINA RESULT:      -8.3      6.770     10.361
REMARK  7 active torsions:
REMARK  status: ('A' for Active; 'I' for Inactive)
REMARK    1  A    between atoms: C_2  and  N_3 
REMARK    2  A    between atoms: C_11  and  C_12 
REMARK    3  A    between atoms: C_14  and  O_15 
REMARK    4  A    between atoms: C_17  and  O_18 
REMARK    5  A    between atoms: O_18  and  C_19 
REMARK    6  A    between atoms: C_19  and  C_20 
REMARK    7  A    between atoms: C_31  and  O_32 
ROOT
HETATM    1  N   UNL     1      29.430  37.244  42.958  1.00  0.00    -0.067 N 
HETATM    2  H   UNL     1      29.574  36.462  42.307  1.00  0.00     0.280 HD
HETATM    3  C   UNL     1      29.251  36.605  44.337  1.00  0.00     0.281 C 
HETATM    4  C   UNL     1      28.650  37.577  45.292  1.00  0.00     0.018 A 
HETATM    5  C   UNL     1      27.949  38.715  44.931  1.00  0.00    -0.024 A 
HETATM    6  C   UNL     1      27.525  39.445  46.088  1.00  0.00     0.057 A 
HETATM    7  C   UNL     1      27.924  38.829  47.250  1.00  0.00     0.087 A 
HETATM    8  N   UNL     1      27.682  39.358  48.461  1.00  0.00    -0.357 N 
HETATM    9  C   UNL     1      26.722  40.448  48.551  1.00  0.00     0.243 C 
HETATM   10  N   UNL     1      26.421  41.202  47.322  1.00  0.00    -0.235 NA
HETATM   11  C   UNL     1      26.807  40.684  46.219  1.00  0.00     0.173 C 
HETATM   12  S   UNL     1      28.769  37.383  46.978  1.00  0.00    -0.074 SA
HETATM   13  C   UNL     1      27.753  39.091  43.491  1.00  0.00     0.068 C 
HETATM   14  C   UNL     1      28.136  37.943  42.538  1.00  0.00     0.240 C 
HETATM   15  H   UNL     1      27.828  38.830  49.316  1.00  0.00     0.162 HD
ENDROOT
BRANCH   9  16
HETATM   16  C   UNL     1      27.187  41.417  49.628  1.00  0.00    -0.012 A 
HETATM   17  C   UNL     1      26.728  42.750  49.640  1.00  0.00     0.050 A 
HETATM   18  C   UNL     1      27.097  43.627  50.664  1.00  0.00     0.102 A 
HETATM   19  C   UNL     1      27.914  43.153  51.703  1.00  0.00     0.112 A 
HETATM   20  C   UNL     1      28.396  41.845  51.694  1.00  0.00     0.041 A 
HETATM   21  C   UNL     1      28.028  40.980  50.661  1.00  0.00     0.014 A 
BRANCH  18  22
HETATM   22  O   UNL     1      26.699  44.936  50.757  1.00  0.00    -0.353 OA
HETATM   23  C   UNL     1      26.978  45.783  49.651  1.00  0.00     0.210 C 
ENDBRANCH  18  22
BRANCH  19  24
HETATM   24  O   UNL     1      28.195  44.082  52.740  1.00  0.00    -0.272 OA
BRANCH  24  25
HETATM   25  C   UNL     1      27.791  43.971  54.059  1.00  0.00     0.300 C 
HETATM   26  O   UNL     1      26.697  43.663  54.501  1.00  0.00    -0.259 OA
BRANCH  25  27
HETATM   27  C   UNL     1      28.969  44.188  54.914  1.00  0.00     0.061 A 
HETATM   28  C   UNL     1      29.185  45.383  55.609  1.00  0.00     0.050 A 
HETATM   29 CL   UNL     1      28.078  46.708  55.566  1.00  0.00    -0.083 Cl
HETATM   30  C   UNL     1      30.318  45.512  56.420  1.00  0.00     0.025 A 
HETATM   31  C   UNL     1      31.221  44.454  56.544  1.00  0.00     0.002 A 
HETATM   32  C   UNL     1      30.994  43.257  55.867  1.00  0.00     0.001 A 
HETATM   33  C   UNL     1      29.866  43.119  55.056  1.00  0.00     0.019 A 
ENDBRANCH  25  27
ENDBRANCH  24  25
ENDBRANCH  19  24
ENDBRANCH   9  16
BRANCH  11  34
HETATM   34  O   UNL     1      26.532  41.343  45.079  1.00  0.00    -0.344 OA
HETATM   35  H   UNL     1      27.245  41.117  44.454  1.00  0.00     0.219 HD
ENDBRANCH  11  34
BRANCH   1  36
HETATM   36  C   UNL     1      30.682  38.095  42.897  1.00  0.00     0.231 C 
HETATM   37  C   UNL     1      30.772  38.841  41.579  1.00  0.00     0.034 C 
ENDBRANCH   1  36
TORSDOF 7
ENDMDL
MODEL 9
REMARK VINA RESULT:      -8.2      2.251      3.137
REMARK  7 active torsions:
REMARK  status: ('A' for Active; 'I' for Inactive)
REMARK    1  A    between atoms: C_2  and  N_3 
REMARK    2  A    between atoms: C_11  and  C_12 
REMARK    3  A    between atoms: C_14  and  O_15 
REMARK    4  A    between atoms: C_17  and  O_18 
REMARK    5  A    between atoms: O_18  and  C_19 
REMARK    6  A    between atoms: C_19  and  C_20 
REMARK    7  A    between atoms: C_31  and  O_32 
ROOT
HETATM    1  N   UNL     1      17.468  49.976  48.544  1.00  0.00    -0.067 N 
HETATM    2  H   UNL     1      16.802  50.700  48.249  1.00  0.00     0.280 HD
HETATM    3  C   UNL     1      18.656  50.093  47.586  1.00  0.00     0.281 C 
HETATM    4  C   UNL     1      19.502  48.869  47.646  1.00  0.00     0.018 A 
HETATM    5  C   UNL     1      19.086  47.639  48.128  1.00  0.00    -0.024 A 
HETATM    6  C   UNL     1      20.147  46.679  48.069  1.00  0.00     0.057 A 
HETATM    7  C   UNL     1      21.297  47.227  47.552  1.00  0.00     0.087 A 
HETATM    8  N   UNL     1      22.439  46.527  47.447  1.00  0.00    -0.357 N 
HETATM    9  C   UNL     1      22.373  45.081  47.606  1.00  0.00     0.243 C 
HETATM   10  N   UNL     1      21.202  44.520  48.303  1.00  0.00    -0.235 NA
HETATM   11  C   UNL     1      20.206  45.301  48.477  1.00  0.00     0.173 C 
HETATM   12  S   UNL     1      21.118  48.855  47.113  1.00  0.00    -0.074 SA
HETATM   13  C   UNL     1      17.703  47.439  48.676  1.00  0.00     0.068 C 
HETATM   14  C   UNL     1      16.776  48.625  48.350  1.00  0.00     0.240 C 
HETATM   15  H   UNL     1      23.235  46.874  46.920  1.00  0.00     0.162 HD
ENDROOT
BRANCH   9  16
HETATM   16  C   UNL     1      23.640  44.611  48.303  1.00  0.00    -0.012 A 
HETATM   17  C   UNL     1      24.510  45.537  48.912  1.00  0.00     0.050 A 
HETATM   18  C   UNL     1      25.641  45.107  49.613  1.00  0.00     0.102 A 
HETATM   19  C   UNL     1      25.885  43.729  49.727  1.00  0.00     0.112 A 
HETATM   20  C   UNL     1      25.048  42.800  49.112  1.00  0.00     0.041 A 
HETATM   21  C   UNL     1      23.927  43.242  48.407  1.00  0.00     0.014 A 
BRANCH  18  22
HETATM   22  O   UNL     1      26.539  45.935  50.236  1.00  0.00    -0.353 OA
HETATM   23  C   UNL     1      26.014  46.970  51.056  1.00  0.00     0.210 C 
ENDBRANCH  18  22
BRANCH  19  24
HETATM   24  O   UNL     1      27.016  43.367  50.507  1.00  0.00    -0.272 OA
BRANCH  24  25
HETATM   25  C   UNL     1      27.001  42.555  51.629  1.00  0.00     0.300 C 
HETATM   26  O   UNL     1      26.922  41.340  51.693  1.00  0.00    -0.259 OA
BRANCH  25  27
HETATM   27  C   UNL     1      27.213  43.409  52.808  1.00  0.00     0.061 A 
HETATM   28  C   UNL     1      28.477  43.609  53.375  1.00  0.00     0.050 A 
HETATM   29 CL   UNL     1      29.917  42.906  52.731  1.00  0.00    -0.083 Cl
HETATM   30  C   UNL     1      28.609  44.452  54.484  1.00  0.00     0.025 A 
HETATM   31  C   UNL     1      27.490  45.097  55.017  1.00  0.00     0.002 A 
HETATM   32  C   UNL     1      26.235  44.913  54.438  1.00  0.00     0.001 A 
HETATM   33  C   UNL     1      26.095  44.075  53.331  1.00  0.00     0.019 A 
ENDBRANCH  25  27
ENDBRANCH  24  25
ENDBRANCH  19  24
ENDBRANCH   9  16
BRANCH  11  34
HETATM   34  O   UNL     1      19.118  44.811  49.097  1.00  0.00    -0.344 OA
HETATM   35  H   UNL     1      18.796  45.519  49.684  1.00  0.00     0.219 HD
ENDBRANCH  11  34
BRANCH   1  36
HETATM   36  C   UNL     1      17.867  50.308  49.968  1.00  0.00     0.231 C 
HETATM   37  C   UNL     1      18.875  51.441  50.004  1.00  0.00     0.034 C 
ENDBRANCH   1  36
TORSDOF 7
ENDMDL
MODEL 10
REMARK VINA RESULT:      -8.0     14.769     15.900
REMARK  7 active torsions:
REMARK  status: ('A' for Active; 'I' for Inactive)
REMARK    1  A    between atoms: C_2  and  N_3 
REMARK    2  A    between atoms: C_11  and  C_12 
REMARK    3  A    between atoms: C_14  and  O_15 
REMARK    4  A    between atoms: C_17  and  O_18 
REMARK    5  A    between atoms: O_18  and  C_19 
REMARK    6  A    between atoms: C_19  and  C_20 
REMARK    7  A    between atoms: C_31  and  O_32 
ROOT
HETATM    1  N   UNL     1      29.037  50.564  39.681  1.00  0.00    -0.067 N 
HETATM    2  H   UNL     1      28.226  50.673  39.059  1.00  0.00     0.280 HD
HETATM    3  C   UNL     1      29.936  51.771  39.400  1.00  0.00     0.281 C 
HETATM    4  C   UNL     1      31.308  51.539  39.931  1.00  0.00     0.018 A 
HETATM    5  C   UNL     1      31.844  50.299  40.231  1.00  0.00    -0.024 A 
HETATM    6  C   UNL     1      33.175  50.425  40.744  1.00  0.00     0.057 A 
HETATM    7  C   UNL     1      33.571  51.739  40.806  1.00  0.00     0.087 A 
HETATM    8  N   UNL     1      34.765  52.105  41.301  1.00  0.00    -0.357 N 
HETATM    9  C   UNL     1      35.770  51.071  41.497  1.00  0.00     0.243 C 
HETATM   10  N   UNL     1      35.310  49.674  41.585  1.00  0.00    -0.235 NA
HETATM   11  C   UNL     1      34.110  49.438  41.214  1.00  0.00     0.173 C 
HETATM   12  S   UNL     1      32.391  52.816  40.236  1.00  0.00    -0.074 SA
HETATM   13  C   UNL     1      31.046  49.038  40.064  1.00  0.00     0.068 C 
HETATM   14  C   UNL     1      29.751  49.277  39.263  1.00  0.00     0.240 C 
HETATM   15  H   UNL     1      35.123  53.050  41.198  1.00  0.00     0.162 HD
ENDROOT
BRANCH   9  16
HETATM   16  C   UNL     1      36.577  51.407  42.742  1.00  0.00    -0.012 A 
HETATM   17  C   UNL     1      37.677  50.612  43.121  1.00  0.00     0.050 A 
HETATM   18  C   UNL     1      38.465  50.953  44.224  1.00  0.00     0.102 A 
HETATM   19  C   UNL     1      38.161  52.123  44.939  1.00  0.00     0.112 A 
HETATM   20  C   UNL     1      37.063  52.908  44.593  1.00  0.00     0.041 A 
HETATM   21  C   UNL     1      36.278  52.552  43.494  1.00  0.00     0.014 A 
BRANCH  18  22
HETATM   22  O   UNL     1      39.551  50.241  44.662  1.00  0.00    -0.353 OA
HETATM   23  C   UNL     1      39.691  48.908  44.192  1.00  0.00     0.210 C 
ENDBRANCH  18  22
BRANCH  19  24
HETATM   24  O   UNL     1      39.043  52.439  46.007  1.00  0.00    -0.272 OA
BRANCH  24  25
HETATM   25  C   UNL     1      38.808  53.371  47.003  1.00  0.00     0.300 C 
HETATM   26  O   UNL     1      37.872  53.440  47.782  1.00  0.00    -0.259 OA
BRANCH  25  27
HETATM   27  C   UNL     1      39.973  54.268  47.067  1.00  0.00     0.061 A 
HETATM   28  C   UNL     1      40.043  55.464  46.345  1.00  0.00     0.050 A 
HETATM   29 CL   UNL     1      38.761  56.028  45.335  1.00  0.00    -0.083 Cl
HETATM   30  C   UNL     1      41.174  56.279  46.470  1.00  0.00     0.025 A 
HETATM   31  C   UNL     1      42.221  55.907  47.317  1.00  0.00     0.002 A 
HETATM   32  C   UNL     1      42.140  54.725  48.052  1.00  0.00     0.001 A 
HETATM   33  C   UNL     1      41.016  53.907  47.933  1.00  0.00     0.019 A 
ENDBRANCH  25  27
ENDBRANCH  24  25
ENDBRANCH  19  24
ENDBRANCH   9  16
BRANCH  11  34
HETATM   34  O   UNL     1      33.668  48.169  41.269  1.00  0.00    -0.344 OA
HETATM   35  H   UNL     1      32.997  48.083  40.567  1.00  0.00     0.219 HD
ENDBRANCH  11  34
BRANCH   1  36
HETATM   36  C   UNL     1      28.504  50.585  41.098  1.00  0.00     0.231 C 
HETATM   37  C   UNL     1      27.642  51.810  41.340  1.00  0.00     0.034 C 
ENDBRANCH   1  36
TORSDOF 7
ENDMDL
