MODEL 1
REMARK VINA RESULT:      -9.8      0.000      0.000
REMARK  11 active torsions:
REMARK  status: ('A' for Active; 'I' for Inactive)
REMARK    1  A    between atoms: C_3  and  N_4 
REMARK    2  A    between atoms: N_4  and  C_5 
REMARK    3  A    between atoms: C_7  and  C_8 
REMARK    4  A    between atoms: C_18  and  N_19 
REMARK       I    between atoms: N_19  and  C_20 
REMARK    5  A    between atoms: C_20  and  C_21 
REMARK    6  A    between atoms: C_22  and  C_23 
REMARK    7  A    between atoms: C_26  and  O_27 
REMARK    8  A    between atoms: O_27  and  C_28 
REMARK    9  A    between atoms: C_28  and  C_29 
REMARK   10  A    between atoms: C_29  and  C_30 
REMARK   11  A    between atoms: C_30  and  N_31 
ROOT
HETATM    1  C   UNL     1      27.124  42.567  50.306  1.00  0.00     0.050 C 
HETATM    2  C   UNL     1      26.060  43.631  50.243  1.00  0.00    -0.035 A 
HETATM    3  C   UNL     1      25.752  44.443  51.356  1.00  0.00     0.057 A 
HETATM    4  C   UNL     1      24.784  45.451  51.198  1.00  0.00     0.060 A 
HETATM    5  C   UNL     1      24.130  45.666  49.984  1.00  0.00     0.037 A 
HETATM    6  C   UNL     1      24.453  44.860  48.892  1.00  0.00     0.030 A 
HETATM    7  C   UNL     1      25.406  43.851  49.020  1.00  0.00     0.011 A 
ENDROOT
BRANCH   5   8
HETATM    8  N   UNL     1      23.173  46.682  49.777  1.00  0.00    -0.324 N 
HETATM    9  C   UNL     1      23.408  47.997  49.427  1.00  0.00     0.245 C 
HETATM   10  O   UNL     1      24.485  48.569  49.338  1.00  0.00    -0.268 OA
HETATM   11  H   UNL     1      22.213  46.396  49.898  1.00  0.00     0.169 HD
BRANCH   9  12
HETATM   12  C   UNL     1      22.133  48.718  49.169  1.00  0.00     0.075 C 
HETATM   13  C   UNL     1      21.869  49.882  49.781  1.00  0.00     0.017 C 
BRANCH  13  14
HETATM   14  C   UNL     1      20.616  50.571  49.490  1.00  0.00    -0.036 A 
HETATM   15  C   UNL     1      20.585  51.599  48.544  1.00  0.00     0.014 A 
HETATM   16  C   UNL     1      19.414  52.335  48.344  1.00  0.00     0.037 A 
HETATM   17  C   UNL     1      18.281  52.056  49.108  1.00  0.00     0.068 A 
HETATM   18  C   UNL     1      18.293  50.995  50.013  1.00  0.00     0.037 A 
HETATM   19  C   UNL     1      19.460  50.258  50.211  1.00  0.00     0.014 A 
BRANCH  17  20
HETATM   20  O   UNL     1      17.094  52.716  48.979  1.00  0.00    -0.351 OA
BRANCH  20  21
HETATM   21  C   UNL     1      15.944  52.040  49.491  1.00  0.00     0.177 C 
BRANCH  21  22
HETATM   22  C   UNL     1      14.855  53.090  49.703  1.00  0.00     0.054 C 
BRANCH  22  23
HETATM   23  C   UNL     1      15.399  54.269  50.506  1.00  0.00     0.236 C 
BRANCH  23  24
HETATM   24  N   UNL     1      15.350  55.553  49.701  1.00  0.00    -0.079 N 
HETATM   25  H   UNL     1      16.200  55.598  49.123  1.00  0.00     0.278 HD
HETATM   26  C   UNL     1      14.166  55.627  48.773  1.00  0.00     0.269 C 
HETATM   27  C   UNL     1      15.387  56.754  50.612  1.00  0.00     0.269 C 
ENDBRANCH  23  24
ENDBRANCH  22  23
ENDBRANCH  21  22
ENDBRANCH  20  21
ENDBRANCH  17  20
ENDBRANCH  13  14
ENDBRANCH   9  12
ENDBRANCH   5   8
BRANCH   3  28
HETATM   28  N   UNL     1      26.468  44.289  52.558  1.00  0.00    -0.188 N 
HETATM   29  H   UNL     1      26.322  43.427  53.059  1.00  0.00     0.184 HD
BRANCH  28  30
HETATM   30  C   UNL     1      27.038  45.222  53.421  1.00  0.00     0.727 A 
HETATM   31  N   UNL     1      27.963  44.861  54.325  1.00  0.00    -0.062 NA
HETATM   32  C   UNL     1      28.498  45.797  55.139  1.00  0.00     0.089 A 
HETATM   33  C   UNL     1      28.088  47.112  55.053  1.00  0.00     0.053 A 
HETATM   34  C   UNL     1      27.117  47.393  54.121  1.00  0.00     0.139 A 
HETATM   35  N   UNL     1      26.573  46.473  53.309  1.00  0.00    -0.075 NA
BRANCH  32  36
HETATM   36  C   UNL     1      29.514  45.303  56.098  1.00  0.00     0.011 A 
HETATM   37  C   UNL     1      29.632  45.850  57.383  1.00  0.00     0.130 A 
HETATM   38  N   UNL     1      30.545  45.477  58.323  1.00  0.00    -0.272 NA
HETATM   39  C   UNL     1      31.394  44.492  57.980  1.00  0.00     0.116 A 
HETATM   40  C   UNL     1      31.375  43.866  56.749  1.00  0.00     0.020 A 
HETATM   41  C   UNL     1      30.429  44.278  55.806  1.00  0.00     0.017 A 
ENDBRANCH  32  36
ENDBRANCH  28  30
ENDBRANCH   3  28
TORSDOF 11
ENDMDL
MODEL 2
REMARK VINA RESULT:      -9.6      2.347      3.561
REMARK  11 active torsions:
REMARK  status: ('A' for Active; 'I' for Inactive)
REMARK    1  A    between atoms: C_3  and  N_4 
REMARK    2  A    between atoms: N_4  and  C_5 
REMARK    3  A    between atoms: C_7  and  C_8 
REMARK    4  A    between atoms: C_18  and  N_19 
REMARK       I    between atoms: N_19  and  C_20 
REMARK    5  A    between atoms: C_20  and  C_21 
REMARK    6  A    between atoms: C_22  and  C_23 
REMARK    7  A    between atoms: C_26  and  O_27 
REMARK    8  A    between atoms: O_27  and  C_28 
REMARK    9  A    between atoms: C_28  and  C_29 
REMARK   10  A    between atoms: C_29  and  C_30 
REMARK   11  A    between atoms: C_30  and  N_31 
ROOT
HETATM    1  C   UNL     1      27.548  48.375  49.198  1.00  0.00     0.050 C 
HETATM    2  C   UNL     1      26.077  48.671  49.078  1.00  0.00    -0.035 A 
HETATM    3  C   UNL     1      25.100  47.848  49.680  1.00  0.00     0.057 A 
HETATM    4  C   UNL     1      23.750  48.225  49.567  1.00  0.00     0.060 A 
HETATM    5  C   UNL     1      23.357  49.377  48.884  1.00  0.00     0.037 A 
HETATM    6  C   UNL     1      24.335  50.183  48.302  1.00  0.00     0.030 A 
HETATM    7  C   UNL     1      25.682  49.833  48.395  1.00  0.00     0.011 A 
ENDROOT
BRANCH   5   8
HETATM    8  N   UNL     1      22.017  49.803  48.771  1.00  0.00    -0.324 N 
HETATM    9  C   UNL     1      21.004  49.203  48.050  1.00  0.00     0.245 C 
HETATM   10  O   UNL     1      21.088  48.256  47.282  1.00  0.00    -0.268 OA
HETATM   11  H   UNL     1      21.790  50.642  49.286  1.00  0.00     0.169 HD
BRANCH   9  12
HETATM   12  C   UNL     1      19.701  49.878  48.294  1.00  0.00     0.075 C 
HETATM   13  C   UNL     1      19.594  51.212  48.211  1.00  0.00     0.017 C 
BRANCH  13  14
HETATM   14  C   UNL     1      18.296  51.838  48.439  1.00  0.00    -0.036 A 
HETATM   15  C   UNL     1      18.009  52.426  49.673  1.00  0.00     0.014 A 
HETATM   16  C   UNL     1      16.730  52.926  49.933  1.00  0.00     0.037 A 
HETATM   17  C   UNL     1      15.733  52.816  48.965  1.00  0.00     0.068 A 
HETATM   18  C   UNL     1      16.032  52.280  47.712  1.00  0.00     0.037 A 
HETATM   19  C   UNL     1      17.308  51.784  47.450  1.00  0.00     0.014 A 
BRANCH  17  20
HETATM   20  O   UNL     1      14.459  53.279  49.126  1.00  0.00    -0.351 OA
BRANCH  20  21
HETATM   21  C   UNL     1      14.069  54.349  48.264  1.00  0.00     0.177 C 
BRANCH  21  22
HETATM   22  C   UNL     1      13.826  55.576  49.140  1.00  0.00     0.054 C 
BRANCH  22  23
HETATM   23  C   UNL     1      13.086  55.183  50.415  1.00  0.00     0.236 C 
BRANCH  23  24
HETATM   24  N   UNL     1      13.994  55.263  51.627  1.00  0.00    -0.079 N 
HETATM   25  H   UNL     1      14.313  54.310  51.848  1.00  0.00     0.278 HD
HETATM   26  C   UNL     1      15.220  56.108  51.395  1.00  0.00     0.269 C 
HETATM   27  C   UNL     1      13.232  55.751  52.833  1.00  0.00     0.269 C 
ENDBRANCH  23  24
ENDBRANCH  22  23
ENDBRANCH  21  22
ENDBRANCH  20  21
ENDBRANCH  17  20
ENDBRANCH  13  14
ENDBRANCH   9  12
ENDBRANCH   5   8
BRANCH   3  28
HETATM   28  N   UNL     1      25.495  46.734  50.443  1.00  0.00    -0.188 N 
HETATM   29  H   UNL     1      25.181  45.834  50.116  1.00  0.00     0.184 HD
BRANCH  28  30
HETATM   30  C   UNL     1      25.892  46.617  51.774  1.00  0.00     0.727 A 
HETATM   31  N   UNL     1      26.683  45.610  52.178  1.00  0.00    -0.062 NA
HETATM   32  C   UNL     1      27.053  45.537  53.475  1.00  0.00     0.089 A 
HETATM   33  C   UNL     1      26.613  46.481  54.381  1.00  0.00     0.053 A 
HETATM   34  C   UNL     1      25.784  47.461  53.891  1.00  0.00     0.139 A 
HETATM   35  N   UNL     1      25.403  47.545  52.607  1.00  0.00    -0.075 NA
BRANCH  32  36
HETATM   36  C   UNL     1      27.930  44.394  53.824  1.00  0.00     0.011 A 
HETATM   37  C   UNL     1      27.638  43.092  53.396  1.00  0.00     0.130 A 
HETATM   38  N   UNL     1      28.371  41.979  53.683  1.00  0.00    -0.272 NA
HETATM   39  C   UNL     1      29.471  42.160  54.435  1.00  0.00     0.116 A 
HETATM   40  C   UNL     1      29.871  43.393  54.912  1.00  0.00     0.020 A 
HETATM   41  C   UNL     1      29.092  44.512  54.604  1.00  0.00     0.017 A 
ENDBRANCH  32  36
ENDBRANCH  28  30
ENDBRANCH   3  28
TORSDOF 11
ENDMDL
MODEL 3
REMARK VINA RESULT:      -9.6      2.039      2.470
REMARK  11 active torsions:
REMARK  status: ('A' for Active; 'I' for Inactive)
REMARK    1  A    between atoms: C_3  and  N_4 
REMARK    2  A    between atoms: N_4  and  C_5 
REMARK    3  A    between atoms: C_7  and  C_8 
REMARK    4  A    between atoms: C_18  and  N_19 
REMARK       I    between atoms: N_19  and  C_20 
REMARK    5  A    between atoms: C_20  and  C_21 
REMARK    6  A    between atoms: C_22  and  C_23 
REMARK    7  A    between atoms: C_26  and  O_27 
REMARK    8  A    between atoms: O_27  and  C_28 
REMARK    9  A    between atoms: C_28  and  C_29 
REMARK   10  A    between atoms: C_29  and  C_30 
REMARK   11  A    between atoms: C_30  and  N_31 
ROOT
HETATM    1  C   UNL     1      27.001  42.642  51.261  1.00  0.00     0.050 C 
HETATM    2  C   UNL     1      26.010  43.708  50.874  1.00  0.00    -0.035 A 
HETATM    3  C   UNL     1      25.493  44.622  51.817  1.00  0.00     0.057 A 
HETATM    4  C   UNL     1      24.615  45.623  51.364  1.00  0.00     0.060 A 
HETATM    5  C   UNL     1      24.247  45.733  50.022  1.00  0.00     0.037 A 
HETATM    6  C   UNL     1      24.773  44.827  49.102  1.00  0.00     0.030 A 
HETATM    7  C   UNL     1      25.644  43.822  49.523  1.00  0.00     0.011 A 
ENDROOT
BRANCH   5   8
HETATM    8  N   UNL     1      23.390  46.737  49.523  1.00  0.00    -0.324 N 
HETATM    9  C   UNL     1      23.693  48.065  49.303  1.00  0.00     0.245 C 
HETATM   10  O   UNL     1      24.720  48.659  49.598  1.00  0.00    -0.268 OA
HETATM   11  H   UNL     1      22.454  46.429  49.303  1.00  0.00     0.169 HD
BRANCH   9  12
HETATM   12  C   UNL     1      22.564  48.770  48.641  1.00  0.00     0.075 C 
HETATM   13  C   UNL     1      21.942  49.791  49.250  1.00  0.00     0.017 C 
BRANCH  13  14
HETATM   14  C   UNL     1      20.849  50.470  48.562  1.00  0.00    -0.036 A 
HETATM   15  C   UNL     1      20.261  51.603  49.131  1.00  0.00     0.014 A 
HETATM   16  C   UNL     1      19.142  52.189  48.533  1.00  0.00     0.037 A 
HETATM   17  C   UNL     1      18.599  51.627  47.378  1.00  0.00     0.068 A 
HETATM   18  C   UNL     1      19.217  50.530  46.778  1.00  0.00     0.037 A 
HETATM   19  C   UNL     1      20.335  49.946  47.372  1.00  0.00     0.014 A 
BRANCH  17  20
HETATM   20  O   UNL     1      17.514  52.132  46.722  1.00  0.00    -0.351 OA
BRANCH  20  21
HETATM   21  C   UNL     1      17.382  51.755  45.351  1.00  0.00     0.177 C 
BRANCH  21  22
HETATM   22  C   UNL     1      17.052  53.019  44.560  1.00  0.00     0.054 C 
BRANCH  22  23
HETATM   23  C   UNL     1      15.594  53.001  44.108  1.00  0.00     0.236 C 
BRANCH  23  24
HETATM   24  N   UNL     1      14.666  52.649  45.254  1.00  0.00    -0.079 N 
HETATM   25  H   UNL     1      15.123  51.926  45.824  1.00  0.00     0.278 HD
HETATM   26  C   UNL     1      14.370  53.818  46.158  1.00  0.00     0.269 C 
HETATM   27  C   UNL     1      13.387  52.041  44.736  1.00  0.00     0.269 C 
ENDBRANCH  23  24
ENDBRANCH  22  23
ENDBRANCH  21  22
ENDBRANCH  20  21
ENDBRANCH  17  20
ENDBRANCH  13  14
ENDBRANCH   9  12
ENDBRANCH   5   8
BRANCH   3  28
HETATM   28  N   UNL     1      25.927  44.571  53.155  1.00  0.00    -0.188 N 
HETATM   29  H   UNL     1      25.322  44.093  53.804  1.00  0.00     0.184 HD
BRANCH  28  30
HETATM   30  C   UNL     1      26.815  45.372  53.871  1.00  0.00     0.727 A 
HETATM   31  N   UNL     1      27.814  44.834  54.589  1.00  0.00    -0.062 NA
HETATM   32  C   UNL     1      28.659  45.644  55.263  1.00  0.00     0.089 A 
HETATM   33  C   UNL     1      28.490  47.014  55.226  1.00  0.00     0.053 A 
HETATM   34  C   UNL     1      27.426  47.481  54.492  1.00  0.00     0.139 A 
HETATM   35  N   UNL     1      26.575  46.688  53.821  1.00  0.00    -0.075 NA
BRANCH  32  36
HETATM   36  C   UNL     1      29.731  44.959  56.021  1.00  0.00     0.011 A 
HETATM   37  C   UNL     1      30.142  45.415  57.281  1.00  0.00     0.130 A 
HETATM   38  N   UNL     1      31.130  44.864  58.041  1.00  0.00    -0.272 NA
HETATM   39  C   UNL     1      31.751  43.786  57.532  1.00  0.00     0.116 A 
HETATM   40  C   UNL     1      31.434  43.235  56.305  1.00  0.00     0.020 A 
HETATM   41  C   UNL     1      30.420  43.829  55.549  1.00  0.00     0.017 A 
ENDBRANCH  32  36
ENDBRANCH  28  30
ENDBRANCH   3  28
TORSDOF 11
ENDMDL
MODEL 4
REMARK VINA RESULT:      -9.4      2.243      3.042
REMARK  11 active torsions:
REMARK  status: ('A' for Active; 'I' for Inactive)
REMARK    1  A    between atoms: C_3  and  N_4 
REMARK    2  A    between atoms: N_4  and  C_5 
REMARK    3  A    between atoms: C_7  and  C_8 
REMARK    4  A    between atoms: C_18  and  N_19 
REMARK       I    between atoms: N_19  and  C_20 
REMARK    5  A    between atoms: C_20  and  C_21 
REMARK    6  A    between atoms: C_22  and  C_23 
REMARK    7  A    between atoms: C_26  and  O_27 
REMARK    8  A    between atoms: O_27  and  C_28 
REMARK    9  A    between atoms: C_28  and  C_29 
REMARK   10  A    between atoms: C_29  and  C_30 
REMARK   11  A    between atoms: C_30  and  N_31 
ROOT
HETATM    1  C   UNL     1      27.540  43.185  51.227  1.00  0.00     0.050 C 
HETATM    2  C   UNL     1      26.408  44.114  50.875  1.00  0.00    -0.035 A 
HETATM    3  C   UNL     1      25.669  44.797  51.865  1.00  0.00     0.057 A 
HETATM    4  C   UNL     1      24.664  45.688  51.450  1.00  0.00     0.060 A 
HETATM    5  C   UNL     1      24.382  45.912  50.101  1.00  0.00     0.037 A 
HETATM    6  C   UNL     1      25.127  45.234  49.136  1.00  0.00     0.030 A 
HETATM    7  C   UNL     1      26.128  44.342  49.517  1.00  0.00     0.011 A 
ENDROOT
BRANCH   5   8
HETATM    8  N   UNL     1      23.401  46.816  49.644  1.00  0.00    -0.324 N 
HETATM    9  C   UNL     1      23.548  48.170  49.418  1.00  0.00     0.245 C 
HETATM   10  O   UNL     1      24.515  48.873  49.674  1.00  0.00    -0.268 OA
HETATM   11  H   UNL     1      22.496  46.408  49.461  1.00  0.00     0.169 HD
BRANCH   9  12
HETATM   12  C   UNL     1      22.321  48.748  48.807  1.00  0.00     0.075 C 
HETATM   13  C   UNL     1      22.057  50.058  48.910  1.00  0.00     0.017 C 
BRANCH  13  14
HETATM   14  C   UNL     1      20.852  50.593  48.283  1.00  0.00    -0.036 A 
HETATM   15  C   UNL     1      20.192  51.685  48.852  1.00  0.00     0.014 A 
HETATM   16  C   UNL     1      18.979  52.129  48.319  1.00  0.00     0.037 A 
HETATM   17  C   UNL     1      18.415  51.463  47.231  1.00  0.00     0.068 A 
HETATM   18  C   UNL     1      19.098  50.407  46.628  1.00  0.00     0.037 A 
HETATM   19  C   UNL     1      20.311  49.966  47.156  1.00  0.00     0.014 A 
BRANCH  17  20
HETATM   20  O   UNL     1      17.239  51.826  46.641  1.00  0.00    -0.351 OA
BRANCH  20  21
HETATM   21  C   UNL     1      16.064  51.654  47.434  1.00  0.00     0.177 C 
BRANCH  21  22
HETATM   22  C   UNL     1      16.065  50.215  47.945  1.00  0.00     0.054 C 
BRANCH  22  23
HETATM   23  C   UNL     1      15.082  49.363  47.145  1.00  0.00     0.236 C 
BRANCH  23  24
HETATM   24  N   UNL     1      15.772  48.169  46.515  1.00  0.00    -0.079 N 
HETATM   25  H   UNL     1      15.057  47.457  46.315  1.00  0.00     0.278 HD
HETATM   26  C   UNL     1      16.458  48.498  45.214  1.00  0.00     0.269 C 
HETATM   27  C   UNL     1      16.743  47.542  47.484  1.00  0.00     0.269 C 
ENDBRANCH  23  24
ENDBRANCH  22  23
ENDBRANCH  21  22
ENDBRANCH  20  21
ENDBRANCH  17  20
ENDBRANCH  13  14
ENDBRANCH   9  12
ENDBRANCH   5   8
BRANCH   3  28
HETATM   28  N   UNL     1      26.005  44.643  53.223  1.00  0.00    -0.188 N 
HETATM   29  H   UNL     1      25.410  44.037  53.765  1.00  0.00     0.184 HD
BRANCH  28  30
HETATM   30  C   UNL     1      26.743  45.447  54.090  1.00  0.00     0.727 A 
HETATM   31  N   UNL     1      27.791  44.957  54.771  1.00  0.00    -0.062 NA
HETATM   32  C   UNL     1      28.486  45.770  55.596  1.00  0.00     0.089 A 
HETATM   33  C   UNL     1      28.114  47.090  55.750  1.00  0.00     0.053 A 
HETATM   34  C   UNL     1      27.013  47.504  55.040  1.00  0.00     0.139 A 
HETATM   35  N   UNL     1      26.310  46.707  54.220  1.00  0.00    -0.075 NA
BRANCH  32  36
HETATM   36  C   UNL     1      29.629  45.140  56.299  1.00  0.00     0.011 A 
HETATM   37  C   UNL     1      30.337  44.072  55.731  1.00  0.00     0.130 A 
HETATM   38  N   UNL     1      31.383  43.418  56.308  1.00  0.00    -0.272 NA
HETATM   39  C   UNL     1      31.767  43.849  57.523  1.00  0.00     0.116 A 
HETATM   40  C   UNL     1      31.157  44.897  58.185  1.00  0.00     0.020 A 
HETATM   41  C   UNL     1      30.082  45.541  57.566  1.00  0.00     0.017 A 
ENDBRANCH  32  36
ENDBRANCH  28  30
ENDBRANCH   3  28
TORSDOF 11
ENDMDL
MODEL 5
REMARK VINA RESULT:      -9.0      2.360      3.745
REMARK  11 active torsions:
REMARK  status: ('A' for Active; 'I' for Inactive)
REMARK    1  A    between atoms: C_3  and  N_4 
REMARK    2  A    between atoms: N_4  and  C_5 
REMARK    3  A    between atoms: C_7  and  C_8 
REMARK    4  A    between atoms: C_18  and  N_19 
REMARK       I    between atoms: N_19  and  C_20 
REMARK    5  A    between atoms: C_20  and  C_21 
REMARK    6  A    between atoms: C_22  and  C_23 
REMARK    7  A    between atoms: C_26  and  O_27 
REMARK    8  A    between atoms: O_27  and  C_28 
REMARK    9  A    between atoms: C_28  and  C_29 
REMARK   10  A    between atoms: C_29  and  C_30 
REMARK   11  A    between atoms: C_30  and  N_31 
ROOT
HETATM    1  C   UNL     1      26.725  39.297  49.905  1.00  0.00     0.050 C 
HETATM    2  C   UNL     1      26.014  40.624  49.892  1.00  0.00    -0.035 A 
HETATM    3  C   UNL     1      26.189  41.573  50.922  1.00  0.00     0.057 A 
HETATM    4  C   UNL     1      25.531  42.811  50.808  1.00  0.00     0.060 A 
HETATM    5  C   UNL     1      24.720  43.120  49.715  1.00  0.00     0.037 A 
HETATM    6  C   UNL     1      24.564  42.174  48.702  1.00  0.00     0.030 A 
HETATM    7  C   UNL     1      25.202  40.937  48.790  1.00  0.00     0.011 A 
ENDROOT
BRANCH   5   8
HETATM    8  N   UNL     1      24.064  44.358  49.549  1.00  0.00    -0.324 N 
HETATM    9  C   UNL     1      24.643  45.607  49.450  1.00  0.00     0.245 C 
HETATM   10  O   UNL     1      25.820  45.903  49.598  1.00  0.00    -0.268 OA
HETATM   11  H   UNL     1      23.057  44.304  49.493  1.00  0.00     0.169 HD
BRANCH   9  12
HETATM   12  C   UNL     1      23.624  46.647  49.145  1.00  0.00     0.075 C 
HETATM   13  C   UNL     1      23.833  47.929  49.478  1.00  0.00     0.017 C 
BRANCH  13  14
HETATM   14  C   UNL     1      22.819  48.925  49.146  1.00  0.00    -0.036 A 
HETATM   15  C   UNL     1      23.191  50.249  48.900  1.00  0.00     0.014 A 
HETATM   16  C   UNL     1      22.215  51.227  48.694  1.00  0.00     0.037 A 
HETATM   17  C   UNL     1      20.865  50.883  48.757  1.00  0.00     0.068 A 
HETATM   18  C   UNL     1      20.492  49.552  48.948  1.00  0.00     0.037 A 
HETATM   19  C   UNL     1      21.465  48.575  49.151  1.00  0.00     0.014 A 
BRANCH  17  20
HETATM   20  O   UNL     1      19.843  51.767  48.564  1.00  0.00    -0.351 OA
BRANCH  20  21
HETATM   21  C   UNL     1      18.989  51.989  49.687  1.00  0.00     0.177 C 
BRANCH  21  22
HETATM   22  C   UNL     1      17.710  52.640  49.165  1.00  0.00     0.054 C 
BRANCH  22  23
HETATM   23  C   UNL     1      16.482  51.921  49.715  1.00  0.00     0.236 C 
BRANCH  23  24
HETATM   24  N   UNL     1      15.597  51.406  48.597  1.00  0.00    -0.079 N 
HETATM   25  H   UNL     1      14.639  51.323  48.961  1.00  0.00     0.278 HD
HETATM   26  C   UNL     1      15.550  52.327  47.405  1.00  0.00     0.269 C 
HETATM   27  C   UNL     1      16.018  50.019  48.180  1.00  0.00     0.269 C 
ENDBRANCH  23  24
ENDBRANCH  22  23
ENDBRANCH  21  22
ENDBRANCH  20  21
ENDBRANCH  17  20
ENDBRANCH  13  14
ENDBRANCH   9  12
ENDBRANCH   5   8
BRANCH   3  28
HETATM   28  N   UNL     1      27.073  41.303  51.983  1.00  0.00    -0.188 N 
HETATM   29  H   UNL     1      26.966  40.410  52.439  1.00  0.00     0.184 HD
BRANCH  28  30
HETATM   30  C   UNL     1      27.811  42.147  52.811  1.00  0.00     0.727 A 
HETATM   31  N   UNL     1      27.352  43.361  53.155  1.00  0.00    -0.062 NA
HETATM   32  C   UNL     1      28.093  44.146  53.967  1.00  0.00     0.089 A 
HETATM   33  C   UNL     1      29.319  43.711  54.429  1.00  0.00     0.053 A 
HETATM   34  C   UNL     1      29.728  42.469  54.006  1.00  0.00     0.139 A 
HETATM   35  N   UNL     1      29.005  41.679  53.197  1.00  0.00    -0.075 NA
BRANCH  32  36
HETATM   36  C   UNL     1      27.501  45.464  54.294  1.00  0.00     0.011 A 
HETATM   37  C   UNL     1      26.359  45.937  53.632  1.00  0.00     0.130 A 
HETATM   38  N   UNL     1      25.757  47.140  53.849  1.00  0.00    -0.272 NA
HETATM   39  C   UNL     1      26.310  47.929  54.787  1.00  0.00     0.116 A 
HETATM   40  C   UNL     1      27.430  47.575  55.515  1.00  0.00     0.020 A 
HETATM   41  C   UNL     1      28.025  46.336  55.262  1.00  0.00     0.017 A 
ENDBRANCH  32  36
ENDBRANCH  28  30
ENDBRANCH   3  28
TORSDOF 11
ENDMDL
MODEL 6
REMARK VINA RESULT:      -8.9      1.986      3.099
REMARK  11 active torsions:
REMARK  status: ('A' for Active; 'I' for Inactive)
REMARK    1  A    between atoms: C_3  and  N_4 
REMARK    2  A    between atoms: N_4  and  C_5 
REMARK    3  A    between atoms: C_7  and  C_8 
REMARK    4  A    between atoms: C_18  and  N_19 
REMARK       I    between atoms: N_19  and  C_20 
REMARK    5  A    between atoms: C_20  and  C_21 
REMARK    6  A    between atoms: C_22  and  C_23 
REMARK    7  A    between atoms: C_26  and  O_27 
REMARK    8  A    between atoms: O_27  and  C_28 
REMARK    9  A    between atoms: C_28  and  C_29 
REMARK   10  A    between atoms: C_29  and  C_30 
REMARK   11  A    between atoms: C_30  and  N_31 
ROOT
HETATM    1  C   UNL     1      25.111  41.156  48.513  1.00  0.00     0.050 C 
HETATM    2  C   UNL     1      24.362  42.453  48.664  1.00  0.00    -0.035 A 
HETATM    3  C   UNL     1      24.990  43.624  49.143  1.00  0.00     0.057 A 
HETATM    4  C   UNL     1      24.234  44.808  49.202  1.00  0.00     0.060 A 
HETATM    5  C   UNL     1      22.897  44.855  48.805  1.00  0.00     0.037 A 
HETATM    6  C   UNL     1      22.295  43.691  48.327  1.00  0.00     0.030 A 
HETATM    7  C   UNL     1      23.018  42.501  48.259  1.00  0.00     0.011 A 
ENDROOT
BRANCH   5   8
HETATM    8  N   UNL     1      22.113  46.028  48.824  1.00  0.00    -0.324 N 
HETATM    9  C   UNL     1      21.787  46.837  47.755  1.00  0.00     0.245 C 
HETATM   10  O   UNL     1      22.200  46.766  46.606  1.00  0.00    -0.268 OA
HETATM   11  H   UNL     1      21.753  46.286  49.732  1.00  0.00     0.169 HD
BRANCH   9  12
HETATM   12  C   UNL     1      20.829  47.900  48.159  1.00  0.00     0.075 C 
HETATM   13  C   UNL     1      21.268  49.104  48.553  1.00  0.00     0.017 C 
BRANCH  13  14
HETATM   14  C   UNL     1      20.298  50.129  48.925  1.00  0.00    -0.036 A 
HETATM   15  C   UNL     1      19.290  49.837  49.848  1.00  0.00     0.014 A 
HETATM   16  C   UNL     1      18.294  50.778  50.123  1.00  0.00     0.037 A 
HETATM   17  C   UNL     1      18.295  52.002  49.456  1.00  0.00     0.068 A 
HETATM   18  C   UNL     1      19.330  52.317  48.576  1.00  0.00     0.037 A 
HETATM   19  C   UNL     1      20.326  51.381  48.304  1.00  0.00     0.014 A 
BRANCH  17  20
HETATM   20  O   UNL     1      17.369  52.983  49.662  1.00  0.00    -0.351 OA
BRANCH  20  21
HETATM   21  C   UNL     1      16.007  52.554  49.720  1.00  0.00     0.177 C 
BRANCH  21  22
HETATM   22  C   UNL     1      15.282  53.471  50.703  1.00  0.00     0.054 C 
BRANCH  22  23
HETATM   23  C   UNL     1      13.783  53.481  50.416  1.00  0.00     0.236 C 
BRANCH  23  24
HETATM   24  N   UNL     1      13.271  54.892  50.205  1.00  0.00    -0.079 N 
HETATM   25  H   UNL     1      13.599  55.471  50.989  1.00  0.00     0.278 HD
HETATM   26  C   UNL     1      13.779  55.523  48.934  1.00  0.00     0.269 C 
HETATM   27  C   UNL     1      11.764  54.925  50.248  1.00  0.00     0.269 C 
ENDBRANCH  23  24
ENDBRANCH  22  23
ENDBRANCH  21  22
ENDBRANCH  20  21
ENDBRANCH  17  20
ENDBRANCH  13  14
ENDBRANCH   9  12
ENDBRANCH   5   8
BRANCH   3  28
HETATM   28  N   UNL     1      26.360  43.605  49.462  1.00  0.00    -0.188 N 
HETATM   29  H   UNL     1      26.994  43.411  48.704  1.00  0.00     0.184 HD
BRANCH  28  30
HETATM   30  C   UNL     1      27.026  43.405  50.670  1.00  0.00     0.727 A 
HETATM   31  N   UNL     1      27.023  44.343  51.631  1.00  0.00    -0.062 NA
HETATM   32  C   UNL     1      27.673  44.108  52.791  1.00  0.00     0.089 A 
HETATM   33  C   UNL     1      28.347  42.919  52.984  1.00  0.00     0.053 A 
HETATM   34  C   UNL     1      28.326  42.025  51.940  1.00  0.00     0.139 A 
HETATM   35  N   UNL     1      27.688  42.246  50.780  1.00  0.00    -0.075 NA
BRANCH  32  36
HETATM   36  C   UNL     1      27.608  45.199  53.791  1.00  0.00     0.011 A 
HETATM   37  C   UNL     1      26.532  46.096  53.826  1.00  0.00     0.130 A 
HETATM   38  N   UNL     1      26.395  47.139  54.692  1.00  0.00    -0.272 NA
HETATM   39  C   UNL     1      27.380  47.307  55.592  1.00  0.00     0.116 A 
HETATM   40  C   UNL     1      28.489  46.486  55.667  1.00  0.00     0.020 A 
HETATM   41  C   UNL     1      28.600  45.430  54.759  1.00  0.00     0.017 A 
ENDBRANCH  32  36
ENDBRANCH  28  30
ENDBRANCH   3  28
TORSDOF 11
ENDMDL
MODEL 7
REMARK VINA RESULT:      -8.9      3.006      4.752
REMARK  11 active torsions:
REMARK  status: ('A' for Active; 'I' for Inactive)
REMARK    1  A    between atoms: C_3  and  N_4 
REMARK    2  A    between atoms: N_4  and  C_5 
REMARK    3  A    between atoms: C_7  and  C_8 
REMARK    4  A    between atoms: C_18  and  N_19 
REMARK       I    between atoms: N_19  and  C_20 
REMARK    5  A    between atoms: C_20  and  C_21 
REMARK    6  A    between atoms: C_22  and  C_23 
REMARK    7  A    between atoms: C_26  and  O_27 
REMARK    8  A    between atoms: O_27  and  C_28 
REMARK    9  A    between atoms: C_28  and  C_29 
REMARK   10  A    between atoms: C_29  and  C_30 
REMARK   11  A    between atoms: C_30  and  N_31 
ROOT
HETATM    1  C   UNL     1      28.797  39.294  50.595  1.00  0.00     0.050 C 
HETATM    2  C   UNL     1      27.801  40.406  50.394  1.00  0.00    -0.035 A 
HETATM    3  C   UNL     1      27.950  41.662  51.021  1.00  0.00     0.057 A 
HETATM    4  C   UNL     1      27.006  42.665  50.738  1.00  0.00     0.060 A 
HETATM    5  C   UNL     1      25.939  42.452  49.863  1.00  0.00     0.037 A 
HETATM    6  C   UNL     1      25.812  41.208  49.246  1.00  0.00     0.030 A 
HETATM    7  C   UNL     1      26.731  40.193  49.510  1.00  0.00     0.011 A 
ENDROOT
BRANCH   5   8
HETATM    8  N   UNL     1      24.987  43.439  49.532  1.00  0.00    -0.324 N 
HETATM    9  C   UNL     1      23.704  43.565  50.024  1.00  0.00     0.245 C 
HETATM   10  O   UNL     1      23.100  42.790  50.752  1.00  0.00    -0.268 OA
HETATM   11  H   UNL     1      25.299  44.126  48.861  1.00  0.00     0.169 HD
BRANCH   9  12
HETATM   12  C   UNL     1      23.062  44.814  49.534  1.00  0.00     0.075 C 
HETATM   13  C   UNL     1      23.782  45.931  49.358  1.00  0.00     0.017 C 
BRANCH  13  14
HETATM   14  C   UNL     1      23.122  47.133  48.859  1.00  0.00    -0.036 A 
HETATM   15  C   UNL     1      23.542  48.393  49.291  1.00  0.00     0.014 A 
HETATM   16  C   UNL     1      22.841  49.539  48.903  1.00  0.00     0.037 A 
HETATM   17  C   UNL     1      21.706  49.419  48.103  1.00  0.00     0.068 A 
HETATM   18  C   UNL     1      21.316  48.167  47.626  1.00  0.00     0.037 A 
HETATM   19  C   UNL     1      22.017  47.024  48.009  1.00  0.00     0.014 A 
BRANCH  17  20
HETATM   20  O   UNL     1      20.963  50.479  47.671  1.00  0.00    -0.351 OA
BRANCH  20  21
HETATM   21  C   UNL     1      20.768  51.532  48.617  1.00  0.00     0.177 C 
BRANCH  21  22
HETATM   22  C   UNL     1      19.388  51.334  49.241  1.00  0.00     0.054 C 
BRANCH  22  23
HETATM   23  C   UNL     1      18.394  50.841  48.194  1.00  0.00     0.236 C 
BRANCH  23  24
HETATM   24  N   UNL     1      17.979  49.407  48.459  1.00  0.00    -0.079 N 
HETATM   25  H   UNL     1      18.451  48.806  47.771  1.00  0.00     0.278 HD
HETATM   26  C   UNL     1      18.373  48.920  49.830  1.00  0.00     0.269 C 
HETATM   27  C   UNL     1      16.498  49.231  48.238  1.00  0.00     0.269 C 
ENDBRANCH  23  24
ENDBRANCH  22  23
ENDBRANCH  21  22
ENDBRANCH  20  21
ENDBRANCH  17  20
ENDBRANCH  13  14
ENDBRANCH   9  12
ENDBRANCH   5   8
BRANCH   3  28
HETATM   28  N   UNL     1      29.070  41.912  51.836  1.00  0.00    -0.188 N 
HETATM   29  H   UNL     1      29.780  41.197  51.852  1.00  0.00     0.184 HD
BRANCH  28  30
HETATM   30  C   UNL     1      29.247  42.748  52.936  1.00  0.00     0.727 A 
HETATM   31  N   UNL     1      28.465  43.823  53.126  1.00  0.00    -0.062 NA
HETATM   32  C   UNL     1      28.662  44.605  54.210  1.00  0.00     0.089 A 
HETATM   33  C   UNL     1      29.667  44.310  55.109  1.00  0.00     0.053 A 
HETATM   34  C   UNL     1      30.440  43.209  54.826  1.00  0.00     0.139 A 
HETATM   35  N   UNL     1      30.259  42.426  53.751  1.00  0.00    -0.075 NA
BRANCH  32  36
HETATM   36  C   UNL     1      27.747  45.763  54.336  1.00  0.00     0.011 A 
HETATM   37  C   UNL     1      27.959  46.761  55.297  1.00  0.00     0.130 A 
HETATM   38  N   UNL     1      27.164  47.849  55.500  1.00  0.00    -0.272 NA
HETATM   39  C   UNL     1      26.092  47.969  54.698  1.00  0.00     0.116 A 
HETATM   40  C   UNL     1      25.777  47.058  53.708  1.00  0.00     0.020 A 
HETATM   41  C   UNL     1      26.611  45.951  53.531  1.00  0.00     0.017 A 
ENDBRANCH  32  36
ENDBRANCH  28  30
ENDBRANCH   3  28
TORSDOF 11
ENDMDL
MODEL 8
REMARK VINA RESULT:      -8.8      3.997     13.290
REMARK  11 active torsions:
REMARK  status: ('A' for Active; 'I' for Inactive)
REMARK    1  A    between atoms: C_3  and  N_4 
REMARK    2  A    between atoms: N_4  and  C_5 
REMARK    3  A    between atoms: C_7  and  C_8 
REMARK    4  A    between atoms: C_18  and  N_19 
REMARK       I    between atoms: N_19  and  C_20 
REMARK    5  A    between atoms: C_20  and  C_21 
REMARK    6  A    between atoms: C_22  and  C_23 
REMARK    7  A    between atoms: C_26  and  O_27 
REMARK    8  A    between atoms: O_27  and  C_28 
REMARK    9  A    between atoms: C_28  and  C_29 
REMARK   10  A    between atoms: C_29  and  C_30 
REMARK   11  A    between atoms: C_30  and  N_31 
ROOT
HETATM    1  C   UNL     1      18.521  52.570  48.335  1.00  0.00     0.050 C 
HETATM    2  C   UNL     1      19.407  51.409  48.700  1.00  0.00    -0.035 A 
HETATM    3  C   UNL     1      18.883  50.124  48.959  1.00  0.00     0.057 A 
HETATM    4  C   UNL     1      19.783  49.081  49.240  1.00  0.00     0.060 A 
HETATM    5  C   UNL     1      21.164  49.281  49.267  1.00  0.00     0.037 A 
HETATM    6  C   UNL     1      21.666  50.555  49.000  1.00  0.00     0.030 A 
HETATM    7  C   UNL     1      20.797  51.610  48.722  1.00  0.00     0.011 A 
ENDROOT
BRANCH   5   8
HETATM    8  N   UNL     1      22.101  48.257  49.518  1.00  0.00    -0.324 N 
HETATM    9  C   UNL     1      22.684  47.409  48.598  1.00  0.00     0.245 C 
HETATM   10  O   UNL     1      22.424  47.300  47.408  1.00  0.00    -0.268 OA
HETATM   11  H   UNL     1      22.368  48.149  50.486  1.00  0.00     0.169 HD
BRANCH   9  12
HETATM   12  C   UNL     1      23.723  46.558  49.236  1.00  0.00     0.075 C 
HETATM   13  C   UNL     1      24.558  47.068  50.153  1.00  0.00     0.017 C 
BRANCH  13  14
HETATM   14  C   UNL     1      25.554  46.198  50.771  1.00  0.00    -0.036 A 
HETATM   15  C   UNL     1      26.403  45.427  49.972  1.00  0.00     0.014 A 
HETATM   16  C   UNL     1      27.279  44.511  50.559  1.00  0.00     0.037 A 
HETATM   17  C   UNL     1      27.289  44.350  51.944  1.00  0.00     0.068 A 
HETATM   18  C   UNL     1      26.481  45.156  52.746  1.00  0.00     0.037 A 
HETATM   19  C   UNL     1      25.609  46.073  52.162  1.00  0.00     0.014 A 
BRANCH  17  20
HETATM   20  O   UNL     1      28.112  43.485  52.605  1.00  0.00    -0.351 OA
BRANCH  20  21
HETATM   21  C   UNL     1      28.043  43.523  54.031  1.00  0.00     0.177 C 
BRANCH  21  22
HETATM   22  C   UNL     1      29.438  43.872  54.546  1.00  0.00     0.054 C 
BRANCH  22  23
HETATM   23  C   UNL     1      29.377  45.080  55.476  1.00  0.00     0.236 C 
BRANCH  23  24
HETATM   24  N   UNL     1      30.567  45.114  56.415  1.00  0.00    -0.079 N 
HETATM   25  H   UNL     1      31.278  45.734  56.006  1.00  0.00     0.278 HD
HETATM   26  C   UNL     1      30.230  45.653  57.781  1.00  0.00     0.269 C 
HETATM   27  C   UNL     1      31.200  43.750  56.524  1.00  0.00     0.269 C 
ENDBRANCH  23  24
ENDBRANCH  22  23
ENDBRANCH  21  22
ENDBRANCH  20  21
ENDBRANCH  17  20
ENDBRANCH  13  14
ENDBRANCH   9  12
ENDBRANCH   5   8
BRANCH   3  28
HETATM   28  N   UNL     1      17.499  49.895  48.848  1.00  0.00    -0.188 N 
HETATM   29  H   UNL     1      16.969  49.926  49.705  1.00  0.00     0.184 HD
BRANCH  28  30
HETATM   30  C   UNL     1      16.744  49.244  47.875  1.00  0.00     0.727 A 
HETATM   31  N   UNL     1      17.259  48.236  47.153  1.00  0.00    -0.062 NA
HETATM   32  C   UNL     1      16.492  47.624  46.224  1.00  0.00     0.089 A 
HETATM   33  C   UNL     1      15.193  48.040  46.008  1.00  0.00     0.053 A 
HETATM   34  C   UNL     1      14.753  49.096  46.769  1.00  0.00     0.139 A 
HETATM   35  N   UNL     1      15.504  49.717  47.692  1.00  0.00    -0.075 NA
BRANCH  32  36
HETATM   36  C   UNL     1      17.147  46.521  45.483  1.00  0.00     0.011 A 
HETATM   37  C   UNL     1      18.527  46.296  45.575  1.00  0.00     0.130 A 
HETATM   38  N   UNL     1      19.218  45.324  44.918  1.00  0.00    -0.272 NA
HETATM   39  C   UNL     1      18.503  44.510  44.121  1.00  0.00     0.116 A 
HETATM   40  C   UNL     1      17.136  44.622  43.951  1.00  0.00     0.020 A 
HETATM   41  C   UNL     1      16.460  45.635  44.636  1.00  0.00     0.017 A 
ENDBRANCH  32  36
ENDBRANCH  28  30
ENDBRANCH   3  28
TORSDOF 11
ENDMDL
MODEL 9
REMARK VINA RESULT:      -8.6      3.647     14.457
REMARK  11 active torsions:
REMARK  status: ('A' for Active; 'I' for Inactive)
REMARK    1  A    between atoms: C_3  and  N_4 
REMARK    2  A    between atoms: N_4  and  C_5 
REMARK    3  A    between atoms: C_7  and  C_8 
REMARK    4  A    between atoms: C_18  and  N_19 
REMARK       I    between atoms: N_19  and  C_20 
REMARK    5  A    between atoms: C_20  and  C_21 
REMARK    6  A    between atoms: C_22  and  C_23 
REMARK    7  A    between atoms: C_26  and  O_27 
REMARK    8  A    between atoms: O_27  and  C_28 
REMARK    9  A    between atoms: C_28  and  C_29 
REMARK   10  A    between atoms: C_29  and  C_30 
REMARK   11  A    between atoms: C_30  and  N_31 
ROOT
HETATM    1  C   UNL     1      18.680  52.387  48.182  1.00  0.00     0.050 C 
HETATM    2  C   UNL     1      19.677  51.317  48.539  1.00  0.00    -0.035 A 
HETATM    3  C   UNL     1      19.721  50.082  47.857  1.00  0.00     0.057 A 
HETATM    4  C   UNL     1      20.718  49.158  48.214  1.00  0.00     0.060 A 
HETATM    5  C   UNL     1      21.655  49.427  49.213  1.00  0.00     0.037 A 
HETATM    6  C   UNL     1      21.602  50.656  49.872  1.00  0.00     0.030 A 
HETATM    7  C   UNL     1      20.622  51.591  49.541  1.00  0.00     0.011 A 
ENDROOT
BRANCH   5   8
HETATM    8  N   UNL     1      22.686  48.539  49.583  1.00  0.00    -0.324 N 
HETATM    9  C   UNL     1      24.017  48.601  49.222  1.00  0.00     0.245 C 
HETATM   10  O   UNL     1      24.543  49.365  48.425  1.00  0.00    -0.268 OA
HETATM   11  H   UNL     1      22.401  47.780  50.185  1.00  0.00     0.169 HD
BRANCH   9  12
HETATM   12  C   UNL     1      24.813  47.561  49.926  1.00  0.00     0.075 C 
HETATM   13  C   UNL     1      24.373  46.297  50.003  1.00  0.00     0.017 C 
BRANCH  13  14
HETATM   14  C   UNL     1      25.189  45.300  50.688  1.00  0.00    -0.036 A 
HETATM   15  C   UNL     1      24.833  44.859  51.965  1.00  0.00     0.014 A 
HETATM   16  C   UNL     1      25.671  43.990  52.668  1.00  0.00     0.037 A 
HETATM   17  C   UNL     1      26.877  43.581  52.101  1.00  0.00     0.068 A 
HETATM   18  C   UNL     1      27.209  43.975  50.804  1.00  0.00     0.037 A 
HETATM   19  C   UNL     1      26.372  44.839  50.101  1.00  0.00     0.014 A 
BRANCH  17  20
HETATM   20  O   UNL     1      27.756  42.731  52.708  1.00  0.00    -0.351 OA
BRANCH  20  21
HETATM   21  C   UNL     1      28.108  43.055  54.054  1.00  0.00     0.177 C 
BRANCH  21  22
HETATM   22  C   UNL     1      29.564  43.514  54.047  1.00  0.00     0.054 C 
BRANCH  22  23
HETATM   23  C   UNL     1      30.288  43.016  55.295  1.00  0.00     0.236 C 
BRANCH  23  24
HETATM   24  N   UNL     1      31.075  44.130  55.958  1.00  0.00    -0.079 N 
HETATM   25  H   UNL     1      31.803  44.441  55.301  1.00  0.00     0.278 HD
HETATM   26  C   UNL     1      30.231  45.331  56.298  1.00  0.00     0.269 C 
HETATM   27  C   UNL     1      31.791  43.620  57.183  1.00  0.00     0.269 C 
ENDBRANCH  23  24
ENDBRANCH  22  23
ENDBRANCH  21  22
ENDBRANCH  20  21
ENDBRANCH  17  20
ENDBRANCH  13  14
ENDBRANCH   9  12
ENDBRANCH   5   8
BRANCH   3  28
HETATM   28  N   UNL     1      18.836  49.838  46.790  1.00  0.00    -0.188 N 
HETATM   29  H   UNL     1      19.038  50.310  45.923  1.00  0.00     0.184 HD
BRANCH  28  30
HETATM   30  C   UNL     1      17.514  49.398  46.766  1.00  0.00     0.727 A 
HETATM   31  N   UNL     1      16.567  50.075  46.096  1.00  0.00    -0.062 NA
HETATM   32  C   UNL     1      15.298  49.612  46.089  1.00  0.00     0.089 A 
HETATM   33  C   UNL     1      14.972  48.460  46.778  1.00  0.00     0.053 A 
HETATM   34  C   UNL     1      15.993  47.845  47.463  1.00  0.00     0.139 A 
HETATM   35  N   UNL     1      17.258  48.296  47.482  1.00  0.00    -0.075 NA
BRANCH  32  36
HETATM   36  C   UNL     1      14.327  50.422  45.318  1.00  0.00     0.011 A 
HETATM   37  C   UNL     1      14.493  51.805  45.159  1.00  0.00     0.130 A 
HETATM   38  N   UNL     1      13.645  52.634  44.488  1.00  0.00    -0.272 NA
HETATM   39  C   UNL     1      12.565  52.063  43.925  1.00  0.00     0.116 A 
HETATM   40  C   UNL     1      12.293  50.711  44.002  1.00  0.00     0.020 A 
HETATM   41  C   UNL     1      13.180  49.891  44.704  1.00  0.00     0.017 A 
ENDBRANCH  32  36
ENDBRANCH  28  30
ENDBRANCH   3  28
TORSDOF 11
ENDMDL
MODEL 10
REMARK VINA RESULT:      -8.5      1.685      2.455
REMARK  11 active torsions:
REMARK  status: ('A' for Active; 'I' for Inactive)
REMARK    1  A    between atoms: C_3  and  N_4 
REMARK    2  A    between atoms: N_4  and  C_5 
REMARK    3  A    between atoms: C_7  and  C_8 
REMARK    4  A    between atoms: C_18  and  N_19 
REMARK       I    between atoms: N_19  and  C_20 
REMARK    5  A    between atoms: C_20  and  C_21 
REMARK    6  A    between atoms: C_22  and  C_23 
REMARK    7  A    between atoms: C_26  and  O_27 
REMARK    8  A    between atoms: O_27  and  C_28 
REMARK    9  A    between atoms: C_28  and  C_29 
REMARK   10  A    between atoms: C_29  and  C_30 
REMARK   11  A    between atoms: C_30  and  N_31 
ROOT
HETATM    1  C   UNL     1      26.585  41.602  49.334  1.00  0.00     0.050 C 
HETATM    2  C   UNL     1      25.839  42.904  49.458  1.00  0.00    -0.035 A 
HETATM    3  C   UNL     1      26.409  44.031  50.088  1.00  0.00     0.057 A 
HETATM    4  C   UNL     1      25.668  45.226  50.114  1.00  0.00     0.060 A 
HETATM    5  C   UNL     1      24.400  45.324  49.539  1.00  0.00     0.037 A 
HETATM    6  C   UNL     1      23.855  44.203  48.913  1.00  0.00     0.030 A 
HETATM    7  C   UNL     1      24.565  43.003  48.875  1.00  0.00     0.011 A 
ENDROOT
BRANCH   5   8
HETATM    8  N   UNL     1      23.636  46.510  49.520  1.00  0.00    -0.324 N 
HETATM    9  C   UNL     1      24.095  47.806  49.639  1.00  0.00     0.245 C 
HETATM   10  O   UNL     1      25.231  48.179  49.896  1.00  0.00    -0.268 OA
HETATM   11  H   UNL     1      22.642  46.376  49.399  1.00  0.00     0.169 HD
BRANCH   9  12
HETATM   12  C   UNL     1      22.996  48.786  49.432  1.00  0.00     0.075 C 
HETATM   13  C   UNL     1      22.210  48.715  48.347  1.00  0.00     0.017 C 
BRANCH  13  14
HETATM   14  C   UNL     1      21.130  49.683  48.186  1.00  0.00    -0.036 A 
HETATM   15  C   UNL     1      21.136  50.869  48.925  1.00  0.00     0.014 A 
HETATM   16  C   UNL     1      20.050  51.745  48.857  1.00  0.00     0.037 A 
HETATM   17  C   UNL     1      18.947  51.421  48.068  1.00  0.00     0.068 A 
HETATM   18  C   UNL     1      18.961  50.265  47.288  1.00  0.00     0.037 A 
HETATM   19  C   UNL     1      20.046  49.392  47.352  1.00  0.00     0.014 A 
BRANCH  17  20
HETATM   20  O   UNL     1      17.845  52.215  47.937  1.00  0.00    -0.351 OA
BRANCH  20  21
HETATM   21  C   UNL     1      16.890  51.801  46.958  1.00  0.00     0.177 C 
BRANCH  21  22
HETATM   22  C   UNL     1      15.542  51.667  47.664  1.00  0.00     0.054 C 
BRANCH  22  23
HETATM   23  C   UNL     1      15.695  51.928  49.160  1.00  0.00     0.236 C 
BRANCH  23  24
HETATM   24  N   UNL     1      14.963  53.189  49.578  1.00  0.00    -0.079 N 
HETATM   25  H   UNL     1      14.460  53.551  48.757  1.00  0.00     0.278 HD
HETATM   26  C   UNL     1      13.946  52.952  50.664  1.00  0.00     0.269 C 
HETATM   27  C   UNL     1      15.940  54.261  49.989  1.00  0.00     0.269 C 
ENDBRANCH  23  24
ENDBRANCH  22  23
ENDBRANCH  21  22
ENDBRANCH  20  21
ENDBRANCH  17  20
ENDBRANCH  13  14
ENDBRANCH   9  12
ENDBRANCH   5   8
BRANCH   3  28
HETATM   28  N   UNL     1      27.721  43.965  50.593  1.00  0.00    -0.188 N 
HETATM   29  H   UNL     1      28.465  44.073  49.922  1.00  0.00     0.184 HD
BRANCH  28  30
HETATM   30  C   UNL     1      28.238  43.392  51.753  1.00  0.00     0.727 A 
HETATM   31  N   UNL     1      28.475  44.130  52.849  1.00  0.00    -0.062 NA
HETATM   32  C   UNL     1      28.970  43.535  53.956  1.00  0.00     0.089 A 
HETATM   33  C   UNL     1      29.243  42.182  53.958  1.00  0.00     0.053 A 
HETATM   34  C   UNL     1      28.999  41.505  52.787  1.00  0.00     0.139 A 
HETATM   35  N   UNL     1      28.512  42.083  51.678  1.00  0.00    -0.075 NA
BRANCH  32  36
HETATM   36  C   UNL     1      29.193  44.430  55.116  1.00  0.00     0.011 A 
HETATM   37  C   UNL     1      28.281  45.444  55.442  1.00  0.00     0.130 A 
HETATM   38  N   UNL     1      28.411  46.326  56.473  1.00  0.00    -0.272 NA
HETATM   39  C   UNL     1      29.507  46.197  57.241  1.00  0.00     0.116 A 
HETATM   40  C   UNL     1      30.475  45.235  57.029  1.00  0.00     0.020 A 
HETATM   41  C   UNL     1      30.314  44.351  55.959  1.00  0.00     0.017 A 
ENDBRANCH  32  36
ENDBRANCH  28  30
ENDBRANCH   3  28
TORSDOF 11
ENDMDL
