MODEL 1
REMARK VINA RESULT:      -8.8      0.000      0.000
REMARK  7 active torsions:
REMARK  status: ('A' for Active; 'I' for Inactive)
REMARK       I    between atoms: N_2  and  C_3 
REMARK    1  A    between atoms: N_2  and  C_17 
REMARK       I    between atoms: C_3  and  N_4 
REMARK    2  A    between atoms: N_4  and  C_5 
REMARK    3  A    between atoms: N_6  and  C_7 
REMARK    4  A    between atoms: C_17  and  C_18 
REMARK    5  A    between atoms: C_18  and  C_19 
REMARK    6  A    between atoms: C_19  and  O_20 
REMARK    7  A    between atoms: C_19  and  C_21 
ROOT
HETATM    1  C   UNL     1      25.872  44.256  51.241  1.00  0.00     0.154 C 
HETATM    2  N   UNL     1      25.869  45.698  51.439  1.00  0.00    -0.343 N 
HETATM    3  C   UNL     1      25.664  46.493  50.307  1.00  0.00     0.301 C 
HETATM    4  N   UNL     1      25.760  47.857  50.549  1.00  0.00    -0.194 NA
HETATM    5  O   UNL     1      25.453  45.997  49.201  1.00  0.00    -0.254 OA
HETATM    6  H   UNL     1      26.573  48.035  51.128  1.00  0.00     0.140 HD
ENDROOT
BRANCH   2   7
HETATM    7  C   UNL     1      25.678  46.175  52.808  1.00  0.00     0.129 C 
BRANCH   7   8
HETATM    8  C   UNL     1      26.205  45.225  53.893  1.00  0.00     0.056 C 
BRANCH   8   9
HETATM    9  C   UNL     1      27.256  45.816  54.848  1.00  0.00     0.152 C 
BRANCH   9  10
HETATM   10  O   UNL     1      27.623  47.111  54.362  1.00  0.00    -0.391 OA
HETATM   11  H   UNL     1      28.563  47.070  54.114  1.00  0.00     0.210 HD
ENDBRANCH   9  10
BRANCH   9  12
HETATM   12  C   UNL     1      28.523  45.030  55.133  1.00  0.00    -0.030 A 
HETATM   13  C   UNL     1      28.766  43.839  54.421  1.00  0.00     0.010 A 
HETATM   14  C   UNL     1      29.934  43.099  54.617  1.00  0.00     0.001 A 
HETATM   15  C   UNL     1      30.886  43.537  55.528  1.00  0.00     0.000 A 
HETATM   16  C   UNL     1      30.676  44.721  56.230  1.00  0.00     0.001 A 
HETATM   17  C   UNL     1      29.511  45.467  56.024  1.00  0.00     0.010 A 
ENDBRANCH   9  12
ENDBRANCH   8   9
ENDBRANCH   7   8
ENDBRANCH   2   7
BRANCH   4  18
HETATM   18  C   UNL     1      25.669  48.694  49.445  1.00  0.00     0.109 A 
HETATM   19  N   UNL     1      24.493  49.148  48.873  1.00  0.00    -0.254 N 
HETATM   20  N   UNL     1      24.730  49.894  47.764  1.00  0.00    -0.183 NA
HETATM   21  C   UNL     1      26.058  49.963  47.691  1.00  0.00     0.142 A 
HETATM   22  C   UNL     1      26.692  49.277  48.738  1.00  0.00     0.065 A 
BRANCH  19  23
HETATM   23  C   UNL     1      23.167  49.173  49.501  1.00  0.00     0.111 C 
HETATM   24  C   UNL     1      22.452  50.543  49.417  1.00  0.00     0.027 C 
HETATM   25  C   UNL     1      21.760  50.807  48.075  1.00  0.00     0.002 C 
HETATM   26  C   UNL     1      20.873  49.646  47.641  1.00  0.00     0.000 C 
HETATM   27  C   UNL     1      21.628  48.324  47.656  1.00  0.00     0.002 C 
HETATM   28  C   UNL     1      22.232  48.053  49.029  1.00  0.00     0.027 C 
ENDBRANCH  19  23
ENDBRANCH   4  18
TORSDOF 7
ENDMDL
MODEL 2
REMARK VINA RESULT:      -8.6      2.413      3.798
REMARK  7 active torsions:
REMARK  status: ('A' for Active; 'I' for Inactive)
REMARK       I    between atoms: N_2  and  C_3 
REMARK    1  A    between atoms: N_2  and  C_17 
REMARK       I    between atoms: C_3  and  N_4 
REMARK    2  A    between atoms: N_4  and  C_5 
REMARK    3  A    between atoms: N_6  and  C_7 
REMARK    4  A    between atoms: C_17  and  C_18 
REMARK    5  A    between atoms: C_18  and  C_19 
REMARK    6  A    between atoms: C_19  and  O_20 
REMARK    7  A    between atoms: C_19  and  C_21 
ROOT
HETATM    1  C   UNL     1      25.799  48.755  49.263  1.00  0.00     0.154 C 
HETATM    2  N   UNL     1      24.584  48.024  49.590  1.00  0.00    -0.343 N 
HETATM    3  C   UNL     1      23.471  48.246  48.772  1.00  0.00     0.301 C 
HETATM    4  N   UNL     1      22.322  47.587  49.190  1.00  0.00    -0.194 NA
HETATM    5  O   UNL     1      23.528  48.990  47.795  1.00  0.00    -0.254 OA
HETATM    6  H   UNL     1      22.219  47.701  50.193  1.00  0.00     0.140 HD
ENDROOT
BRANCH   2   7
HETATM    7  C   UNL     1      24.730  46.857  50.459  1.00  0.00     0.129 C 
BRANCH   7   8
HETATM    8  C   UNL     1      25.983  46.876  51.345  1.00  0.00     0.056 C 
BRANCH   8   9
HETATM    9  C   UNL     1      25.743  46.679  52.851  1.00  0.00     0.152 C 
BRANCH   9  10
HETATM   10  O   UNL     1      25.291  47.923  53.397  1.00  0.00    -0.391 OA
HETATM   11  H   UNL     1      25.955  48.211  54.047  1.00  0.00     0.210 HD
ENDBRANCH   9  10
BRANCH   9  12
HETATM   12  C   UNL     1      26.872  46.152  53.719  1.00  0.00    -0.030 A 
HETATM   13  C   UNL     1      27.364  44.852  53.489  1.00  0.00     0.010 A 
HETATM   14  C   UNL     1      28.426  44.334  54.233  1.00  0.00     0.001 A 
HETATM   15  C   UNL     1      29.022  45.109  55.221  1.00  0.00     0.000 A 
HETATM   16  C   UNL     1      28.564  46.403  55.454  1.00  0.00     0.001 A 
HETATM   17  C   UNL     1      27.508  46.924  54.700  1.00  0.00     0.010 A 
ENDBRANCH   9  12
ENDBRANCH   8   9
ENDBRANCH   7   8
ENDBRANCH   2   7
BRANCH   4  18
HETATM   18  C   UNL     1      21.159  47.848  48.479  1.00  0.00     0.109 A 
HETATM   19  N   UNL     1      20.191  48.773  48.830  1.00  0.00    -0.254 N 
HETATM   20  N   UNL     1      19.138  48.747  47.973  1.00  0.00    -0.183 NA
HETATM   21  C   UNL     1      19.489  47.855  47.048  1.00  0.00     0.142 A 
HETATM   22  C   UNL     1      20.755  47.301  47.285  1.00  0.00     0.065 A 
BRANCH  19  23
HETATM   23  C   UNL     1      20.352  49.900  49.755  1.00  0.00     0.111 C 
HETATM   24  C   UNL     1      20.853  51.203  49.085  1.00  0.00     0.027 C 
HETATM   25  C   UNL     1      19.755  52.009  48.382  1.00  0.00     0.002 C 
HETATM   26  C   UNL     1      18.536  52.228  49.272  1.00  0.00     0.000 C 
HETATM   27  C   UNL     1      18.018  50.919  49.851  1.00  0.00     0.002 C 
HETATM   28  C   UNL     1      19.114  50.184  50.614  1.00  0.00     0.027 C 
ENDBRANCH  19  23
ENDBRANCH   4  18
TORSDOF 7
ENDMDL
MODEL 3
REMARK VINA RESULT:      -8.4      2.207      9.013
REMARK  7 active torsions:
REMARK  status: ('A' for Active; 'I' for Inactive)
REMARK       I    between atoms: N_2  and  C_3 
REMARK    1  A    between atoms: N_2  and  C_17 
REMARK       I    between atoms: C_3  and  N_4 
REMARK    2  A    between atoms: N_4  and  C_5 
REMARK    3  A    between atoms: N_6  and  C_7 
REMARK    4  A    between atoms: C_17  and  C_18 
REMARK    5  A    between atoms: C_18  and  C_19 
REMARK    6  A    between atoms: C_19  and  O_20 
REMARK    7  A    between atoms: C_19  and  C_21 
ROOT
HETATM    1  C   UNL     1      25.340  49.900  48.550  1.00  0.00     0.154 C 
HETATM    2  N   UNL     1      24.796  48.666  49.098  1.00  0.00    -0.343 N 
HETATM    3  C   UNL     1      25.710  47.745  49.617  1.00  0.00     0.301 C 
HETATM    4  N   UNL     1      25.134  46.555  50.043  1.00  0.00    -0.194 NA
HETATM    5  O   UNL     1      26.916  47.983  49.651  1.00  0.00    -0.254 OA
HETATM    6  H   UNL     1      24.469  46.239  49.345  1.00  0.00     0.140 HD
ENDROOT
BRANCH   2   7
HETATM    7  C   UNL     1      23.369  48.662  49.422  1.00  0.00     0.129 C 
BRANCH   7   8
HETATM    8  C   UNL     1      22.523  49.630  48.584  1.00  0.00     0.056 C 
BRANCH   8   9
HETATM    9  C   UNL     1      21.956  50.848  49.334  1.00  0.00     0.152 C 
BRANCH   9  10
HETATM   10  O   UNL     1      22.347  50.747  50.708  1.00  0.00    -0.391 OA
HETATM   11  H   UNL     1      22.591  51.641  51.004  1.00  0.00     0.210 HD
ENDBRANCH   9  10
BRANCH   9  12
HETATM   12  C   UNL     1      20.466  51.128  49.274  1.00  0.00    -0.030 A 
HETATM   13  C   UNL     1      19.596  50.390  50.101  1.00  0.00     0.010 A 
HETATM   14  C   UNL     1      18.221  50.635  50.112  1.00  0.00     0.001 A 
HETATM   15  C   UNL     1      17.688  51.627  49.299  1.00  0.00     0.000 A 
HETATM   16  C   UNL     1      18.530  52.380  48.486  1.00  0.00     0.001 A 
HETATM   17  C   UNL     1      19.909  52.142  48.484  1.00  0.00     0.010 A 
ENDBRANCH   9  12
ENDBRANCH   8   9
ENDBRANCH   7   8
ENDBRANCH   2   7
BRANCH   4  18
HETATM   18  C   UNL     1      26.002  45.560  50.473  1.00  0.00     0.109 A 
HETATM   19  N   UNL     1      26.380  45.334  51.785  1.00  0.00    -0.254 N 
HETATM   20  N   UNL     1      27.295  44.335  51.878  1.00  0.00    -0.183 NA
HETATM   21  C   UNL     1      27.428  43.893  50.628  1.00  0.00     0.142 A 
HETATM   22  C   UNL     1      26.612  44.585  49.722  1.00  0.00     0.065 A 
BRANCH  19  23
HETATM   23  C   UNL     1      25.686  45.804  52.989  1.00  0.00     0.111 C 
HETATM   24  C   UNL     1      25.838  44.869  54.214  1.00  0.00     0.027 C 
HETATM   25  C   UNL     1      27.158  45.042  54.974  1.00  0.00     0.002 C 
HETATM   26  C   UNL     1      27.453  46.502  55.301  1.00  0.00     0.000 C 
HETATM   27  C   UNL     1      27.376  47.383  54.061  1.00  0.00     0.002 C 
HETATM   28  C   UNL     1      26.020  47.250  53.377  1.00  0.00     0.027 C 
ENDBRANCH  19  23
ENDBRANCH   4  18
TORSDOF 7
ENDMDL
MODEL 4
REMARK VINA RESULT:      -8.0      1.686      2.448
REMARK  7 active torsions:
REMARK  status: ('A' for Active; 'I' for Inactive)
REMARK       I    between atoms: N_2  and  C_3 
REMARK    1  A    between atoms: N_2  and  C_17 
REMARK       I    between atoms: C_3  and  N_4 
REMARK    2  A    between atoms: N_4  and  C_5 
REMARK    3  A    between atoms: N_6  and  C_7 
REMARK    4  A    between atoms: C_17  and  C_18 
REMARK    5  A    between atoms: C_18  and  C_19 
REMARK    6  A    between atoms: C_19  and  O_20 
REMARK    7  A    between atoms: C_19  and  C_21 
ROOT
HETATM    1  C   UNL     1      25.065  45.287  53.174  1.00  0.00     0.154 C 
HETATM    2  N   UNL     1      25.227  45.424  51.734  1.00  0.00    -0.343 N 
HETATM    3  C   UNL     1      25.485  46.707  51.244  1.00  0.00     0.301 C 
HETATM    4  N   UNL     1      25.542  46.783  49.859  1.00  0.00    -0.194 NA
HETATM    5  O   UNL     1      25.613  47.671  51.998  1.00  0.00    -0.254 OA
HETATM    6  H   UNL     1      24.768  46.259  49.465  1.00  0.00     0.140 HD
ENDROOT
BRANCH   2   7
HETATM    7  C   UNL     1      25.505  44.200  50.983  1.00  0.00     0.129 C 
BRANCH   7   8
HETATM    8  C   UNL     1      25.660  42.942  51.850  1.00  0.00     0.056 C 
BRANCH   8   9
HETATM    9  C   UNL     1      27.035  42.255  51.793  1.00  0.00     0.152 C 
BRANCH   9  10
HETATM   10  O   UNL     1      26.836  40.846  51.956  1.00  0.00    -0.391 OA
HETATM   11  H   UNL     1      25.889  40.708  52.130  1.00  0.00     0.210 HD
ENDBRANCH   9  10
BRANCH   9  12
HETATM   12  C   UNL     1      28.128  42.702  52.746  1.00  0.00    -0.030 A 
HETATM   13  C   UNL     1      27.780  43.462  53.880  1.00  0.00     0.010 A 
HETATM   14  C   UNL     1      28.741  43.866  54.809  1.00  0.00     0.001 A 
HETATM   15  C   UNL     1      30.072  43.515  54.624  1.00  0.00     0.000 A 
HETATM   16  C   UNL     1      30.438  42.750  53.520  1.00  0.00     0.001 A 
HETATM   17  C   UNL     1      29.472  42.336  52.597  1.00  0.00     0.010 A 
ENDBRANCH   9  12
ENDBRANCH   8   9
ENDBRANCH   7   8
ENDBRANCH   2   7
BRANCH   4  18
HETATM   18  C   UNL     1      25.693  48.049  49.308  1.00  0.00     0.109 A 
HETATM   19  N   UNL     1      24.665  48.931  49.022  1.00  0.00    -0.254 N 
HETATM   20  N   UNL     1      25.125  50.059  48.424  1.00  0.00    -0.183 NA
HETATM   21  C   UNL     1      26.448  49.907  48.406  1.00  0.00     0.142 A 
HETATM   22  C   UNL     1      26.859  48.698  48.986  1.00  0.00     0.065 A 
BRANCH  19  23
HETATM   23  C   UNL     1      23.305  48.896  49.572  1.00  0.00     0.111 C 
HETATM   24  C   UNL     1      22.582  50.265  49.561  1.00  0.00     0.027 C 
HETATM   25  C   UNL     1      21.967  50.638  48.208  1.00  0.00     0.002 C 
HETATM   26  C   UNL     1      21.118  49.514  47.625  1.00  0.00     0.000 C 
HETATM   27  C   UNL     1      21.884  48.199  47.574  1.00  0.00     0.002 C 
HETATM   28  C   UNL     1      22.410  47.815  48.952  1.00  0.00     0.027 C 
ENDBRANCH  19  23
ENDBRANCH   4  18
TORSDOF 7
ENDMDL
MODEL 5
REMARK VINA RESULT:      -8.0      3.312      5.182
REMARK  7 active torsions:
REMARK  status: ('A' for Active; 'I' for Inactive)
REMARK       I    between atoms: N_2  and  C_3 
REMARK    1  A    between atoms: N_2  and  C_17 
REMARK       I    between atoms: C_3  and  N_4 
REMARK    2  A    between atoms: N_4  and  C_5 
REMARK    3  A    between atoms: N_6  and  C_7 
REMARK    4  A    between atoms: C_17  and  C_18 
REMARK    5  A    between atoms: C_18  and  C_19 
REMARK    6  A    between atoms: C_19  and  O_20 
REMARK    7  A    between atoms: C_19  and  C_21 
ROOT
HETATM    1  C   UNL     1      28.755  40.222  48.987  1.00  0.00     0.154 C 
HETATM    2  N   UNL     1      27.852  40.828  49.954  1.00  0.00    -0.343 N 
HETATM    3  C   UNL     1      26.692  41.425  49.451  1.00  0.00     0.301 C 
HETATM    4  N   UNL     1      25.919  42.060  50.414  1.00  0.00    -0.194 NA
HETATM    5  O   UNL     1      26.424  41.401  48.251  1.00  0.00    -0.254 OA
HETATM    6  H   UNL     1      26.524  42.606  51.018  1.00  0.00     0.140 HD
ENDROOT
BRANCH   2   7
HETATM    7  C   UNL     1      28.014  40.426  51.351  1.00  0.00     0.129 C 
BRANCH   7   8
HETATM    8  C   UNL     1      28.872  41.380  52.193  1.00  0.00     0.056 C 
BRANCH   8   9
HETATM    9  C   UNL     1      28.237  41.874  53.504  1.00  0.00     0.152 C 
BRANCH   9  10
HETATM   10  O   UNL     1      26.895  42.285  53.222  1.00  0.00    -0.391 OA
HETATM   11  H   UNL     1      26.303  41.606  53.588  1.00  0.00     0.210 HD
ENDBRANCH   9  10
BRANCH   9  12
HETATM   12  C   UNL     1      28.925  42.973  54.293  1.00  0.00    -0.030 A 
HETATM   13  C   UNL     1      28.218  44.158  54.577  1.00  0.00     0.010 A 
HETATM   14  C   UNL     1      28.791  45.183  55.332  1.00  0.00     0.001 A 
HETATM   15  C   UNL     1      30.083  45.043  55.823  1.00  0.00     0.000 A 
HETATM   16  C   UNL     1      30.795  43.873  55.569  1.00  0.00     0.001 A 
HETATM   17  C   UNL     1      30.215  42.842  54.823  1.00  0.00     0.010 A 
ENDBRANCH   9  12
ENDBRANCH   8   9
ENDBRANCH   7   8
ENDBRANCH   2   7
BRANCH   4  18
HETATM   18  C   UNL     1      24.808  42.759  49.962  1.00  0.00     0.109 A 
HETATM   19  N   UNL     1      24.716  44.135  49.842  1.00  0.00    -0.254 N 
HETATM   20  N   UNL     1      23.478  44.522  49.439  1.00  0.00    -0.183 NA
HETATM   21  C   UNL     1      22.825  43.378  49.240  1.00  0.00     0.142 A 
HETATM   22  C   UNL     1      23.618  42.252  49.501  1.00  0.00     0.065 A 
BRANCH  19  23
HETATM   23  C   UNL     1      25.833  45.085  49.786  1.00  0.00     0.111 C 
HETATM   24  C   UNL     1      25.407  46.548  49.515  1.00  0.00     0.027 C 
HETATM   25  C   UNL     1      24.906  47.296  50.756  1.00  0.00     0.002 C 
HETATM   26  C   UNL     1      25.860  47.163  51.938  1.00  0.00     0.000 C 
HETATM   27  C   UNL     1      26.196  45.707  52.231  1.00  0.00     0.002 C 
HETATM   28  C   UNL     1      26.770  45.018  50.998  1.00  0.00     0.027 C 
ENDBRANCH  19  23
ENDBRANCH   4  18
TORSDOF 7
ENDMDL
MODEL 6
REMARK VINA RESULT:      -7.9      3.854      6.391
REMARK  7 active torsions:
REMARK  status: ('A' for Active; 'I' for Inactive)
REMARK       I    between atoms: N_2  and  C_3 
REMARK    1  A    between atoms: N_2  and  C_17 
REMARK       I    between atoms: C_3  and  N_4 
REMARK    2  A    between atoms: N_4  and  C_5 
REMARK    3  A    between atoms: N_6  and  C_7 
REMARK    4  A    between atoms: C_17  and  C_18 
REMARK    5  A    between atoms: C_18  and  C_19 
REMARK    6  A    between atoms: C_19  and  O_20 
REMARK    7  A    between atoms: C_19  and  C_21 
ROOT
HETATM    1  C   UNL     1      26.026  46.927  52.198  1.00  0.00     0.154 C 
HETATM    2  N   UNL     1      25.555  45.575  52.459  1.00  0.00    -0.343 N 
HETATM    3  C   UNL     1      25.213  44.797  51.349  1.00  0.00     0.301 C 
HETATM    4  N   UNL     1      24.690  43.552  51.671  1.00  0.00    -0.194 NA
HETATM    5  O   UNL     1      25.345  45.219  50.202  1.00  0.00    -0.254 OA
HETATM    6  H   UNL     1      24.011  43.659  52.417  1.00  0.00     0.140 HD
ENDROOT
BRANCH   2   7
HETATM    7  C   UNL     1      25.852  45.016  53.778  1.00  0.00     0.129 C 
BRANCH   7   8
HETATM    8  C   UNL     1      27.166  45.513  54.399  1.00  0.00     0.056 C 
BRANCH   8   9
HETATM    9  C   UNL     1      28.410  44.657  54.107  1.00  0.00     0.152 C 
BRANCH   9  10
HETATM   10  O   UNL     1      27.972  43.367  53.668  1.00  0.00    -0.391 OA
HETATM   11  H   UNL     1      27.904  43.401  52.698  1.00  0.00     0.210 HD
ENDBRANCH   9  10
BRANCH   9  12
HETATM   12  C   UNL     1      29.452  44.469  55.195  1.00  0.00    -0.030 A 
HETATM   13  C   UNL     1      29.553  45.430  56.221  1.00  0.00     0.010 A 
HETATM   14  C   UNL     1      30.467  45.285  57.266  1.00  0.00     0.001 A 
HETATM   15  C   UNL     1      31.298  44.172  57.310  1.00  0.00     0.000 A 
HETATM   16  C   UNL     1      31.204  43.201  56.317  1.00  0.00     0.001 A 
HETATM   17  C   UNL     1      30.279  43.342  55.277  1.00  0.00     0.010 A 
ENDBRANCH   9  12
ENDBRANCH   8   9
ENDBRANCH   7   8
ENDBRANCH   2   7
BRANCH   4  18
HETATM   18  C   UNL     1      24.235  42.773  50.614  1.00  0.00     0.109 A 
HETATM   19  N   UNL     1      24.977  41.819  49.940  1.00  0.00    -0.254 N 
HETATM   20  N   UNL     1      24.278  41.277  48.910  1.00  0.00    -0.183 NA
HETATM   21  C   UNL     1      23.076  41.845  48.992  1.00  0.00     0.142 A 
HETATM   22  C   UNL     1      22.978  42.746  50.062  1.00  0.00     0.065 A 
BRANCH  19  23
HETATM   23  C   UNL     1      26.202  41.167  50.415  1.00  0.00     0.111 C 
HETATM   24  C   UNL     1      26.203  39.627  50.257  1.00  0.00     0.027 C 
HETATM   25  C   UNL     1      26.557  39.141  48.847  1.00  0.00     0.002 C 
HETATM   26  C   UNL     1      27.825  39.794  48.309  1.00  0.00     0.000 C 
HETATM   27  C   UNL     1      27.760  41.313  48.403  1.00  0.00     0.002 C 
HETATM   28  C   UNL     1      27.491  41.763  49.834  1.00  0.00     0.027 C 
ENDBRANCH  19  23
ENDBRANCH   4  18
TORSDOF 7
ENDMDL
MODEL 7
REMARK VINA RESULT:      -7.9      4.168      8.227
REMARK  7 active torsions:
REMARK  status: ('A' for Active; 'I' for Inactive)
REMARK       I    between atoms: N_2  and  C_3 
REMARK    1  A    between atoms: N_2  and  C_17 
REMARK       I    between atoms: C_3  and  N_4 
REMARK    2  A    between atoms: N_4  and  C_5 
REMARK    3  A    between atoms: N_6  and  C_7 
REMARK    4  A    between atoms: C_17  and  C_18 
REMARK    5  A    between atoms: C_18  and  C_19 
REMARK    6  A    between atoms: C_19  and  O_20 
REMARK    7  A    between atoms: C_19  and  C_21 
ROOT
HETATM    1  C   UNL     1      26.444  48.467  56.262  1.00  0.00     0.154 C 
HETATM    2  N   UNL     1      27.314  47.737  55.352  1.00  0.00    -0.343 N 
HETATM    3  C   UNL     1      28.051  46.678  55.891  1.00  0.00     0.301 C 
HETATM    4  N   UNL     1      28.925  46.082  54.992  1.00  0.00    -0.194 NA
HETATM    5  O   UNL     1      27.936  46.349  57.070  1.00  0.00    -0.254 OA
HETATM    6  H   UNL     1      29.418  46.804  54.478  1.00  0.00     0.140 HD
ENDROOT
BRANCH   2   7
HETATM    7  C   UNL     1      27.055  47.897  53.921  1.00  0.00     0.129 C 
BRANCH   7   8
HETATM    8  C   UNL     1      25.874  47.072  53.392  1.00  0.00     0.056 C 
BRANCH   8   9
HETATM    9  C   UNL     1      25.746  46.988  51.861  1.00  0.00     0.152 C 
BRANCH   9  10
HETATM   10  O   UNL     1      24.597  47.746  51.468  1.00  0.00    -0.391 OA
HETATM   11  H   UNL     1      24.745  48.037  50.551  1.00  0.00     0.210 HD
ENDBRANCH   9  10
BRANCH   9  12
HETATM   12  C   UNL     1      25.678  45.626  51.197  1.00  0.00    -0.030 A 
HETATM   13  C   UNL     1      24.641  44.741  51.551  1.00  0.00     0.010 A 
HETATM   14  C   UNL     1      24.510  43.491  50.942  1.00  0.00     0.001 A 
HETATM   15  C   UNL     1      25.413  43.102  49.960  1.00  0.00     0.000 A 
HETATM   16  C   UNL     1      26.436  43.967  49.581  1.00  0.00     0.001 A 
HETATM   17  C   UNL     1      26.558  45.223  50.184  1.00  0.00     0.010 A 
ENDBRANCH   9  12
ENDBRANCH   8   9
ENDBRANCH   7   8
ENDBRANCH   2   7
BRANCH   4  18
HETATM   18  C   UNL     1      29.758  45.091  55.495  1.00  0.00     0.109 A 
HETATM   19  N   UNL     1      29.997  43.863  54.903  1.00  0.00    -0.254 N 
HETATM   20  N   UNL     1      30.802  43.085  55.672  1.00  0.00    -0.183 NA
HETATM   21  C   UNL     1      31.120  43.861  56.707  1.00  0.00     0.142 A 
HETATM   22  C   UNL     1      30.539  45.134  56.624  1.00  0.00     0.065 A 
BRANCH  19  23
HETATM   23  C   UNL     1      29.759  43.507  53.500  1.00  0.00     0.111 C 
HETATM   24  C   UNL     1      30.012  42.015  53.173  1.00  0.00     0.027 C 
HETATM   25  C   UNL     1      28.853  41.085  53.549  1.00  0.00     0.002 C 
HETATM   26  C   UNL     1      27.512  41.588  53.027  1.00  0.00     0.000 C 
HETATM   27  C   UNL     1      27.255  43.033  53.434  1.00  0.00     0.002 C 
HETATM   28  C   UNL     1      28.387  43.943  52.971  1.00  0.00     0.027 C 
ENDBRANCH  19  23
ENDBRANCH   4  18
TORSDOF 7
ENDMDL
MODEL 8
REMARK VINA RESULT:      -7.9      2.325      3.775
REMARK  7 active torsions:
REMARK  status: ('A' for Active; 'I' for Inactive)
REMARK       I    between atoms: N_2  and  C_3 
REMARK    1  A    between atoms: N_2  and  C_17 
REMARK       I    between atoms: C_3  and  N_4 
REMARK    2  A    between atoms: N_4  and  C_5 
REMARK    3  A    between atoms: N_6  and  C_7 
REMARK    4  A    between atoms: C_17  and  C_18 
REMARK    5  A    between atoms: C_18  and  C_19 
REMARK    6  A    between atoms: C_19  and  O_20 
REMARK    7  A    between atoms: C_19  and  C_21 
ROOT
HETATM    1  C   UNL     1      25.751  43.821  54.625  1.00  0.00     0.154 C 
HETATM    2  N   UNL     1      26.270  44.068  53.288  1.00  0.00    -0.343 N 
HETATM    3  C   UNL     1      25.349  44.471  52.315  1.00  0.00     0.301 C 
HETATM    4  N   UNL     1      25.892  44.605  51.044  1.00  0.00    -0.194 NA
HETATM    5  O   UNL     1      24.163  44.650  52.586  1.00  0.00    -0.254 OA
HETATM    6  H   UNL     1      26.486  43.806  50.850  1.00  0.00     0.140 HD
ENDROOT
BRANCH   2   7
HETATM    7  C   UNL     1      27.714  44.267  53.167  1.00  0.00     0.129 C 
BRANCH   7   8
HETATM    8  C   UNL     1      28.564  43.217  53.896  1.00  0.00     0.056 C 
BRANCH   8   9
HETATM    9  C   UNL     1      30.024  43.612  54.175  1.00  0.00     0.152 C 
BRANCH   9  10
HETATM   10  O   UNL     1      30.862  42.511  53.809  1.00  0.00    -0.391 OA
HETATM   11  H   UNL     1      30.363  41.696  53.992  1.00  0.00     0.210 HD
ENDBRANCH   9  10
BRANCH   9  12
HETATM   12  C   UNL     1      30.414  44.075  55.567  1.00  0.00    -0.030 A 
HETATM   13  C   UNL     1      29.839  45.252  56.085  1.00  0.00     0.010 A 
HETATM   14  C   UNL     1      30.133  45.700  57.374  1.00  0.00     0.001 A 
HETATM   15  C   UNL     1      31.007  44.976  58.176  1.00  0.00     0.000 A 
HETATM   16  C   UNL     1      31.574  43.800  57.692  1.00  0.00     0.001 A 
HETATM   17  C   UNL     1      31.269  43.347  56.404  1.00  0.00     0.010 A 
ENDBRANCH   9  12
ENDBRANCH   8   9
ENDBRANCH   7   8
ENDBRANCH   2   7
BRANCH   4  18
HETATM   18  C   UNL     1      25.008  44.902  50.016  1.00  0.00     0.109 A 
HETATM   19  N   UNL     1      24.326  46.096  49.860  1.00  0.00    -0.254 N 
HETATM   20  N   UNL     1      23.482  46.056  48.797  1.00  0.00    -0.183 NA
HETATM   21  C   UNL     1      23.696  44.860  48.251  1.00  0.00     0.142 A 
HETATM   22  C   UNL     1      24.669  44.121  48.938  1.00  0.00     0.065 A 
BRANCH  19  23
HETATM   23  C   UNL     1      24.663  47.383  50.478  1.00  0.00     0.111 C 
HETATM   24  C   UNL     1      26.183  47.662  50.571  1.00  0.00     0.027 C 
HETATM   25  C   UNL     1      26.806  48.185  49.272  1.00  0.00     0.002 C 
HETATM   26  C   UNL     1      26.023  49.352  48.682  1.00  0.00     0.000 C 
HETATM   27  C   UNL     1      24.545  49.018  48.526  1.00  0.00     0.002 C 
HETATM   28  C   UNL     1      23.938  48.583  49.855  1.00  0.00     0.027 C 
ENDBRANCH  19  23
ENDBRANCH   4  18
TORSDOF 7
ENDMDL
MODEL 9
REMARK VINA RESULT:      -7.8      4.060      5.907
REMARK  7 active torsions:
REMARK  status: ('A' for Active; 'I' for Inactive)
REMARK       I    between atoms: N_2  and  C_3 
REMARK    1  A    between atoms: N_2  and  C_17 
REMARK       I    between atoms: C_3  and  N_4 
REMARK    2  A    between atoms: N_4  and  C_5 
REMARK    3  A    between atoms: N_6  and  C_7 
REMARK    4  A    between atoms: C_17  and  C_18 
REMARK    5  A    between atoms: C_18  and  C_19 
REMARK    6  A    between atoms: C_19  and  O_20 
REMARK    7  A    between atoms: C_19  and  C_21 
ROOT
HETATM    1  C   UNL     1      22.785  43.327  49.469  1.00  0.00     0.154 C 
HETATM    2  N   UNL     1      22.879  44.678  48.936  1.00  0.00    -0.343 N 
HETATM    3  C   UNL     1      21.680  45.308  48.589  1.00  0.00     0.301 C 
HETATM    4  N   UNL     1      21.846  46.557  48.007  1.00  0.00    -0.194 NA
HETATM    5  O   UNL     1      20.592  44.762  48.765  1.00  0.00    -0.254 OA
HETATM    6  H   UNL     1      22.586  46.507  47.316  1.00  0.00     0.140 HD
ENDROOT
BRANCH   2   7
HETATM    7  C   UNL     1      24.130  45.397  49.179  1.00  0.00     0.129 C 
BRANCH   7   8
HETATM    8  C   UNL     1      24.309  45.895  50.620  1.00  0.00     0.056 C 
BRANCH   8   9
HETATM    9  C   UNL     1      25.489  46.854  50.856  1.00  0.00     0.152 C 
BRANCH   9  10
HETATM   10  O   UNL     1      25.380  47.374  52.185  1.00  0.00    -0.391 OA
HETATM   11  H   UNL     1      24.516  47.095  52.534  1.00  0.00     0.210 HD
ENDBRANCH   9  10
BRANCH   9  12
HETATM   12  C   UNL     1      25.707  48.011  49.899  1.00  0.00    -0.030 A 
HETATM   13  C   UNL     1      27.023  48.416  49.602  1.00  0.00     0.010 A 
HETATM   14  C   UNL     1      27.279  49.449  48.698  1.00  0.00     0.001 A 
HETATM   15  C   UNL     1      26.223  50.097  48.069  1.00  0.00     0.000 A 
HETATM   16  C   UNL     1      24.915  49.702  48.334  1.00  0.00     0.001 A 
HETATM   17  C   UNL     1      24.660  48.659  49.231  1.00  0.00     0.010 A 
ENDBRANCH   9  12
ENDBRANCH   8   9
ENDBRANCH   7   8
ENDBRANCH   2   7
BRANCH   4  18
HETATM   18  C   UNL     1      20.698  47.188  47.546  1.00  0.00     0.109 A 
HETATM   19  N   UNL     1      19.972  48.145  48.235  1.00  0.00    -0.254 N 
HETATM   20  N   UNL     1      18.861  48.520  47.551  1.00  0.00    -0.183 NA
HETATM   21  C   UNL     1      18.938  47.848  46.403  1.00  0.00     0.142 A 
HETATM   22  C   UNL     1      20.083  47.043  46.326  1.00  0.00     0.065 A 
BRANCH  19  23
HETATM   23  C   UNL     1      20.443  48.953  49.365  1.00  0.00     0.111 C 
HETATM   24  C   UNL     1      21.282  50.187  48.956  1.00  0.00     0.027 C 
HETATM   25  C   UNL     1      20.448  51.394  48.513  1.00  0.00     0.002 C 
HETATM   26  C   UNL     1      19.341  51.731  49.505  1.00  0.00     0.000 C 
HETATM   27  C   UNL     1      18.482  50.515  49.825  1.00  0.00     0.002 C 
HETATM   28  C   UNL     1      19.334  49.362  50.343  1.00  0.00     0.027 C 
ENDBRANCH  19  23
ENDBRANCH   4  18
TORSDOF 7
ENDMDL
MODEL 10
REMARK VINA RESULT:      -7.6     11.395     13.836
REMARK  7 active torsions:
REMARK  status: ('A' for Active; 'I' for Inactive)
REMARK       I    between atoms: N_2  and  C_3 
REMARK    1  A    between atoms: N_2  and  C_17 
REMARK       I    between atoms: C_3  and  N_4 
REMARK    2  A    between atoms: N_4  and  C_5 
REMARK    3  A    between atoms: N_6  and  C_7 
REMARK    4  A    between atoms: C_17  and  C_18 
REMARK    5  A    between atoms: C_18  and  C_19 
REMARK    6  A    between atoms: C_19  and  O_20 
REMARK    7  A    between atoms: C_19  and  C_21 
ROOT
HETATM    1  C   UNL     1      29.187  46.173  39.770  1.00  0.00     0.154 C 
HETATM    2  N   UNL     1      29.189  47.619  39.932  1.00  0.00    -0.343 N 
HETATM    3  C   UNL     1      30.330  48.304  39.503  1.00  0.00     0.301 C 
HETATM    4  N   UNL     1      30.303  49.667  39.765  1.00  0.00    -0.194 NA
HETATM    5  O   UNL     1      31.272  47.717  38.973  1.00  0.00    -0.254 OA
HETATM    6  H   UNL     1      29.974  49.817  40.712  1.00  0.00     0.140 HD
ENDROOT
BRANCH   2   7
HETATM    7  C   UNL     1      27.891  48.261  40.142  1.00  0.00     0.129 C 
BRANCH   7   8
HETATM    8  C   UNL     1      27.818  49.158  41.385  1.00  0.00     0.056 C 
BRANCH   8   9
HETATM    9  C   UNL     1      27.242  50.567  41.163  1.00  0.00     0.152 C 
BRANCH   9  10
HETATM   10  O   UNL     1      26.187  50.470  40.200  1.00  0.00    -0.391 OA
HETATM   11  H   UNL     1      25.361  50.714  40.652  1.00  0.00     0.210 HD
ENDBRANCH   9  10
BRANCH   9  12
HETATM   12  C   UNL     1      28.172  51.692  40.750  1.00  0.00    -0.030 A 
HETATM   13  C   UNL     1      28.150  52.146  39.417  1.00  0.00     0.010 A 
HETATM   14  C   UNL     1      28.958  53.204  38.995  1.00  0.00     0.001 A 
HETATM   15  C   UNL     1      29.804  53.833  39.900  1.00  0.00     0.000 A 
HETATM   16  C   UNL     1      29.830  53.413  41.226  1.00  0.00     0.001 A 
HETATM   17  C   UNL     1      29.012  52.361  41.650  1.00  0.00     0.010 A 
ENDBRANCH   9  12
ENDBRANCH   8   9
ENDBRANCH   7   8
ENDBRANCH   2   7
BRANCH   4  18
HETATM   18  C   UNL     1      31.451  50.385  39.456  1.00  0.00     0.109 A 
HETATM   19  N   UNL     1      32.493  50.651  40.326  1.00  0.00    -0.254 N 
HETATM   20  N   UNL     1      33.440  51.436  39.750  1.00  0.00    -0.183 NA
HETATM   21  C   UNL     1      33.017  51.596  38.497  1.00  0.00     0.142 A 
HETATM   22  C   UNL     1      31.812  50.924  38.245  1.00  0.00     0.065 A 
BRANCH  19  23
HETATM   23  C   UNL     1      32.793  49.941  41.574  1.00  0.00     0.111 C 
HETATM   24  C   UNL     1      34.265  50.069  42.038  1.00  0.00     0.027 C 
HETATM   25  C   UNL     1      34.580  51.377  42.771  1.00  0.00     0.002 C 
HETATM   26  C   UNL     1      33.579  51.676  43.881  1.00  0.00     0.000 C 
HETATM   27  C   UNL     1      32.144  51.624  43.375  1.00  0.00     0.002 C 
HETATM   28  C   UNL     1      31.840  50.278  42.728  1.00  0.00     0.027 C 
ENDBRANCH  19  23
ENDBRANCH   4  18
TORSDOF 7
ENDMDL
