MODEL 1
REMARK VINA RESULT:      -9.8      0.000      0.000
REMARK  6 active torsions:
REMARK  status: ('A' for Active; 'I' for Inactive)
REMARK    1  A    between atoms: C_4  and  C_5 
REMARK    2  A    between atoms: C_7  and  N_8 
REMARK       I    between atoms: N_8  and  C_9 
REMARK    3  A    between atoms: C_9  and  C_10 
REMARK    4  A    between atoms: C_10  and  N_11 
REMARK    5  A    between atoms: C_10  and  C_15 
REMARK       I    between atoms: N_11  and  C_12 
REMARK       I    between atoms: C_12  and  N_13 
REMARK    6  A    between atoms: C_15  and  C_16 
ROOT
HETATM    1  N   UNL     1      26.496  44.681  51.028  1.00  0.00    -0.325 N 
HETATM    2  C   UNL     1      25.127  44.800  51.163  1.00  0.00     0.245 C 
HETATM    3  O   UNL     1      24.445  44.323  52.070  1.00  0.00    -0.271 OA
HETATM    4  H   UNL     1      26.926  45.279  50.322  1.00  0.00     0.169 HD
ENDROOT
BRANCH   2   5
HETATM    5  C   UNL     1      24.443  45.648  50.065  1.00  0.00     0.182 C 
BRANCH   5   6
HETATM    6  N   UNL     1      23.152  45.051  49.695  1.00  0.00    -0.334 N 
HETATM    7  C   UNL     1      23.012  44.144  48.693  1.00  0.00     0.292 C 
HETATM    8  N   UNL     1      21.744  43.687  48.580  1.00  0.00    -0.254 NA
HETATM    9  O   UNL     1      23.910  43.769  47.952  1.00  0.00    -0.254 OA
HETATM   10  H   UNL     1      21.005  44.357  48.742  1.00  0.00     0.128 HD
HETATM   11  H   UNL     1      21.598  43.103  47.765  1.00  0.00     0.128 HD
HETATM   12  H   UNL     1      22.444  45.019  50.412  1.00  0.00     0.164 HD
ENDBRANCH   5   6
BRANCH   5  13
HETATM   13  C   UNL     1      24.349  47.154  50.379  1.00  0.00     0.073 C 
BRANCH  13  14
HETATM   14  C   UNL     1      25.300  48.107  49.685  1.00  0.00    -0.056 A 
HETATM   15  C   UNL     1      26.695  48.063  49.817  1.00  0.00     0.007 A 
HETATM   16  C   UNL     1      27.502  48.992  49.152  1.00  0.00     0.001 A 
HETATM   17  C   UNL     1      26.932  49.964  48.335  1.00  0.00     0.000 A 
HETATM   18  C   UNL     1      25.551  50.009  48.176  1.00  0.00     0.001 A 
HETATM   19  C   UNL     1      24.744  49.087  48.844  1.00  0.00     0.007 A 
ENDBRANCH  13  14
ENDBRANCH   5  13
ENDBRANCH   2   5
BRANCH   1  20
HETATM   20  C   UNL     1      27.379  43.899  51.798  1.00  0.00     0.035 A 
HETATM   21  C   UNL     1      28.012  44.344  52.962  1.00  0.00     0.045 A 
HETATM   22  C   UNL     1      28.875  43.504  53.686  1.00  0.00     0.019 A 
HETATM   23  C   UNL     1      29.074  42.192  53.235  1.00  0.00     0.016 A 
HETATM   24  C   UNL     1      28.448  41.737  52.077  1.00  0.00     0.003 A 
HETATM   25  C   UNL     1      27.613  42.591  51.356  1.00  0.00     0.029 A 
BRANCH  22  26
HETATM   26  C   UNL     1      29.578  43.968  54.880  1.00  0.00     0.180 A 
HETATM   27  N   UNL     1      29.363  45.048  55.610  1.00  0.00    -0.226 NA
HETATM   28  C   UNL     1      30.284  44.958  56.631  1.00  0.00     0.063 A 
HETATM   29  C   UNL     1      30.372  45.996  57.677  1.00  0.00     0.073 C 
HETATM   30  C   UNL     1      31.020  43.803  56.484  1.00  0.00     0.076 A 
HETATM   31  O   UNL     1      30.581  43.166  55.359  1.00  0.00    -0.294 OA
HETATM   32  C   UNL     1      32.107  43.159  57.241  1.00  0.00     0.079 C 
ENDBRANCH  22  26
ENDBRANCH   1  20
TORSDOF 6
ENDMDL
MODEL 2
REMARK VINA RESULT:      -9.6      2.739      8.934
REMARK  6 active torsions:
REMARK  status: ('A' for Active; 'I' for Inactive)
REMARK    1  A    between atoms: C_4  and  C_5 
REMARK    2  A    between atoms: C_7  and  N_8 
REMARK       I    between atoms: N_8  and  C_9 
REMARK    3  A    between atoms: C_9  and  C_10 
REMARK    4  A    between atoms: C_10  and  N_11 
REMARK    5  A    between atoms: C_10  and  C_15 
REMARK       I    between atoms: N_11  and  C_12 
REMARK       I    between atoms: C_12  and  N_13 
REMARK    6  A    between atoms: C_15  and  C_16 
ROOT
HETATM    1  N   UNL     1      26.127  46.498  50.842  1.00  0.00    -0.325 N 
HETATM    2  C   UNL     1      26.824  45.352  50.511  1.00  0.00     0.245 C 
HETATM    3  O   UNL     1      27.387  45.133  49.438  1.00  0.00    -0.271 OA
HETATM    4  H   UNL     1      25.873  46.594  51.825  1.00  0.00     0.169 HD
ENDROOT
BRANCH   2   5
HETATM    5  C   UNL     1      26.902  44.297  51.639  1.00  0.00     0.182 C 
BRANCH   5   6
HETATM    6  N   UNL     1      25.875  43.264  51.437  1.00  0.00    -0.334 N 
HETATM    7  C   UNL     1      24.543  43.520  51.495  1.00  0.00     0.292 C 
HETATM    8  N   UNL     1      23.792  42.430  51.213  1.00  0.00    -0.254 NA
HETATM    9  O   UNL     1      24.043  44.600  51.777  1.00  0.00    -0.254 OA
HETATM   10  H   UNL     1      24.138  41.542  51.552  1.00  0.00     0.128 HD
HETATM   11  H   UNL     1      22.801  42.572  51.367  1.00  0.00     0.128 HD
HETATM   12  H   UNL     1      26.141  42.461  50.888  1.00  0.00     0.164 HD
ENDBRANCH   5   6
BRANCH   5  13
HETATM   13  C   UNL     1      28.309  43.717  51.883  1.00  0.00     0.073 C 
BRANCH  13  14
HETATM   14  C   UNL     1      28.950  43.901  53.243  1.00  0.00    -0.056 A 
HETATM   15  C   UNL     1      28.529  44.842  54.192  1.00  0.00     0.007 A 
HETATM   16  C   UNL     1      29.188  44.958  55.420  1.00  0.00     0.001 A 
HETATM   17  C   UNL     1      30.261  44.126  55.726  1.00  0.00     0.000 A 
HETATM   18  C   UNL     1      30.679  43.172  54.804  1.00  0.00     0.001 A 
HETATM   19  C   UNL     1      30.027  43.060  53.575  1.00  0.00     0.007 A 
ENDBRANCH  13  14
ENDBRANCH   5  13
ENDBRANCH   2   5
BRANCH   1  20
HETATM   20  C   UNL     1      25.796  47.583  50.009  1.00  0.00     0.035 A 
HETATM   21  C   UNL     1      24.490  47.917  49.635  1.00  0.00     0.045 A 
HETATM   22  C   UNL     1      24.232  49.022  48.806  1.00  0.00     0.019 A 
HETATM   23  C   UNL     1      25.309  49.810  48.378  1.00  0.00     0.016 A 
HETATM   24  C   UNL     1      26.614  49.489  48.745  1.00  0.00     0.003 A 
HETATM   25  C   UNL     1      26.856  48.373  49.548  1.00  0.00     0.029 A 
BRANCH  22  26
HETATM   26  C   UNL     1      22.879  49.357  48.370  1.00  0.00     0.180 A 
HETATM   27  N   UNL     1      22.026  48.638  47.662  1.00  0.00    -0.226 NA
HETATM   28  C   UNL     1      20.896  49.422  47.591  1.00  0.00     0.063 A 
HETATM   29  C   UNL     1      19.693  48.968  46.866  1.00  0.00     0.073 C 
HETATM   30  C   UNL     1      21.107  50.595  48.282  1.00  0.00     0.076 A 
HETATM   31  O   UNL     1      22.379  50.566  48.778  1.00  0.00    -0.294 OA
HETATM   32  C   UNL     1      20.298  51.790  48.575  1.00  0.00     0.079 C 
ENDBRANCH  22  26
ENDBRANCH   1  20
TORSDOF 6
ENDMDL
MODEL 3
REMARK VINA RESULT:      -9.5      5.102      7.340
REMARK  6 active torsions:
REMARK  status: ('A' for Active; 'I' for Inactive)
REMARK    1  A    between atoms: C_4  and  C_5 
REMARK    2  A    between atoms: C_7  and  N_8 
REMARK       I    between atoms: N_8  and  C_9 
REMARK    3  A    between atoms: C_9  and  C_10 
REMARK    4  A    between atoms: C_10  and  N_11 
REMARK    5  A    between atoms: C_10  and  C_15 
REMARK       I    between atoms: N_11  and  C_12 
REMARK       I    between atoms: C_12  and  N_13 
REMARK    6  A    between atoms: C_15  and  C_16 
ROOT
HETATM    1  N   UNL     1      22.610  48.941  49.399  1.00  0.00    -0.325 N 
HETATM    2  C   UNL     1      22.030  50.145  49.747  1.00  0.00     0.245 C 
HETATM    3  O   UNL     1      22.628  51.165  50.089  1.00  0.00    -0.271 OA
HETATM    4  H   UNL     1      21.988  48.254  48.974  1.00  0.00     0.169 HD
ENDROOT
BRANCH   2   5
HETATM    5  C   UNL     1      20.485  50.167  49.648  1.00  0.00     0.182 C 
BRANCH   5   6
HETATM    6  N   UNL     1      19.891  49.843  50.953  1.00  0.00    -0.334 N 
HETATM    7  C   UNL     1      18.936  48.892  51.119  1.00  0.00     0.292 C 
HETATM    8  N   UNL     1      18.588  48.725  52.416  1.00  0.00    -0.254 NA
HETATM    9  O   UNL     1      18.419  48.246  50.217  1.00  0.00    -0.254 OA
HETATM   10  H   UNL     1      18.555  49.559  52.986  1.00  0.00     0.128 HD
HETATM   11  H   UNL     1      17.796  48.107  52.544  1.00  0.00     0.128 HD
HETATM   12  H   UNL     1      20.447  50.049  51.769  1.00  0.00     0.164 HD
ENDBRANCH   5   6
BRANCH   5  13
HETATM   13  C   UNL     1      19.899  51.442  49.012  1.00  0.00     0.073 C 
BRANCH  13  14
HETATM   14  C   UNL     1      18.394  51.596  48.936  1.00  0.00    -0.056 A 
HETATM   15  C   UNL     1      17.570  50.869  48.066  1.00  0.00     0.007 A 
HETATM   16  C   UNL     1      16.188  51.084  48.049  1.00  0.00     0.001 A 
HETATM   17  C   UNL     1      15.608  52.011  48.910  1.00  0.00     0.000 A 
HETATM   18  C   UNL     1      16.408  52.726  49.794  1.00  0.00     0.001 A 
HETATM   19  C   UNL     1      17.788  52.518  49.808  1.00  0.00     0.007 A 
ENDBRANCH  13  14
ENDBRANCH   5  13
ENDBRANCH   2   5
BRANCH   1  20
HETATM   20  C   UNL     1      23.968  48.576  49.483  1.00  0.00     0.035 A 
HETATM   21  C   UNL     1      24.439  47.461  50.183  1.00  0.00     0.045 A 
HETATM   22  C   UNL     1      25.810  47.152  50.217  1.00  0.00     0.019 A 
HETATM   23  C   UNL     1      26.704  47.968  49.511  1.00  0.00     0.016 A 
HETATM   24  C   UNL     1      26.245  49.081  48.809  1.00  0.00     0.003 A 
HETATM   25  C   UNL     1      24.884  49.389  48.805  1.00  0.00     0.029 A 
BRANCH  22  26
HETATM   26  C   UNL     1      26.323  46.016  50.980  1.00  0.00     0.180 A 
HETATM   27  N   UNL     1      26.823  44.874  50.545  1.00  0.00    -0.226 NA
HETATM   28  C   UNL     1      27.188  44.203  51.692  1.00  0.00     0.063 A 
HETATM   29  C   UNL     1      27.795  42.858  51.633  1.00  0.00     0.073 C 
HETATM   30  C   UNL     1      26.904  44.984  52.791  1.00  0.00     0.076 A 
HETATM   31  O   UNL     1      26.341  46.145  52.345  1.00  0.00    -0.294 OA
HETATM   32  C   UNL     1      27.072  44.833  54.246  1.00  0.00     0.079 C 
ENDBRANCH  22  26
ENDBRANCH   1  20
TORSDOF 6
ENDMDL
MODEL 4
REMARK VINA RESULT:      -9.4      4.218      5.568
REMARK  6 active torsions:
REMARK  status: ('A' for Active; 'I' for Inactive)
REMARK    1  A    between atoms: C_4  and  C_5 
REMARK    2  A    between atoms: C_7  and  N_8 
REMARK       I    between atoms: N_8  and  C_9 
REMARK    3  A    between atoms: C_9  and  C_10 
REMARK    4  A    between atoms: C_10  and  N_11 
REMARK    5  A    between atoms: C_10  and  C_15 
REMARK       I    between atoms: N_11  and  C_12 
REMARK       I    between atoms: C_12  and  N_13 
REMARK    6  A    between atoms: C_15  and  C_16 
ROOT
HETATM    1  N   UNL     1      23.378  47.094  49.533  1.00  0.00    -0.325 N 
HETATM    2  C   UNL     1      23.237  48.434  49.232  1.00  0.00     0.245 C 
HETATM    3  O   UNL     1      24.100  49.302  49.369  1.00  0.00    -0.271 OA
HETATM    4  H   UNL     1      22.633  46.483  49.199  1.00  0.00     0.169 HD
ENDROOT
BRANCH   2   5
HETATM    5  C   UNL     1      21.860  48.819  48.640  1.00  0.00     0.182 C 
BRANCH   5   6
HETATM    6  N   UNL     1      20.801  48.593  49.633  1.00  0.00    -0.334 N 
HETATM    7  C   UNL     1      19.723  47.800  49.403  1.00  0.00     0.292 C 
HETATM    8  N   UNL     1      18.917  47.692  50.485  1.00  0.00    -0.254 NA
HETATM    9  O   UNL     1      19.473  47.240  48.344  1.00  0.00    -0.254 OA
HETATM   10  H   UNL     1      18.805  48.522  51.050  1.00  0.00     0.128 HD
HETATM   11  H   UNL     1      18.051  47.203  50.294  1.00  0.00     0.128 HD
HETATM   12  H   UNL     1      21.054  48.713  50.603  1.00  0.00     0.164 HD
ENDBRANCH   5   6
BRANCH   5  13
HETATM   13  C   UNL     1      21.804  50.220  47.998  1.00  0.00     0.073 C 
BRANCH  13  14
HETATM   14  C   UNL     1      20.458  50.895  47.833  1.00  0.00    -0.056 A 
HETATM   15  C   UNL     1      19.995  51.938  48.646  1.00  0.00     0.007 A 
HETATM   16  C   UNL     1      18.730  52.497  48.435  1.00  0.00     0.001 A 
HETATM   17  C   UNL     1      17.921  52.038  47.400  1.00  0.00     0.000 A 
HETATM   18  C   UNL     1      18.374  51.019  46.570  1.00  0.00     0.001 A 
HETATM   19  C   UNL     1      19.632  50.455  46.784  1.00  0.00     0.007 A 
ENDBRANCH  13  14
ENDBRANCH   5  13
ENDBRANCH   2   5
BRANCH   1  20
HETATM   20  C   UNL     1      24.460  46.458  50.173  1.00  0.00     0.035 A 
HETATM   21  C   UNL     1      24.907  46.773  51.460  1.00  0.00     0.045 A 
HETATM   22  C   UNL     1      25.989  46.089  52.040  1.00  0.00     0.019 A 
HETATM   23  C   UNL     1      26.602  45.058  51.316  1.00  0.00     0.016 A 
HETATM   24  C   UNL     1      26.164  44.734  50.033  1.00  0.00     0.003 A 
HETATM   25  C   UNL     1      25.105  45.439  49.461  1.00  0.00     0.029 A 
BRANCH  22  26
HETATM   26  C   UNL     1      26.496  46.436  53.365  1.00  0.00     0.180 A 
HETATM   27  N   UNL     1      27.425  45.837  54.089  1.00  0.00    -0.226 NA
HETATM   28  C   UNL     1      27.530  46.614  55.221  1.00  0.00     0.063 A 
HETATM   29  C   UNL     1      28.476  46.272  56.301  1.00  0.00     0.073 C 
HETATM   30  C   UNL     1      26.658  47.678  55.129  1.00  0.00     0.076 A 
HETATM   31  O   UNL     1      25.985  47.567  53.947  1.00  0.00    -0.294 OA
HETATM   32  C   UNL     1      26.328  48.829  55.987  1.00  0.00     0.079 C 
ENDBRANCH  22  26
ENDBRANCH   1  20
TORSDOF 6
ENDMDL
MODEL 5
REMARK VINA RESULT:      -8.9      4.867      7.709
REMARK  6 active torsions:
REMARK  status: ('A' for Active; 'I' for Inactive)
REMARK    1  A    between atoms: C_4  and  C_5 
REMARK    2  A    between atoms: C_7  and  N_8 
REMARK       I    between atoms: N_8  and  C_9 
REMARK    3  A    between atoms: C_9  and  C_10 
REMARK    4  A    between atoms: C_10  and  N_11 
REMARK    5  A    between atoms: C_10  and  C_15 
REMARK       I    between atoms: N_11  and  C_12 
REMARK       I    between atoms: C_12  and  N_13 
REMARK    6  A    between atoms: C_15  and  C_16 
ROOT
HETATM    1  N   UNL     1      28.404  41.226  50.713  1.00  0.00    -0.325 N 
HETATM    2  C   UNL     1      27.514  40.195  50.486  1.00  0.00     0.245 C 
HETATM    3  O   UNL     1      26.368  40.118  50.929  1.00  0.00    -0.271 OA
HETATM    4  H   UNL     1      29.245  41.223  50.134  1.00  0.00     0.169 HD
ENDROOT
BRANCH   2   5
HETATM    5  C   UNL     1      28.046  39.079  49.556  1.00  0.00     0.182 C 
BRANCH   5   6
HETATM    6  N   UNL     1      28.458  37.913  50.350  1.00  0.00    -0.334 N 
HETATM    7  C   UNL     1      29.743  37.480  50.423  1.00  0.00     0.292 C 
HETATM    8  N   UNL     1      29.891  36.431  51.265  1.00  0.00    -0.254 NA
HETATM    9  O   UNL     1      30.684  37.956  49.803  1.00  0.00    -0.254 OA
HETATM   10  H   UNL     1      29.142  35.752  51.277  1.00  0.00     0.128 HD
HETATM   11  H   UNL     1      30.817  36.022  51.240  1.00  0.00     0.128 HD
HETATM   12  H   UNL     1      27.870  37.664  51.131  1.00  0.00     0.164 HD
ENDBRANCH   5   6
BRANCH   5  13
HETATM   13  C   UNL     1      27.112  38.718  48.384  1.00  0.00     0.073 C 
BRANCH  13  14
HETATM   14  C   UNL     1      27.505  37.586  47.457  1.00  0.00    -0.056 A 
HETATM   15  C   UNL     1      28.671  37.572  46.680  1.00  0.00     0.007 A 
HETATM   16  C   UNL     1      28.952  36.492  45.837  1.00  0.00     0.001 A 
HETATM   17  C   UNL     1      28.086  35.405  45.772  1.00  0.00     0.000 A 
HETATM   18  C   UNL     1      26.935  35.392  46.552  1.00  0.00     0.001 A 
HETATM   19  C   UNL     1      26.649  36.472  47.388  1.00  0.00     0.007 A 
ENDBRANCH  13  14
ENDBRANCH   5  13
ENDBRANCH   2   5
BRANCH   1  20
HETATM   20  C   UNL     1      28.258  42.322  51.585  1.00  0.00     0.035 A 
HETATM   21  C   UNL     1      29.034  42.524  52.731  1.00  0.00     0.045 A 
HETATM   22  C   UNL     1      28.839  43.648  53.552  1.00  0.00     0.019 A 
HETATM   23  C   UNL     1      27.865  44.587  53.188  1.00  0.00     0.016 A 
HETATM   24  C   UNL     1      27.087  44.399  52.048  1.00  0.00     0.003 A 
HETATM   25  C   UNL     1      27.276  43.265  51.257  1.00  0.00     0.029 A 
BRANCH  22  26
HETATM   26  C   UNL     1      29.611  43.849  54.776  1.00  0.00     0.180 A 
HETATM   27  N   UNL     1      30.606  43.130  55.265  1.00  0.00    -0.226 NA
HETATM   28  C   UNL     1      30.983  43.803  56.406  1.00  0.00     0.063 A 
HETATM   29  C   UNL     1      32.082  43.309  57.259  1.00  0.00     0.073 C 
HETATM   30  C   UNL     1      30.200  44.927  56.556  1.00  0.00     0.076 A 
HETATM   31  O   UNL     1      29.312  44.960  55.520  1.00  0.00    -0.294 OA
HETATM   32  C   UNL     1      30.131  46.023  57.537  1.00  0.00     0.079 C 
ENDBRANCH  22  26
ENDBRANCH   1  20
TORSDOF 6
ENDMDL
MODEL 6
REMARK VINA RESULT:      -8.6      4.167      6.289
REMARK  6 active torsions:
REMARK  status: ('A' for Active; 'I' for Inactive)
REMARK    1  A    between atoms: C_4  and  C_5 
REMARK    2  A    between atoms: C_7  and  N_8 
REMARK       I    between atoms: N_8  and  C_9 
REMARK    3  A    between atoms: C_9  and  C_10 
REMARK    4  A    between atoms: C_10  and  N_11 
REMARK    5  A    between atoms: C_10  and  C_15 
REMARK       I    between atoms: N_11  and  C_12 
REMARK       I    between atoms: C_12  and  N_13 
REMARK    6  A    between atoms: C_15  and  C_16 
ROOT
HETATM    1  N   UNL     1      22.496  47.851  49.635  1.00  0.00    -0.325 N 
HETATM    2  C   UNL     1      21.719  47.632  48.515  1.00  0.00     0.245 C 
HETATM    3  O   UNL     1      22.109  47.168  47.443  1.00  0.00    -0.271 OA
HETATM    4  H   UNL     1      21.988  48.074  50.491  1.00  0.00     0.169 HD
ENDROOT
BRANCH   2   5
HETATM    5  C   UNL     1      20.223  47.986  48.689  1.00  0.00     0.182 C 
BRANCH   5   6
HETATM    6  N   UNL     1      19.416  46.759  48.748  1.00  0.00    -0.334 N 
HETATM    7  C   UNL     1      18.163  46.667  48.234  1.00  0.00     0.292 C 
HETATM    8  N   UNL     1      17.644  45.423  48.349  1.00  0.00    -0.254 NA
HETATM    9  O   UNL     1      17.540  47.589  47.725  1.00  0.00    -0.254 OA
HETATM   10  H   UNL     1      17.866  44.916  49.195  1.00  0.00     0.128 HD
HETATM   11  H   UNL     1      16.669  45.367  48.079  1.00  0.00     0.128 HD
HETATM   12  H   UNL     1      19.919  45.888  48.827  1.00  0.00     0.164 HD
ENDBRANCH   5   6
BRANCH   5  13
HETATM   13  C   UNL     1      19.923  48.968  49.839  1.00  0.00     0.073 C 
BRANCH  13  14
HETATM   14  C   UNL     1      19.253  50.288  49.518  1.00  0.00    -0.056 A 
HETATM   15  C   UNL     1      18.003  50.679  50.016  1.00  0.00     0.007 A 
HETATM   16  C   UNL     1      17.448  51.911  49.658  1.00  0.00     0.001 A 
HETATM   17  C   UNL     1      18.138  52.776  48.814  1.00  0.00     0.000 A 
HETATM   18  C   UNL     1      19.389  52.414  48.327  1.00  0.00     0.001 A 
HETATM   19  C   UNL     1      19.942  51.181  48.678  1.00  0.00     0.007 A 
ENDBRANCH  13  14
ENDBRANCH   5  13
ENDBRANCH   2   5
BRANCH   1  20
HETATM   20  C   UNL     1      23.893  47.728  49.759  1.00  0.00     0.035 A 
HETATM   21  C   UNL     1      24.532  46.692  50.448  1.00  0.00     0.045 A 
HETATM   22  C   UNL     1      25.934  46.626  50.524  1.00  0.00     0.019 A 
HETATM   23  C   UNL     1      26.691  47.608  49.871  1.00  0.00     0.016 A 
HETATM   24  C   UNL     1      26.066  48.644  49.180  1.00  0.00     0.003 A 
HETATM   25  C   UNL     1      24.673  48.709  49.135  1.00  0.00     0.029 A 
BRANCH  22  26
HETATM   26  C   UNL     1      26.615  45.576  51.277  1.00  0.00     0.180 A 
HETATM   27  N   UNL     1      27.250  44.506  50.833  1.00  0.00    -0.226 NA
HETATM   28  C   UNL     1      27.733  43.899  51.971  1.00  0.00     0.063 A 
HETATM   29  C   UNL     1      28.511  42.647  51.901  1.00  0.00     0.073 C 
HETATM   30  C   UNL     1      27.379  44.645  53.074  1.00  0.00     0.076 A 
HETATM   31  O   UNL     1      26.654  45.718  52.640  1.00  0.00    -0.294 OA
HETATM   32  C   UNL     1      27.607  44.530  54.524  1.00  0.00     0.079 C 
ENDBRANCH  22  26
ENDBRANCH   1  20
TORSDOF 6
ENDMDL
MODEL 7
REMARK VINA RESULT:      -8.5      3.325      4.674
REMARK  6 active torsions:
REMARK  status: ('A' for Active; 'I' for Inactive)
REMARK    1  A    between atoms: C_4  and  C_5 
REMARK    2  A    between atoms: C_7  and  N_8 
REMARK       I    between atoms: N_8  and  C_9 
REMARK    3  A    between atoms: C_9  and  C_10 
REMARK    4  A    between atoms: C_10  and  N_11 
REMARK    5  A    between atoms: C_10  and  C_15 
REMARK       I    between atoms: N_11  and  C_12 
REMARK       I    between atoms: C_12  and  N_13 
REMARK    6  A    between atoms: C_15  and  C_16 
ROOT
HETATM    1  N   UNL     1      26.803  43.121  51.331  1.00  0.00    -0.325 N 
HETATM    2  C   UNL     1      26.892  43.338  49.970  1.00  0.00     0.245 C 
HETATM    3  O   UNL     1      27.301  44.364  49.426  1.00  0.00    -0.271 OA
HETATM    4  H   UNL     1      26.610  42.161  51.616  1.00  0.00     0.169 HD
ENDROOT
BRANCH   2   5
HETATM    5  C   UNL     1      26.455  42.137  49.097  1.00  0.00     0.182 C 
BRANCH   5   6
HETATM    6  N   UNL     1      27.424  41.039  49.228  1.00  0.00    -0.334 N 
HETATM    7  C   UNL     1      28.354  40.753  48.281  1.00  0.00     0.292 C 
HETATM    8  N   UNL     1      29.176  39.742  48.650  1.00  0.00    -0.254 NA
HETATM    9  O   UNL     1      28.460  41.319  47.202  1.00  0.00    -0.254 OA
HETATM   10  H   UNL     1      28.755  38.985  49.171  1.00  0.00     0.128 HD
HETATM   11  H   UNL     1      29.796  39.438  47.909  1.00  0.00     0.128 HD
HETATM   12  H   UNL     1      27.649  40.742  50.165  1.00  0.00     0.164 HD
ENDBRANCH   5   6
BRANCH   5  13
HETATM   13  C   UNL     1      24.995  41.689  49.302  1.00  0.00     0.073 C 
BRANCH  13  14
HETATM   14  C   UNL     1      23.878  42.641  48.927  1.00  0.00    -0.056 A 
HETATM   15  C   UNL     1      23.087  43.333  49.854  1.00  0.00     0.007 A 
HETATM   16  C   UNL     1      22.064  44.183  49.422  1.00  0.00     0.001 A 
HETATM   17  C   UNL     1      21.828  44.369  48.064  1.00  0.00     0.000 A 
HETATM   18  C   UNL     1      22.617  43.707  47.129  1.00  0.00     0.001 A 
HETATM   19  C   UNL     1      23.634  42.853  47.558  1.00  0.00     0.007 A 
ENDBRANCH  13  14
ENDBRANCH   5  13
ENDBRANCH   2   5
BRANCH   1  20
HETATM   20  C   UNL     1      27.025  44.043  52.373  1.00  0.00     0.035 A 
HETATM   21  C   UNL     1      28.038  43.918  53.330  1.00  0.00     0.045 A 
HETATM   22  C   UNL     1      28.207  44.882  54.338  1.00  0.00     0.019 A 
HETATM   23  C   UNL     1      27.357  45.996  54.355  1.00  0.00     0.016 A 
HETATM   24  C   UNL     1      26.346  46.133  53.406  1.00  0.00     0.003 A 
HETATM   25  C   UNL     1      26.175  45.153  52.427  1.00  0.00     0.029 A 
BRANCH  22  26
HETATM   26  C   UNL     1      29.231  44.743  55.371  1.00  0.00     0.180 A 
HETATM   27  N   UNL     1      30.168  43.822  55.501  1.00  0.00    -0.226 NA
HETATM   28  C   UNL     1      30.874  44.208  56.619  1.00  0.00     0.063 A 
HETATM   29  C   UNL     1      32.022  43.422  57.110  1.00  0.00     0.073 C 
HETATM   30  C   UNL     1      30.337  45.374  57.120  1.00  0.00     0.076 A 
HETATM   31  O   UNL     1      29.277  45.720  56.331  1.00  0.00    -0.294 OA
HETATM   32  C   UNL     1      30.650  46.260  58.253  1.00  0.00     0.079 C 
ENDBRANCH  22  26
ENDBRANCH   1  20
TORSDOF 6
ENDMDL
MODEL 8
REMARK VINA RESULT:      -8.4      3.735      6.016
REMARK  6 active torsions:
REMARK  status: ('A' for Active; 'I' for Inactive)
REMARK    1  A    between atoms: C_4  and  C_5 
REMARK    2  A    between atoms: C_7  and  N_8 
REMARK       I    between atoms: N_8  and  C_9 
REMARK    3  A    between atoms: C_9  and  C_10 
REMARK    4  A    between atoms: C_10  and  N_11 
REMARK    5  A    between atoms: C_10  and  C_15 
REMARK       I    between atoms: N_11  and  C_12 
REMARK       I    between atoms: C_12  and  N_13 
REMARK    6  A    between atoms: C_15  and  C_16 
ROOT
HETATM    1  N   UNL     1      28.295  42.302  51.027  1.00  0.00    -0.325 N 
HETATM    2  C   UNL     1      27.871  40.987  51.035  1.00  0.00     0.245 C 
HETATM    3  O   UNL     1      27.107  40.478  51.855  1.00  0.00    -0.271 OA
HETATM    4  H   UNL     1      28.784  42.605  50.184  1.00  0.00     0.169 HD
ENDROOT
BRANCH   2   5
HETATM    5  C   UNL     1      28.410  40.129  49.865  1.00  0.00     0.182 C 
BRANCH   5   6
HETATM    6  N   UNL     1      28.106  38.710  50.097  1.00  0.00    -0.334 N 
HETATM    7  C   UNL     1      29.063  37.752  50.201  1.00  0.00     0.292 C 
HETATM    8  N   UNL     1      28.548  36.532  50.479  1.00  0.00    -0.254 NA
HETATM    9  O   UNL     1      30.264  37.936  50.056  1.00  0.00    -0.254 OA
HETATM   10  H   UNL     1      27.668  36.302  50.039  1.00  0.00     0.128 HD
HETATM   11  H   UNL     1      29.235  35.788  50.442  1.00  0.00     0.128 HD
HETATM   12  H   UNL     1      27.230  38.502  50.552  1.00  0.00     0.164 HD
ENDBRANCH   5   6
BRANCH   5  13
HETATM   13  C   UNL     1      27.997  40.620  48.464  1.00  0.00     0.073 C 
BRANCH  13  14
HETATM   14  C   UNL     1      26.557  40.452  48.025  1.00  0.00    -0.056 A 
HETATM   15  C   UNL     1      26.099  39.414  47.203  1.00  0.00     0.007 A 
HETATM   16  C   UNL     1      24.753  39.341  46.832  1.00  0.00     0.001 A 
HETATM   17  C   UNL     1      23.844  40.290  47.289  1.00  0.00     0.000 A 
HETATM   18  C   UNL     1      24.277  41.316  48.122  1.00  0.00     0.001 A 
HETATM   19  C   UNL     1      25.621  41.394  48.488  1.00  0.00     0.007 A 
ENDBRANCH  13  14
ENDBRANCH   5  13
ENDBRANCH   2   5
BRANCH   1  20
HETATM   20  C   UNL     1      28.066  43.293  52.000  1.00  0.00     0.035 A 
HETATM   21  C   UNL     1      28.881  43.502  53.116  1.00  0.00     0.045 A 
HETATM   22  C   UNL     1      28.597  44.519  54.044  1.00  0.00     0.019 A 
HETATM   23  C   UNL     1      27.489  45.347  53.818  1.00  0.00     0.016 A 
HETATM   24  C   UNL     1      26.670  45.150  52.707  1.00  0.00     0.003 A 
HETATM   25  C   UNL     1      26.952  44.120  51.809  1.00  0.00     0.029 A 
BRANCH  22  26
HETATM   26  C   UNL     1      29.413  44.720  55.239  1.00  0.00     0.180 A 
HETATM   27  N   UNL     1      29.337  45.671  56.153  1.00  0.00    -0.226 NA
HETATM   28  C   UNL     1      30.312  45.342  57.068  1.00  0.00     0.063 A 
HETATM   29  C   UNL     1      30.555  46.175  58.262  1.00  0.00     0.073 C 
HETATM   30  C   UNL     1      30.939  44.180  56.674  1.00  0.00     0.076 A 
HETATM   31  O   UNL     1      30.375  43.778  55.497  1.00  0.00    -0.294 OA
HETATM   32  C   UNL     1      32.017  43.341  57.224  1.00  0.00     0.079 C 
ENDBRANCH  22  26
ENDBRANCH   1  20
TORSDOF 6
ENDMDL
MODEL 9
REMARK VINA RESULT:      -8.2      1.948      2.623
REMARK  6 active torsions:
REMARK  status: ('A' for Active; 'I' for Inactive)
REMARK    1  A    between atoms: C_4  and  C_5 
REMARK    2  A    between atoms: C_7  and  N_8 
REMARK       I    between atoms: N_8  and  C_9 
REMARK    3  A    between atoms: C_9  and  C_10 
REMARK    4  A    between atoms: C_10  and  N_11 
REMARK    5  A    between atoms: C_10  and  C_15 
REMARK       I    between atoms: N_11  and  C_12 
REMARK       I    between atoms: C_12  and  N_13 
REMARK    6  A    between atoms: C_15  and  C_16 
ROOT
HETATM    1  N   UNL     1      25.938  42.421  50.949  1.00  0.00    -0.325 N 
HETATM    2  C   UNL     1      25.870  42.931  49.667  1.00  0.00     0.245 C 
HETATM    3  O   UNL     1      26.819  43.082  48.897  1.00  0.00    -0.271 OA
HETATM    4  H   UNL     1      25.043  42.200  51.387  1.00  0.00     0.169 HD
ENDROOT
BRANCH   2   5
HETATM    5  C   UNL     1      24.443  43.298  49.195  1.00  0.00     0.182 C 
BRANCH   5   6
HETATM    6  N   UNL     1      23.620  42.085  49.083  1.00  0.00    -0.334 N 
HETATM    7  C   UNL     1      22.851  41.806  48.000  1.00  0.00     0.292 C 
HETATM    8  N   UNL     1      22.235  40.605  48.096  1.00  0.00    -0.254 NA
HETATM    9  O   UNL     1      22.702  42.540  47.033  1.00  0.00    -0.254 OA
HETATM   10  H   UNL     1      21.907  40.337  49.014  1.00  0.00     0.128 HD
HETATM   11  H   UNL     1      21.567  40.434  47.354  1.00  0.00     0.128 HD
HETATM   12  H   UNL     1      23.911  41.288  49.629  1.00  0.00     0.164 HD
ENDBRANCH   5   6
BRANCH   5  13
HETATM   13  C   UNL     1      23.765  44.421  50.004  1.00  0.00     0.073 C 
BRANCH  13  14
HETATM   14  C   UNL     1      24.635  45.444  50.706  1.00  0.00    -0.056 A 
HETATM   15  C   UNL     1      25.280  46.507  50.060  1.00  0.00     0.007 A 
HETATM   16  C   UNL     1      26.078  47.399  50.782  1.00  0.00     0.001 A 
HETATM   17  C   UNL     1      26.230  47.255  52.158  1.00  0.00     0.000 A 
HETATM   18  C   UNL     1      25.580  46.218  52.819  1.00  0.00     0.001 A 
HETATM   19  C   UNL     1      24.788  45.322  52.099  1.00  0.00     0.007 A 
ENDBRANCH  13  14
ENDBRANCH   5  13
ENDBRANCH   2   5
BRANCH   1  20
HETATM   20  C   UNL     1      27.088  42.096  51.694  1.00  0.00     0.035 A 
HETATM   21  C   UNL     1      27.614  42.893  52.715  1.00  0.00     0.045 A 
HETATM   22  C   UNL     1      28.763  42.500  53.424  1.00  0.00     0.019 A 
HETATM   23  C   UNL     1      29.363  41.274  53.109  1.00  0.00     0.016 A 
HETATM   24  C   UNL     1      28.847  40.470  52.094  1.00  0.00     0.003 A 
HETATM   25  C   UNL     1      27.721  40.886  51.383  1.00  0.00     0.029 A 
BRANCH  22  26
HETATM   26  C   UNL     1      29.350  43.342  54.463  1.00  0.00     0.180 A 
HETATM   27  N   UNL     1      28.981  44.542  54.876  1.00  0.00    -0.226 NA
HETATM   28  C   UNL     1      29.855  44.834  55.900  1.00  0.00     0.063 A 
HETATM   29  C   UNL     1      29.775  46.112  56.634  1.00  0.00     0.073 C 
HETATM   30  C   UNL     1      30.721  43.778  56.079  1.00  0.00     0.076 A 
HETATM   31  O   UNL     1      30.411  42.820  55.156  1.00  0.00    -0.294 OA
HETATM   32  C   UNL     1      31.835  43.491  56.998  1.00  0.00     0.079 C 
ENDBRANCH  22  26
ENDBRANCH   1  20
TORSDOF 6
ENDMDL
MODEL 10
REMARK VINA RESULT:      -8.2      5.199     11.250
REMARK  6 active torsions:
REMARK  status: ('A' for Active; 'I' for Inactive)
REMARK    1  A    between atoms: C_4  and  C_5 
REMARK    2  A    between atoms: C_7  and  N_8 
REMARK       I    between atoms: N_8  and  C_9 
REMARK    3  A    between atoms: C_9  and  C_10 
REMARK    4  A    between atoms: C_10  and  N_11 
REMARK    5  A    between atoms: C_10  and  C_15 
REMARK       I    between atoms: N_11  and  C_12 
REMARK       I    between atoms: C_12  and  N_13 
REMARK    6  A    between atoms: C_15  and  C_16 
ROOT
HETATM    1  N   UNL     1      22.656  49.304  49.035  1.00  0.00    -0.325 N 
HETATM    2  C   UNL     1      23.857  49.318  48.353  1.00  0.00     0.245 C 
HETATM    3  O   UNL     1      24.089  49.927  47.308  1.00  0.00    -0.271 OA
HETATM    4  H   UNL     1      22.681  48.897  49.970  1.00  0.00     0.169 HD
ENDROOT
BRANCH   2   5
HETATM    5  C   UNL     1      24.989  48.506  49.026  1.00  0.00     0.182 C 
BRANCH   5   6
HETATM    6  N   UNL     1      26.199  49.332  49.149  1.00  0.00    -0.334 N 
HETATM    7  C   UNL     1      27.454  48.842  48.975  1.00  0.00     0.292 C 
HETATM    8  N   UNL     1      28.404  49.802  49.073  1.00  0.00    -0.254 NA
HETATM    9  O   UNL     1      27.730  47.670  48.761  1.00  0.00    -0.254 OA
HETATM   10  H   UNL     1      28.249  50.522  49.765  1.00  0.00     0.128 HD
HETATM   11  H   UNL     1      29.348  49.435  49.065  1.00  0.00     0.128 HD
HETATM   12  H   UNL     1      26.092  50.322  48.988  1.00  0.00     0.164 HD
ENDBRANCH   5   6
BRANCH   5  13
HETATM   13  C   UNL     1      24.589  47.812  50.343  1.00  0.00     0.073 C 
BRANCH  13  14
HETATM   14  C   UNL     1      24.531  46.299  50.384  1.00  0.00    -0.056 A 
HETATM   15  C   UNL     1      24.160  45.495  49.298  1.00  0.00     0.007 A 
HETATM   16  C   UNL     1      24.118  44.103  49.425  1.00  0.00     0.001 A 
HETATM   17  C   UNL     1      24.462  43.494  50.628  1.00  0.00     0.000 A 
HETATM   18  C   UNL     1      24.853  44.276  51.710  1.00  0.00     0.001 A 
HETATM   19  C   UNL     1      24.889  45.665  51.587  1.00  0.00     0.007 A 
ENDBRANCH  13  14
ENDBRANCH   5  13
ENDBRANCH   2   5
BRANCH   1  20
HETATM   20  C   UNL     1      21.423  49.854  48.633  1.00  0.00     0.035 A 
HETATM   21  C   UNL     1      20.398  49.122  48.025  1.00  0.00     0.045 A 
HETATM   22  C   UNL     1      19.188  49.735  47.658  1.00  0.00     0.019 A 
HETATM   23  C   UNL     1      19.010  51.097  47.936  1.00  0.00     0.016 A 
HETATM   24  C   UNL     1      20.024  51.836  48.542  1.00  0.00     0.003 A 
HETATM   25  C   UNL     1      21.229  51.218  48.878  1.00  0.00     0.029 A 
BRANCH  22  26
HETATM   26  C   UNL     1      18.125  48.994  46.983  1.00  0.00     0.180 A 
HETATM   27  N   UNL     1      18.206  47.903  46.242  1.00  0.00    -0.226 NA
HETATM   28  C   UNL     1      16.901  47.622  45.905  1.00  0.00     0.063 A 
HETATM   29  C   UNL     1      16.560  46.459  45.063  1.00  0.00     0.073 C 
HETATM   30  C   UNL     1      16.067  48.559  46.476  1.00  0.00     0.076 A 
HETATM   31  O   UNL     1      16.844  49.448  47.162  1.00  0.00    -0.294 OA
HETATM   32  C   UNL     1      14.612  48.782  46.497  1.00  0.00     0.079 C 
ENDBRANCH  22  26
ENDBRANCH   1  20
TORSDOF 6
ENDMDL
