MODEL 1
REMARK VINA RESULT:      -9.2      0.000      0.000
REMARK  3 active torsions:
REMARK  status: ('A' for Active; 'I' for Inactive)
REMARK    1  A    between atoms: C_5  and  N_6 
REMARK       I    between atoms: N_6  and  C_7 
REMARK    2  A    between atoms: C_7  and  C_8 
REMARK    3  A    between atoms: C_8  and  N_9 
ROOT
HETATM    1  N   UNL     1      24.966  46.089  51.017  1.00  0.00    -0.367 N 
HETATM    2  C   UNL     1      24.383  46.867  50.124  1.00  0.00     0.108 C 
HETATM    3  C   UNL     1      25.145  47.977  49.497  1.00  0.00     0.014 A 
HETATM    4  C   UNL     1      24.436  49.001  48.834  1.00  0.00    -0.042 A 
HETATM    5  C   UNL     1      25.115  50.074  48.242  1.00  0.00     0.008 A 
HETATM    6  C   UNL     1      26.504  50.120  48.272  1.00  0.00     0.001 A 
HETATM    7  C   UNL     1      27.221  49.103  48.895  1.00  0.00     0.001 A 
HETATM    8  C   UNL     1      26.548  48.038  49.502  1.00  0.00     0.016 A 
HETATM    9  C   UNL     1      22.930  48.946  48.803  1.00  0.00     0.069 C 
HETATM   10  C   UNL     1      22.419  47.494  48.744  1.00  0.00     0.028 C 
HETATM   11  C   UNL     1      20.924  47.458  49.083  1.00  0.00     0.038 C 
HETATM   12  C   UNL     1      22.652  46.843  47.376  1.00  0.00     0.038 C 
HETATM   13  N   UNL     1      23.121  46.666  49.762  1.00  0.00    -0.367 N 
HETATM   14  H   UNL     1      22.599  45.925  50.202  1.00  0.00     0.162 HD
HETATM   15  H   UNL     1      25.902  46.333  51.343  1.00  0.00     0.161 HD
ENDROOT
BRANCH   1  16
HETATM   16  C   UNL     1      24.416  44.876  51.642  1.00  0.00     0.224 C 
BRANCH  16  17
HETATM   17  C   UNL     1      25.320  44.525  52.821  1.00  0.00     0.239 C 
HETATM   18  N   UNL     1      26.664  44.704  52.558  1.00  0.00    -0.326 N 
HETATM   19  H   UNL     1      26.933  45.185  51.708  1.00  0.00     0.169 HD
HETATM   20  O   UNL     1      24.805  44.156  53.876  1.00  0.00    -0.271 OA
BRANCH  18  21
HETATM   21  C   UNL     1      27.748  44.359  53.394  1.00  0.00     0.034 A 
HETATM   22  C   UNL     1      28.540  43.225  53.219  1.00  0.00     0.030 A 
HETATM   23  C   UNL     1      29.625  42.982  54.070  1.00  0.00     0.009 A 
HETATM   24  C   UNL     1      29.930  43.865  55.110  1.00  0.00    -0.062 A 
HETATM   25  C   UNL     1      31.093  43.618  56.025  1.00  0.00     0.048 C 
HETATM   26  C   UNL     1      29.129  44.996  55.292  1.00  0.00     0.009 A 
HETATM   27  C   UNL     1      28.053  45.244  54.437  1.00  0.00     0.030 A 
ENDBRANCH  18  21
ENDBRANCH  16  17
ENDBRANCH   1  16
TORSDOF 3
ENDMDL
MODEL 2
REMARK VINA RESULT:      -9.2      1.625      7.683
REMARK  3 active torsions:
REMARK  status: ('A' for Active; 'I' for Inactive)
REMARK    1  A    between atoms: C_5  and  N_6 
REMARK       I    between atoms: N_6  and  C_7 
REMARK    2  A    between atoms: C_7  and  C_8 
REMARK    3  A    between atoms: C_8  and  N_9 
ROOT
HETATM    1  N   UNL     1      26.587  43.930  53.777  1.00  0.00    -0.367 N 
HETATM    2  C   UNL     1      27.286  44.820  54.457  1.00  0.00     0.108 C 
HETATM    3  C   UNL     1      28.639  44.474  54.962  1.00  0.00     0.014 A 
HETATM    4  C   UNL     1      29.217  45.276  55.968  1.00  0.00    -0.042 A 
HETATM    5  C   UNL     1      30.485  44.977  56.482  1.00  0.00     0.008 A 
HETATM    6  C   UNL     1      31.204  43.900  55.976  1.00  0.00     0.001 A 
HETATM    7  C   UNL     1      30.662  43.116  54.962  1.00  0.00     0.001 A 
HETATM    8  C   UNL     1      29.390  43.400  54.456  1.00  0.00     0.016 A 
HETATM    9  C   UNL     1      28.434  46.443  56.513  1.00  0.00     0.069 C 
HETATM   10  C   UNL     1      27.553  47.089  55.426  1.00  0.00     0.028 C 
HETATM   11  C   UNL     1      26.515  48.009  56.081  1.00  0.00     0.038 C 
HETATM   12  C   UNL     1      28.369  47.882  54.400  1.00  0.00     0.038 C 
HETATM   13  N   UNL     1      26.803  46.035  54.689  1.00  0.00    -0.367 N 
HETATM   14  H   UNL     1      25.876  46.263  54.363  1.00  0.00     0.162 HD
HETATM   15  H   UNL     1      26.947  42.976  53.705  1.00  0.00     0.161 HD
ENDROOT
BRANCH   1  16
HETATM   16  C   UNL     1      25.299  44.132  53.098  1.00  0.00     0.224 C 
BRANCH  16  17
HETATM   17  C   UNL     1      25.583  44.895  51.806  1.00  0.00     0.239 C 
HETATM   18  N   UNL     1      25.261  46.237  51.877  1.00  0.00    -0.326 N 
HETATM   19  H   UNL     1      25.029  46.634  52.780  1.00  0.00     0.169 HD
HETATM   20  O   UNL     1      26.080  44.292  50.856  1.00  0.00    -0.271 OA
BRANCH  18  21
HETATM   21  C   UNL     1      25.296  47.176  50.823  1.00  0.00     0.034 A 
HETATM   22  C   UNL     1      24.169  47.608  50.126  1.00  0.00     0.030 A 
HETATM   23  C   UNL     1      24.287  48.578  49.123  1.00  0.00     0.009 A 
HETATM   24  C   UNL     1      25.533  49.125  48.800  1.00  0.00    -0.062 A 
HETATM   25  C   UNL     1      25.671  50.169  47.732  1.00  0.00     0.048 C 
HETATM   26  C   UNL     1      26.663  48.683  49.493  1.00  0.00     0.009 A 
HETATM   27  C   UNL     1      26.544  47.724  50.501  1.00  0.00     0.030 A 
ENDBRANCH  18  21
ENDBRANCH  16  17
ENDBRANCH   1  16
TORSDOF 3
ENDMDL
MODEL 3
REMARK VINA RESULT:      -9.1      1.516      8.379
REMARK  3 active torsions:
REMARK  status: ('A' for Active; 'I' for Inactive)
REMARK    1  A    between atoms: C_5  and  N_6 
REMARK       I    between atoms: N_6  and  C_7 
REMARK    2  A    between atoms: C_7  and  C_8 
REMARK    3  A    between atoms: C_8  and  N_9 
ROOT
HETATM    1  N   UNL     1      26.936  44.999  52.772  1.00  0.00    -0.367 N 
HETATM    2  C   UNL     1      27.790  44.048  53.099  1.00  0.00     0.108 C 
HETATM    3  C   UNL     1      28.785  44.282  54.178  1.00  0.00     0.014 A 
HETATM    4  C   UNL     1      29.899  43.423  54.274  1.00  0.00    -0.042 A 
HETATM    5  C   UNL     1      30.868  43.617  55.268  1.00  0.00     0.008 A 
HETATM    6  C   UNL     1      30.719  44.643  56.195  1.00  0.00     0.001 A 
HETATM    7  C   UNL     1      29.609  45.481  56.133  1.00  0.00     0.001 A 
HETATM    8  C   UNL     1      28.648  45.302  55.133  1.00  0.00     0.016 A 
HETATM    9  C   UNL     1      30.057  42.312  53.269  1.00  0.00     0.069 C 
HETATM   10  C   UNL     1      28.691  41.752  52.827  1.00  0.00     0.028 C 
HETATM   11  C   UNL     1      28.864  40.905  51.560  1.00  0.00     0.038 C 
HETATM   12  C   UNL     1      28.018  40.913  53.919  1.00  0.00     0.038 C 
HETATM   13  N   UNL     1      27.770  42.870  52.486  1.00  0.00    -0.367 N 
HETATM   14  H   UNL     1      27.109  42.719  51.740  1.00  0.00     0.162 HD
HETATM   15  H   UNL     1      27.045  45.923  53.194  1.00  0.00     0.161 HD
ENDROOT
BRANCH   1  16
HETATM   16  C   UNL     1      25.811  44.906  51.830  1.00  0.00     0.224 C 
BRANCH  16  17
HETATM   17  C   UNL     1      25.333  46.329  51.552  1.00  0.00     0.239 C 
HETATM   18  N   UNL     1      24.902  46.522  50.253  1.00  0.00    -0.326 N 
HETATM   19  H   UNL     1      24.783  45.713  49.656  1.00  0.00     0.169 HD
HETATM   20  O   UNL     1      25.339  47.149  52.469  1.00  0.00    -0.271 OA
BRANCH  18  21
HETATM   21  C   UNL     1      24.515  47.742  49.658  1.00  0.00     0.034 A 
HETATM   22  C   UNL     1      25.412  48.712  49.212  1.00  0.00     0.030 A 
HETATM   23  C   UNL     1      24.942  49.877  48.591  1.00  0.00     0.009 A 
HETATM   24  C   UNL     1      23.572  50.089  48.413  1.00  0.00    -0.062 A 
HETATM   25  C   UNL     1      23.058  51.330  47.744  1.00  0.00     0.048 C 
HETATM   26  C   UNL     1      22.674  49.121  48.870  1.00  0.00     0.009 A 
HETATM   27  C   UNL     1      23.142  47.955  49.479  1.00  0.00     0.030 A 
ENDBRANCH  18  21
ENDBRANCH  16  17
ENDBRANCH   1  16
TORSDOF 3
ENDMDL
MODEL 4
REMARK VINA RESULT:      -9.0      3.092      8.605
REMARK  3 active torsions:
REMARK  status: ('A' for Active; 'I' for Inactive)
REMARK    1  A    between atoms: C_5  and  N_6 
REMARK       I    between atoms: N_6  and  C_7 
REMARK    2  A    between atoms: C_7  and  C_8 
REMARK    3  A    between atoms: C_8  and  N_9 
ROOT
HETATM    1  N   UNL     1      24.619  47.342  50.502  1.00  0.00    -0.367 N 
HETATM    2  C   UNL     1      25.219  46.240  50.912  1.00  0.00     0.108 C 
HETATM    3  C   UNL     1      25.915  46.218  52.224  1.00  0.00     0.014 A 
HETATM    4  C   UNL     1      26.836  45.184  52.489  1.00  0.00    -0.042 A 
HETATM    5  C   UNL     1      27.525  45.133  53.708  1.00  0.00     0.008 A 
HETATM    6  C   UNL     1      27.277  46.090  54.687  1.00  0.00     0.001 A 
HETATM    7  C   UNL     1      26.349  47.100  54.454  1.00  0.00     0.001 A 
HETATM    8  C   UNL     1      25.671  47.165  53.233  1.00  0.00     0.016 A 
HETATM    9  C   UNL     1      27.100  44.149  51.426  1.00  0.00     0.069 C 
HETATM   10  C   UNL     1      25.837  43.858  50.594  1.00  0.00     0.028 C 
HETATM   11  C   UNL     1      26.221  43.102  49.316  1.00  0.00     0.038 C 
HETATM   12  C   UNL     1      24.790  43.053  51.374  1.00  0.00     0.038 C 
HETATM   13  N   UNL     1      25.201  45.137  50.174  1.00  0.00    -0.367 N 
HETATM   14  H   UNL     1      24.745  45.158  49.275  1.00  0.00     0.162 HD
HETATM   15  H   UNL     1      24.739  48.198  51.048  1.00  0.00     0.161 HD
ENDROOT
BRANCH   1  16
HETATM   16  C   UNL     1      23.782  47.513  49.305  1.00  0.00     0.224 C 
BRANCH  16  17
HETATM   17  C   UNL     1      23.044  48.841  49.454  1.00  0.00     0.239 C 
HETATM   18  N   UNL     1      21.668  48.714  49.415  1.00  0.00    -0.326 N 
HETATM   19  H   UNL     1      21.265  47.786  49.454  1.00  0.00     0.169 HD
HETATM   20  O   UNL     1      23.697  49.870  49.620  1.00  0.00    -0.271 OA
BRANCH  18  21
HETATM   21  C   UNL     1      20.717  49.758  49.407  1.00  0.00     0.034 A 
HETATM   22  C   UNL     1      20.839  50.919  48.646  1.00  0.00     0.030 A 
HETATM   23  C   UNL     1      19.826  51.886  48.663  1.00  0.00     0.009 A 
HETATM   24  C   UNL     1      18.681  51.707  49.446  1.00  0.00    -0.062 A 
HETATM   25  C   UNL     1      17.587  52.733  49.469  1.00  0.00     0.048 C 
HETATM   26  C   UNL     1      18.566  50.548  50.218  1.00  0.00     0.009 A 
HETATM   27  C   UNL     1      19.571  49.579  50.192  1.00  0.00     0.030 A 
ENDBRANCH  18  21
ENDBRANCH  16  17
ENDBRANCH   1  16
TORSDOF 3
ENDMDL
MODEL 5
REMARK VINA RESULT:      -9.0      0.845      1.480
REMARK  3 active torsions:
REMARK  status: ('A' for Active; 'I' for Inactive)
REMARK    1  A    between atoms: C_5  and  N_6 
REMARK       I    between atoms: N_6  and  C_7 
REMARK    2  A    between atoms: C_7  and  C_8 
REMARK    3  A    between atoms: C_8  and  N_9 
ROOT
HETATM    1  N   UNL     1      24.735  45.605  50.716  1.00  0.00    -0.367 N 
HETATM    2  C   UNL     1      23.915  46.155  49.839  1.00  0.00     0.108 C 
HETATM    3  C   UNL     1      24.205  47.508  49.299  1.00  0.00     0.014 A 
HETATM    4  C   UNL     1      23.170  48.221  48.660  1.00  0.00    -0.042 A 
HETATM    5  C   UNL     1      23.396  49.506  48.149  1.00  0.00     0.008 A 
HETATM    6  C   UNL     1      24.661  50.077  48.237  1.00  0.00     0.001 A 
HETATM    7  C   UNL     1      25.701  49.374  48.838  1.00  0.00     0.001 A 
HETATM    8  C   UNL     1      25.477  48.099  49.364  1.00  0.00     0.016 A 
HETATM    9  C   UNL     1      21.801  47.598  48.565  1.00  0.00     0.069 C 
HETATM   10  C   UNL     1      21.886  46.067  48.413  1.00  0.00     0.028 C 
HETATM   11  C   UNL     1      20.513  45.442  48.691  1.00  0.00     0.038 C 
HETATM   12  C   UNL     1      22.376  45.639  47.026  1.00  0.00     0.038 C 
HETATM   13  N   UNL     1      22.834  45.510  49.418  1.00  0.00    -0.367 N 
HETATM   14  H   UNL     1      22.627  44.600  49.799  1.00  0.00     0.162 HD
HETATM   15  H   UNL     1      25.500  46.168  51.091  1.00  0.00     0.161 HD
ENDROOT
BRANCH   1  16
HETATM   16  C   UNL     1      24.681  44.239  51.258  1.00  0.00     0.224 C 
BRANCH  16  17
HETATM   17  C   UNL     1      25.520  44.223  52.533  1.00  0.00     0.239 C 
HETATM   18  N   UNL     1      26.880  44.300  52.299  1.00  0.00    -0.326 N 
HETATM   19  H   UNL     1      27.200  44.516  51.362  1.00  0.00     0.169 HD
HETATM   20  O   UNL     1      24.948  44.177  53.621  1.00  0.00    -0.271 OA
BRANCH  18  21
HETATM   21  C   UNL     1      27.915  44.191  53.253  1.00  0.00     0.034 A 
HETATM   22  C   UNL     1      28.093  45.076  54.315  1.00  0.00     0.030 A 
HETATM   23  C   UNL     1      29.121  44.868  55.244  1.00  0.00     0.009 A 
HETATM   24  C   UNL     1      29.987  43.777  55.119  1.00  0.00    -0.062 A 
HETATM   25  C   UNL     1      31.088  43.541  56.110  1.00  0.00     0.048 C 
HETATM   26  C   UNL     1      29.813  42.897  54.047  1.00  0.00     0.009 A 
HETATM   27  C   UNL     1      28.782  43.098  53.127  1.00  0.00     0.030 A 
ENDBRANCH  18  21
ENDBRANCH  16  17
ENDBRANCH   1  16
TORSDOF 3
ENDMDL
MODEL 6
REMARK VINA RESULT:      -8.6      4.677      7.563
REMARK  3 active torsions:
REMARK  status: ('A' for Active; 'I' for Inactive)
REMARK    1  A    between atoms: C_5  and  N_6 
REMARK       I    between atoms: N_6  and  C_7 
REMARK    2  A    between atoms: C_7  and  C_8 
REMARK    3  A    between atoms: C_8  and  N_9 
ROOT
HETATM    1  N   UNL     1      27.198  43.829  53.590  1.00  0.00    -0.367 N 
HETATM    2  C   UNL     1      27.718  44.760  54.368  1.00  0.00     0.108 C 
HETATM    3  C   UNL     1      28.969  44.485  55.121  1.00  0.00     0.014 A 
HETATM    4  C   UNL     1      29.313  45.326  56.199  1.00  0.00    -0.042 A 
HETATM    5  C   UNL     1      30.476  45.094  56.945  1.00  0.00     0.008 A 
HETATM    6  C   UNL     1      31.325  44.047  56.602  1.00  0.00     0.001 A 
HETATM    7  C   UNL     1      31.016  43.225  55.522  1.00  0.00     0.001 A 
HETATM    8  C   UNL     1      29.848  43.442  54.785  1.00  0.00     0.016 A 
HETATM    9  C   UNL     1      28.392  46.461  56.566  1.00  0.00     0.069 C 
HETATM   10  C   UNL     1      27.699  47.050  55.323  1.00  0.00     0.028 C 
HETATM   11  C   UNL     1      26.517  47.927  55.755  1.00  0.00     0.038 C 
HETATM   12  C   UNL     1      28.655  47.869  54.448  1.00  0.00     0.038 C 
HETATM   13  N   UNL     1      27.146  45.953  54.481  1.00  0.00    -0.367 N 
HETATM   14  H   UNL     1      26.287  46.132  53.986  1.00  0.00     0.162 HD
HETATM   15  H   UNL     1      27.608  42.893  53.605  1.00  0.00     0.161 HD
ENDROOT
BRANCH   1  16
HETATM   16  C   UNL     1      26.050  43.961  52.680  1.00  0.00     0.224 C 
BRANCH  16  17
HETATM   17  C   UNL     1      26.341  43.097  51.455  1.00  0.00     0.239 C 
HETATM   18  N   UNL     1      26.578  41.770  51.761  1.00  0.00    -0.326 N 
HETATM   19  H   UNL     1      26.391  41.448  52.702  1.00  0.00     0.169 HD
HETATM   20  O   UNL     1      26.313  43.617  50.341  1.00  0.00    -0.271 OA
BRANCH  18  21
HETATM   21  C   UNL     1      26.988  40.753  50.871  1.00  0.00     0.034 A 
HETATM   22  C   UNL     1      26.147  40.147  49.939  1.00  0.00     0.030 A 
HETATM   23  C   UNL     1      26.648  39.175  49.063  1.00  0.00     0.009 A 
HETATM   24  C   UNL     1      27.992  38.793  49.111  1.00  0.00    -0.062 A 
HETATM   25  C   UNL     1      28.541  37.758  48.174  1.00  0.00     0.048 C 
HETATM   26  C   UNL     1      28.831  39.395  50.053  1.00  0.00     0.009 A 
HETATM   27  C   UNL     1      28.335  40.371  50.920  1.00  0.00     0.030 A 
ENDBRANCH  18  21
ENDBRANCH  16  17
ENDBRANCH   1  16
TORSDOF 3
ENDMDL
MODEL 7
REMARK VINA RESULT:      -8.4      4.919      6.662
REMARK  3 active torsions:
REMARK  status: ('A' for Active; 'I' for Inactive)
REMARK    1  A    between atoms: C_5  and  N_6 
REMARK       I    between atoms: N_6  and  C_7 
REMARK    2  A    between atoms: C_7  and  C_8 
REMARK    3  A    between atoms: C_8  and  N_9 
ROOT
HETATM    1  N   UNL     1      27.215  41.234  51.828  1.00  0.00    -0.367 N 
HETATM    2  C   UNL     1      27.013  40.838  50.585  1.00  0.00     0.108 C 
HETATM    3  C   UNL     1      25.741  41.174  49.896  1.00  0.00     0.014 A 
HETATM    4  C   UNL     1      25.387  40.461  48.732  1.00  0.00    -0.042 A 
HETATM    5  C   UNL     1      24.190  40.737  48.059  1.00  0.00     0.008 A 
HETATM    6  C   UNL     1      23.352  41.748  48.517  1.00  0.00     0.001 A 
HETATM    7  C   UNL     1      23.700  42.483  49.647  1.00  0.00     0.001 A 
HETATM    8  C   UNL     1      24.886  42.200  50.331  1.00  0.00     0.016 A 
HETATM    9  C   UNL     1      26.299  39.366  48.239  1.00  0.00     0.069 C 
HETATM   10  C   UNL     1      27.778  39.694  48.520  1.00  0.00     0.028 C 
HETATM   11  C   UNL     1      28.629  38.429  48.352  1.00  0.00     0.038 C 
HETATM   12  C   UNL     1      28.319  40.803  47.611  1.00  0.00     0.038 C 
HETATM   13  N   UNL     1      27.938  40.147  49.929  1.00  0.00    -0.367 N 
HETATM   14  H   UNL     1      28.793  39.901  50.403  1.00  0.00     0.162 HD
HETATM   15  H   UNL     1      26.445  41.675  52.333  1.00  0.00     0.161 HD
ENDROOT
BRANCH   1  16
HETATM   16  C   UNL     1      28.449  41.106  52.618  1.00  0.00     0.224 C 
BRANCH  16  17
HETATM   17  C   UNL     1      28.385  42.151  53.730  1.00  0.00     0.239 C 
HETATM   18  N   UNL     1      29.608  42.732  54.010  1.00  0.00    -0.326 N 
HETATM   19  H   UNL     1      30.384  42.556  53.383  1.00  0.00     0.169 HD
HETATM   20  O   UNL     1      27.298  42.407  54.245  1.00  0.00    -0.271 OA
BRANCH  18  21
HETATM   21  C   UNL     1      29.900  43.638  55.053  1.00  0.00     0.034 A 
HETATM   22  C   UNL     1      29.276  44.875  55.209  1.00  0.00     0.030 A 
HETATM   23  C   UNL     1      29.595  45.694  56.300  1.00  0.00     0.009 A 
HETATM   24  C   UNL     1      30.544  45.291  57.244  1.00  0.00    -0.062 A 
HETATM   25  C   UNL     1      30.890  46.157  58.419  1.00  0.00     0.048 C 
HETATM   26  C   UNL     1      31.176  44.055  57.079  1.00  0.00     0.009 A 
HETATM   27  C   UNL     1      30.851  43.233  55.998  1.00  0.00     0.030 A 
ENDBRANCH  18  21
ENDBRANCH  16  17
ENDBRANCH   1  16
TORSDOF 3
ENDMDL
MODEL 8
REMARK VINA RESULT:      -8.3      1.897      3.062
REMARK  3 active torsions:
REMARK  status: ('A' for Active; 'I' for Inactive)
REMARK    1  A    between atoms: C_5  and  N_6 
REMARK       I    between atoms: N_6  and  C_7 
REMARK    2  A    between atoms: C_7  and  C_8 
REMARK    3  A    between atoms: C_8  and  N_9 
ROOT
HETATM    1  N   UNL     1      27.001  44.359  51.208  1.00  0.00    -0.367 N 
HETATM    2  C   UNL     1      25.894  44.587  50.527  1.00  0.00     0.108 C 
HETATM    3  C   UNL     1      25.567  45.966  50.081  1.00  0.00     0.014 A 
HETATM    4  C   UNL     1      24.246  46.258  49.682  1.00  0.00    -0.042 A 
HETATM    5  C   UNL     1      23.892  47.549  49.269  1.00  0.00     0.008 A 
HETATM    6  C   UNL     1      24.855  48.550  49.213  1.00  0.00     0.001 A 
HETATM    7  C   UNL     1      26.170  48.272  49.574  1.00  0.00     0.001 A 
HETATM    8  C   UNL     1      26.525  46.990  50.004  1.00  0.00     0.016 A 
HETATM    9  C   UNL     1      23.205  45.169  49.743  1.00  0.00     0.069 C 
HETATM   10  C   UNL     1      23.814  43.788  49.433  1.00  0.00     0.028 C 
HETATM   11  C   UNL     1      22.838  42.685  49.859  1.00  0.00     0.038 C 
HETATM   12  C   UNL     1      24.167  43.619  47.951  1.00  0.00     0.038 C 
HETATM   13  N   UNL     1      25.064  43.597  50.219  1.00  0.00    -0.367 N 
HETATM   14  H   UNL     1      25.276  42.665  50.538  1.00  0.00     0.162 HD
HETATM   15  H   UNL     1      27.562  45.156  51.512  1.00  0.00     0.161 HD
ENDROOT
BRANCH   1  16
HETATM   16  C   UNL     1      27.547  43.056  51.617  1.00  0.00     0.224 C 
BRANCH  16  17
HETATM   17  C   UNL     1      27.898  43.158  53.099  1.00  0.00     0.239 C 
HETATM   18  N   UNL     1      28.836  44.134  53.378  1.00  0.00    -0.326 N 
HETATM   19  H   UNL     1      29.087  44.789  52.647  1.00  0.00     0.169 HD
HETATM   20  O   UNL     1      27.325  42.419  53.898  1.00  0.00    -0.271 OA
BRANCH  18  21
HETATM   21  C   UNL     1      29.449  44.394  54.623  1.00  0.00     0.034 A 
HETATM   22  C   UNL     1      29.094  45.448  55.463  1.00  0.00     0.030 A 
HETATM   23  C   UNL     1      29.725  45.606  56.703  1.00  0.00     0.009 A 
HETATM   24  C   UNL     1      30.722  44.718  57.117  1.00  0.00    -0.062 A 
HETATM   25  C   UNL     1      31.401  44.875  58.445  1.00  0.00     0.048 C 
HETATM   26  C   UNL     1      31.085  43.668  56.268  1.00  0.00     0.009 A 
HETATM   27  C   UNL     1      30.449  43.503  55.036  1.00  0.00     0.030 A 
ENDBRANCH  18  21
ENDBRANCH  16  17
ENDBRANCH   1  16
TORSDOF 3
ENDMDL
MODEL 9
REMARK VINA RESULT:      -8.1      4.636      7.760
REMARK  3 active torsions:
REMARK  status: ('A' for Active; 'I' for Inactive)
REMARK    1  A    between atoms: C_5  and  N_6 
REMARK       I    between atoms: N_6  and  C_7 
REMARK    2  A    between atoms: C_7  and  C_8 
REMARK    3  A    between atoms: C_8  and  N_9 
ROOT
HETATM    1  N   UNL     1      19.314  48.304  49.073  1.00  0.00    -0.367 N 
HETATM    2  C   UNL     1      18.294  48.877  48.462  1.00  0.00     0.108 C 
HETATM    3  C   UNL     1      17.839  50.226  48.884  1.00  0.00     0.014 A 
HETATM    4  C   UNL     1      16.560  50.669  48.488  1.00  0.00    -0.042 A 
HETATM    5  C   UNL     1      16.086  51.929  48.876  1.00  0.00     0.008 A 
HETATM    6  C   UNL     1      16.894  52.774  49.630  1.00  0.00     0.001 A 
HETATM    7  C   UNL     1      18.170  52.365  50.005  1.00  0.00     0.001 A 
HETATM    8  C   UNL     1      18.642  51.102  49.634  1.00  0.00     0.016 A 
HETATM    9  C   UNL     1      15.689  49.751  47.669  1.00  0.00     0.069 C 
HETATM   10  C   UNL     1      16.528  48.875  46.719  1.00  0.00     0.028 C 
HETATM   11  C   UNL     1      15.670  47.721  46.186  1.00  0.00     0.038 C 
HETATM   12  C   UNL     1      17.109  49.669  45.543  1.00  0.00     0.038 C 
HETATM   13  N   UNL     1      17.668  48.270  47.461  1.00  0.00    -0.367 N 
HETATM   14  H   UNL     1      17.963  47.345  47.188  1.00  0.00     0.162 HD
HETATM   15  H   UNL     1      19.706  48.755  49.901  1.00  0.00     0.161 HD
ENDROOT
BRANCH   1  16
HETATM   16  C   UNL     1      19.978  47.042  48.713  1.00  0.00     0.224 C 
BRANCH  16  17
HETATM   17  C   UNL     1      21.385  47.391  48.232  1.00  0.00     0.239 C 
HETATM   18  N   UNL     1      22.253  47.716  49.257  1.00  0.00    -0.326 N 
HETATM   19  H   UNL     1      21.960  47.550  50.213  1.00  0.00     0.169 HD
HETATM   20  O   UNL     1      21.635  47.329  47.029  1.00  0.00    -0.271 OA
BRANCH  18  21
HETATM   21  C   UNL     1      23.575  48.194  49.132  1.00  0.00     0.034 A 
HETATM   22  C   UNL     1      23.926  49.346  48.431  1.00  0.00     0.030 A 
HETATM   23  C   UNL     1      25.259  49.774  48.396  1.00  0.00     0.009 A 
HETATM   24  C   UNL     1      26.259  49.052  49.054  1.00  0.00    -0.062 A 
HETATM   25  C   UNL     1      27.690  49.503  49.028  1.00  0.00     0.048 C 
HETATM   26  C   UNL     1      25.908  47.891  49.748  1.00  0.00     0.009 A 
HETATM   27  C   UNL     1      24.577  47.470  49.793  1.00  0.00     0.030 A 
ENDBRANCH  18  21
ENDBRANCH  16  17
ENDBRANCH   1  16
TORSDOF 3
ENDMDL
MODEL 10
REMARK VINA RESULT:      -8.1      5.608      7.736
REMARK  3 active torsions:
REMARK  status: ('A' for Active; 'I' for Inactive)
REMARK    1  A    between atoms: C_5  and  N_6 
REMARK       I    between atoms: N_6  and  C_7 
REMARK    2  A    between atoms: C_7  and  C_8 
REMARK    3  A    between atoms: C_8  and  N_9 
ROOT
HETATM    1  N   UNL     1      26.335  40.943  49.294  1.00  0.00    -0.367 N 
HETATM    2  C   UNL     1      27.001  39.885  48.871  1.00  0.00     0.108 C 
HETATM    3  C   UNL     1      27.471  39.817  47.464  1.00  0.00     0.014 A 
HETATM    4  C   UNL     1      27.853  38.568  46.932  1.00  0.00    -0.042 A 
HETATM    5  C   UNL     1      28.289  38.457  45.606  1.00  0.00     0.008 A 
HETATM    6  C   UNL     1      28.383  39.592  44.807  1.00  0.00     0.001 A 
HETATM    7  C   UNL     1      28.039  40.837  45.325  1.00  0.00     0.001 A 
HETATM    8  C   UNL     1      27.588  40.951  46.643  1.00  0.00     0.016 A 
HETATM    9  C   UNL     1      27.751  37.341  47.801  1.00  0.00     0.069 C 
HETATM   10  C   UNL     1      28.041  37.669  49.279  1.00  0.00     0.028 C 
HETATM   11  C   UNL     1      27.574  36.510  50.168  1.00  0.00     0.038 C 
HETATM   12  C   UNL     1      29.525  37.952  49.539  1.00  0.00     0.038 C 
HETATM   13  N   UNL     1      27.273  38.876  49.691  1.00  0.00    -0.367 N 
HETATM   14  H   UNL     1      26.936  38.913  50.640  1.00  0.00     0.162 HD
HETATM   15  H   UNL     1      26.058  41.652  48.613  1.00  0.00     0.161 HD
ENDROOT
BRANCH   1  16
HETATM   16  C   UNL     1      25.906  41.240  50.669  1.00  0.00     0.224 C 
BRANCH  16  17
HETATM   17  C   UNL     1      26.942  42.186  51.272  1.00  0.00     0.239 C 
HETATM   18  N   UNL     1      27.234  41.912  52.595  1.00  0.00    -0.326 N 
HETATM   19  H   UNL     1      26.885  41.051  53.001  1.00  0.00     0.169 HD
HETATM   20  O   UNL     1      27.437  43.058  50.560  1.00  0.00    -0.271 OA
BRANCH  18  21
HETATM   21  C   UNL     1      28.054  42.669  53.460  1.00  0.00     0.034 A 
HETATM   22  C   UNL     1      29.382  42.358  53.747  1.00  0.00     0.030 A 
HETATM   23  C   UNL     1      30.138  43.190  54.582  1.00  0.00     0.009 A 
HETATM   24  C   UNL     1      29.576  44.339  55.145  1.00  0.00    -0.062 A 
HETATM   25  C   UNL     1      30.377  45.241  56.037  1.00  0.00     0.048 C 
HETATM   26  C   UNL     1      28.241  44.644  54.865  1.00  0.00     0.009 A 
HETATM   27  C   UNL     1      27.489  43.820  54.024  1.00  0.00     0.030 A 
ENDBRANCH  18  21
ENDBRANCH  16  17
ENDBRANCH   1  16
TORSDOF 3
ENDMDL
