MODEL 1
REMARK VINA RESULT:      -8.9      0.000      0.000
REMARK  7 active torsions:
REMARK  status: ('A' for Active; 'I' for Inactive)
REMARK    1  A    between atoms: O_2  and  C_3 
REMARK    2  A    between atoms: C_5  and  C_6 
REMARK    3  A    between atoms: C_6  and  C_7 
REMARK       I    between atoms: C_7  and  N_8 
REMARK    4  A    between atoms: N_8  and  C_9 
REMARK    5  A    between atoms: C_9  and  C_10 
REMARK    6  A    between atoms: C_13  and  N_14 
REMARK       I    between atoms: N_14  and  C_15 
REMARK    7  A    between atoms: C_15  and  C_16 
ROOT
HETATM    1  C   UNL     1      26.167  43.873  51.015  1.00  0.00    -0.040 A 
HETATM    2  C   UNL     1      26.000  44.943  51.901  1.00  0.00     0.011 A 
HETATM    3  C   UNL     1      25.231  46.057  51.541  1.00  0.00     0.030 A 
HETATM    4  C   UNL     1      24.610  46.114  50.293  1.00  0.00     0.035 A 
HETATM    5  C   UNL     1      24.790  45.054  49.399  1.00  0.00     0.030 A 
HETATM    6  C   UNL     1      25.561  43.943  49.755  1.00  0.00     0.011 A 
ENDROOT
BRANCH   1   7
HETATM    7  C   UNL     1      26.935  42.644  51.423  1.00  0.00     0.161 C 
BRANCH   7   8
HETATM    8  N   UNL     1      28.176  43.018  52.061  1.00  0.00    -0.357 N 
HETATM    9  C   UNL     1      28.678  42.283  53.112  1.00  0.00     0.222 C 
HETATM   10  O   UNL     1      28.094  41.316  53.593  1.00  0.00    -0.273 OA
HETATM   11  H   UNL     1      28.807  43.620  51.548  1.00  0.00     0.162 HD
BRANCH   9  12
HETATM   12  C   UNL     1      30.010  42.783  53.640  1.00  0.00     0.141 C 
BRANCH  12  13
HETATM   13  C   UNL     1      29.957  43.761  54.793  1.00  0.00    -0.047 A 
HETATM   14  C   UNL     1      28.991  44.772  54.911  1.00  0.00     0.044 A 
HETATM   15  C   UNL     1      28.993  45.653  56.001  1.00  0.00     0.068 A 
HETATM   16  C   UNL     1      29.974  45.527  56.984  1.00  0.00     0.037 A 
HETATM   17  C   UNL     1      30.942  44.529  56.879  1.00  0.00     0.003 A 
HETATM   18  C   UNL     1      30.933  43.653  55.795  1.00  0.00     0.007 A 
BRANCH  15  19
HETATM   19  O   UNL     1      27.988  46.582  55.985  1.00  0.00    -0.356 OA
HETATM   20  C   UNL     1      27.942  47.459  54.867  1.00  0.00     0.210 C 
ENDBRANCH  15  19
ENDBRANCH  12  13
ENDBRANCH   9  12
ENDBRANCH   7   8
ENDBRANCH   1   7
BRANCH   4  21
HETATM   21  N   UNL     1      23.775  47.168  49.876  1.00  0.00    -0.321 N 
HETATM   22  C   UNL     1      24.131  48.452  49.504  1.00  0.00     0.279 C 
HETATM   23  O   UNL     1      25.277  48.873  49.397  1.00  0.00    -0.265 OA
HETATM   24  H   UNL     1      22.776  46.994  49.881  1.00  0.00     0.169 HD
BRANCH  22  25
HETATM   25  C   UNL     1      22.975  49.295  49.248  1.00  0.00     0.142 A 
HETATM   26  O   UNL     1      21.719  48.738  49.245  1.00  0.00    -0.317 OA
HETATM   27  C   UNL     1      20.837  49.744  49.010  1.00  0.00     0.143 A 
HETATM   28  C   UNL     1      21.497  50.940  48.856  1.00  0.00     0.027 A 
HETATM   29  C   UNL     1      22.874  50.653  49.007  1.00  0.00     0.045 A 
ENDBRANCH  22  25
ENDBRANCH   4  21
TORSDOF 7
ENDMDL
MODEL 2
REMARK VINA RESULT:      -8.6      1.085      2.067
REMARK  7 active torsions:
REMARK  status: ('A' for Active; 'I' for Inactive)
REMARK    1  A    between atoms: O_2  and  C_3 
REMARK    2  A    between atoms: C_5  and  C_6 
REMARK    3  A    between atoms: C_6  and  C_7 
REMARK       I    between atoms: C_7  and  N_8 
REMARK    4  A    between atoms: N_8  and  C_9 
REMARK    5  A    between atoms: C_9  and  C_10 
REMARK    6  A    between atoms: C_13  and  N_14 
REMARK       I    between atoms: N_14  and  C_15 
REMARK    7  A    between atoms: C_15  and  C_16 
ROOT
HETATM    1  C   UNL     1      25.741  43.305  50.612  1.00  0.00    -0.040 A 
HETATM    2  C   UNL     1      25.348  43.512  49.286  1.00  0.00     0.011 A 
HETATM    3  C   UNL     1      24.583  44.630  48.932  1.00  0.00     0.030 A 
HETATM    4  C   UNL     1      24.206  45.564  49.898  1.00  0.00     0.035 A 
HETATM    5  C   UNL     1      24.583  45.350  51.228  1.00  0.00     0.030 A 
HETATM    6  C   UNL     1      25.344  44.232  51.584  1.00  0.00     0.011 A 
ENDROOT
BRANCH   1   7
HETATM    7  C   UNL     1      26.620  42.142  50.986  1.00  0.00     0.161 C 
BRANCH   7   8
HETATM    8  N   UNL     1      27.861  42.615  51.556  1.00  0.00    -0.357 N 
HETATM    9  C   UNL     1      28.361  42.064  52.715  1.00  0.00     0.222 C 
HETATM   10  O   UNL     1      27.775  41.191  53.349  1.00  0.00    -0.273 OA
HETATM   11  H   UNL     1      28.494  43.123  50.951  1.00  0.00     0.162 HD
BRANCH   9  12
HETATM   12  C   UNL     1      29.692  42.644  53.154  1.00  0.00     0.141 C 
BRANCH  12  13
HETATM   13  C   UNL     1      29.651  43.664  54.270  1.00  0.00    -0.047 A 
HETATM   14  C   UNL     1      30.514  43.642  55.376  1.00  0.00     0.044 A 
HETATM   15  C   UNL     1      30.428  44.612  56.384  1.00  0.00     0.068 A 
HETATM   16  C   UNL     1      29.465  45.615  56.290  1.00  0.00     0.037 A 
HETATM   17  C   UNL     1      28.597  45.649  55.199  1.00  0.00     0.003 A 
HETATM   18  C   UNL     1      28.690  44.683  54.197  1.00  0.00     0.007 A 
BRANCH  15  19
HETATM   19  O   UNL     1      31.339  44.467  57.395  1.00  0.00    -0.356 OA
HETATM   20  C   UNL     1      32.154  43.302  57.363  1.00  0.00     0.210 C 
ENDBRANCH  15  19
ENDBRANCH  12  13
ENDBRANCH   9  12
ENDBRANCH   7   8
ENDBRANCH   1   7
BRANCH   4  21
HETATM   21  N   UNL     1      23.489  46.742  49.618  1.00  0.00    -0.321 N 
HETATM   22  C   UNL     1      23.958  48.042  49.559  1.00  0.00     0.279 C 
HETATM   23  O   UNL     1      25.130  48.384  49.669  1.00  0.00    -0.265 OA
HETATM   24  H   UNL     1      22.488  46.650  49.476  1.00  0.00     0.169 HD
BRANCH  22  25
HETATM   25  C   UNL     1      22.890  49.008  49.356  1.00  0.00     0.142 A 
HETATM   26  O   UNL     1      21.589  48.573  49.294  1.00  0.00    -0.317 OA
HETATM   27  C   UNL     1      20.809  49.674  49.128  1.00  0.00     0.143 A 
HETATM   28  C   UNL     1      21.580  50.810  49.077  1.00  0.00     0.027 A 
HETATM   29  C   UNL     1      22.922  50.383  49.222  1.00  0.00     0.045 A 
ENDBRANCH  22  25
ENDBRANCH   4  21
TORSDOF 7
ENDMDL
MODEL 3
REMARK VINA RESULT:      -8.5      1.804      9.948
REMARK  7 active torsions:
REMARK  status: ('A' for Active; 'I' for Inactive)
REMARK    1  A    between atoms: O_2  and  C_3 
REMARK    2  A    between atoms: C_5  and  C_6 
REMARK    3  A    between atoms: C_6  and  C_7 
REMARK       I    between atoms: C_7  and  N_8 
REMARK    4  A    between atoms: N_8  and  C_9 
REMARK    5  A    between atoms: C_9  and  C_10 
REMARK    6  A    between atoms: C_13  and  N_14 
REMARK       I    between atoms: N_14  and  C_15 
REMARK    7  A    between atoms: C_15  and  C_16 
ROOT
HETATM    1  C   UNL     1      24.344  45.802  50.179  1.00  0.00    -0.040 A 
HETATM    2  C   UNL     1      24.373  44.468  50.598  1.00  0.00     0.011 A 
HETATM    3  C   UNL     1      25.397  44.001  51.431  1.00  0.00     0.030 A 
HETATM    4  C   UNL     1      26.404  44.863  51.867  1.00  0.00     0.035 A 
HETATM    5  C   UNL     1      26.387  46.194  51.436  1.00  0.00     0.030 A 
HETATM    6  C   UNL     1      25.367  46.661  50.600  1.00  0.00     0.011 A 
ENDROOT
BRANCH   1   7
HETATM    7  C   UNL     1      23.209  46.326  49.341  1.00  0.00     0.161 C 
BRANCH   7   8
HETATM    8  N   UNL     1      23.081  47.755  49.508  1.00  0.00    -0.357 N 
HETATM    9  C   UNL     1      22.614  48.547  48.482  1.00  0.00     0.222 C 
HETATM   10  O   UNL     1      22.330  48.107  47.372  1.00  0.00    -0.273 OA
HETATM   11  H   UNL     1      23.044  48.117  50.452  1.00  0.00     0.162 HD
BRANCH   9  12
HETATM   12  C   UNL     1      22.499  50.018  48.836  1.00  0.00     0.141 C 
BRANCH  12  13
HETATM   13  C   UNL     1      21.105  50.546  49.088  1.00  0.00    -0.047 A 
HETATM   14  C   UNL     1      20.194  49.948  49.972  1.00  0.00     0.044 A 
HETATM   15  C   UNL     1      18.912  50.480  50.164  1.00  0.00     0.068 A 
HETATM   16  C   UNL     1      18.530  51.622  49.461  1.00  0.00     0.037 A 
HETATM   17  C   UNL     1      19.422  52.226  48.575  1.00  0.00     0.003 A 
HETATM   18  C   UNL     1      20.699  51.695  48.392  1.00  0.00     0.007 A 
BRANCH  15  19
HETATM   19  O   UNL     1      18.138  49.795  51.061  1.00  0.00    -0.356 OA
HETATM   20  C   UNL     1      18.545  48.471  51.381  1.00  0.00     0.210 C 
ENDBRANCH  15  19
ENDBRANCH  12  13
ENDBRANCH   9  12
ENDBRANCH   7   8
ENDBRANCH   1   7
BRANCH   4  21
HETATM   21  N   UNL     1      27.434  44.489  52.749  1.00  0.00    -0.321 N 
HETATM   22  C   UNL     1      27.481  44.627  54.125  1.00  0.00     0.279 C 
HETATM   23  O   UNL     1      26.569  45.039  54.833  1.00  0.00    -0.265 OA
HETATM   24  H   UNL     1      28.277  44.103  52.337  1.00  0.00     0.169 HD
BRANCH  22  25
HETATM   25  C   UNL     1      28.765  44.230  54.678  1.00  0.00     0.142 A 
HETATM   26  O   UNL     1      29.453  45.104  55.484  1.00  0.00    -0.317 OA
HETATM   27  C   UNL     1      30.591  44.473  55.877  1.00  0.00     0.143 A 
HETATM   28  C   UNL     1      30.655  43.211  55.337  1.00  0.00     0.027 A 
HETATM   29  C   UNL     1      29.481  43.053  54.562  1.00  0.00     0.045 A 
ENDBRANCH  22  25
ENDBRANCH   4  21
TORSDOF 7
ENDMDL
MODEL 4
REMARK VINA RESULT:      -8.3      2.057      3.398
REMARK  7 active torsions:
REMARK  status: ('A' for Active; 'I' for Inactive)
REMARK    1  A    between atoms: O_2  and  C_3 
REMARK    2  A    between atoms: C_5  and  C_6 
REMARK    3  A    between atoms: C_6  and  C_7 
REMARK       I    between atoms: C_7  and  N_8 
REMARK    4  A    between atoms: N_8  and  C_9 
REMARK    5  A    between atoms: C_9  and  C_10 
REMARK    6  A    between atoms: C_13  and  N_14 
REMARK       I    between atoms: N_14  and  C_15 
REMARK    7  A    between atoms: C_15  and  C_16 
ROOT
HETATM    1  C   UNL     1      25.693  47.158  49.526  1.00  0.00    -0.040 A 
HETATM    2  C   UNL     1      24.416  46.602  49.659  1.00  0.00     0.011 A 
HETATM    3  C   UNL     1      23.272  47.399  49.536  1.00  0.00     0.030 A 
HETATM    4  C   UNL     1      23.385  48.764  49.268  1.00  0.00     0.035 A 
HETATM    5  C   UNL     1      24.661  49.325  49.151  1.00  0.00     0.030 A 
HETATM    6  C   UNL     1      25.805  48.532  49.278  1.00  0.00     0.011 A 
ENDROOT
BRANCH   1   7
HETATM    7  C   UNL     1      26.924  46.294  49.589  1.00  0.00     0.161 C 
BRANCH   7   8
HETATM    8  N   UNL     1      26.822  45.356  50.684  1.00  0.00    -0.357 N 
HETATM    9  C   UNL     1      26.955  44.003  50.468  1.00  0.00     0.222 C 
HETATM   10  O   UNL     1      27.115  43.514  49.353  1.00  0.00    -0.273 OA
HETATM   11  H   UNL     1      26.956  45.711  51.622  1.00  0.00     0.162 HD
BRANCH   9  12
HETATM   12  C   UNL     1      26.864  43.161  51.727  1.00  0.00     0.141 C 
BRANCH  12  13
HETATM   13  C   UNL     1      28.009  43.284  52.707  1.00  0.00    -0.047 A 
HETATM   14  C   UNL     1      27.969  44.095  53.851  1.00  0.00     0.044 A 
HETATM   15  C   UNL     1      29.063  44.174  54.724  1.00  0.00     0.068 A 
HETATM   16  C   UNL     1      30.215  43.437  54.449  1.00  0.00     0.037 A 
HETATM   17  C   UNL     1      30.271  42.628  53.314  1.00  0.00     0.003 A 
HETATM   18  C   UNL     1      29.178  42.551  52.452  1.00  0.00     0.007 A 
BRANCH  15  19
HETATM   19  O   UNL     1      28.877  44.999  55.800  1.00  0.00    -0.356 OA
HETATM   20  C   UNL     1      29.904  45.945  56.069  1.00  0.00     0.210 C 
ENDBRANCH  15  19
ENDBRANCH  12  13
ENDBRANCH   9  12
ENDBRANCH   7   8
ENDBRANCH   1   7
BRANCH   4  21
HETATM   21  N   UNL     1      22.288  49.621  49.072  1.00  0.00    -0.321 N 
HETATM   22  C   UNL     1      21.855  50.663  49.873  1.00  0.00     0.279 C 
HETATM   23  O   UNL     1      22.422  51.072  50.880  1.00  0.00    -0.265 OA
HETATM   24  H   UNL     1      21.702  49.444  48.263  1.00  0.00     0.169 HD
BRANCH  22  25
HETATM   25  C   UNL     1      20.610  51.247  49.401  1.00  0.00     0.142 A 
HETATM   26  O   UNL     1      19.545  51.354  50.261  1.00  0.00    -0.317 OA
HETATM   27  C   UNL     1      18.536  51.952  49.573  1.00  0.00     0.143 A 
HETATM   28  C   UNL     1      18.927  52.227  48.284  1.00  0.00     0.027 A 
HETATM   29  C   UNL     1      20.262  51.772  48.170  1.00  0.00     0.045 A 
ENDBRANCH  22  25
ENDBRANCH   4  21
TORSDOF 7
ENDMDL
MODEL 5
REMARK VINA RESULT:      -8.2      1.685      9.205
REMARK  7 active torsions:
REMARK  status: ('A' for Active; 'I' for Inactive)
REMARK    1  A    between atoms: O_2  and  C_3 
REMARK    2  A    between atoms: C_5  and  C_6 
REMARK    3  A    between atoms: C_6  and  C_7 
REMARK       I    between atoms: C_7  and  N_8 
REMARK    4  A    between atoms: N_8  and  C_9 
REMARK    5  A    between atoms: C_9  and  C_10 
REMARK    6  A    between atoms: C_13  and  N_14 
REMARK       I    between atoms: N_14  and  C_15 
REMARK    7  A    between atoms: C_15  and  C_16 
ROOT
HETATM    1  C   UNL     1      24.848  44.525  49.969  1.00  0.00    -0.040 A 
HETATM    2  C   UNL     1      24.476  44.565  51.318  1.00  0.00     0.011 A 
HETATM    3  C   UNL     1      25.444  44.525  52.329  1.00  0.00     0.030 A 
HETATM    4  C   UNL     1      26.800  44.454  52.007  1.00  0.00     0.035 A 
HETATM    5  C   UNL     1      27.173  44.397  50.661  1.00  0.00     0.030 A 
HETATM    6  C   UNL     1      26.208  44.432  49.650  1.00  0.00     0.011 A 
ENDROOT
BRANCH   1   7
HETATM    7  C   UNL     1      23.816  44.637  48.879  1.00  0.00     0.161 C 
BRANCH   7   8
HETATM    8  N   UNL     1      22.939  45.757  49.132  1.00  0.00    -0.357 N 
HETATM    9  C   UNL     1      21.940  46.086  48.243  1.00  0.00     0.222 C 
HETATM   10  O   UNL     1      21.766  45.494  47.182  1.00  0.00    -0.273 OA
HETATM   11  H   UNL     1      22.870  46.095  50.083  1.00  0.00     0.162 HD
BRANCH   9  12
HETATM   12  C   UNL     1      21.084  47.260  48.678  1.00  0.00     0.141 C 
BRANCH  12  13
HETATM   13  C   UNL     1      21.728  48.627  48.619  1.00  0.00    -0.047 A 
HETATM   14  C   UNL     1      22.947  48.885  47.974  1.00  0.00     0.044 A 
HETATM   15  C   UNL     1      23.499  50.173  47.954  1.00  0.00     0.068 A 
HETATM   16  C   UNL     1      22.830  51.217  48.592  1.00  0.00     0.037 A 
HETATM   17  C   UNL     1      21.619  50.976  49.241  1.00  0.00     0.003 A 
HETATM   18  C   UNL     1      21.072  49.693  49.253  1.00  0.00     0.007 A 
BRANCH  15  19
HETATM   19  O   UNL     1      24.686  50.274  47.282  1.00  0.00    -0.356 OA
HETATM   20  C   UNL     1      25.870  50.005  48.023  1.00  0.00     0.210 C 
ENDBRANCH  15  19
ENDBRANCH  12  13
ENDBRANCH   9  12
ENDBRANCH   7   8
ENDBRANCH   1   7
BRANCH   4  21
HETATM   21  N   UNL     1      27.837  44.469  52.959  1.00  0.00    -0.321 N 
HETATM   22  C   UNL     1      28.267  43.440  53.778  1.00  0.00     0.279 C 
HETATM   23  O   UNL     1      27.854  42.287  53.754  1.00  0.00    -0.265 OA
HETATM   24  H   UNL     1      28.317  45.350  53.105  1.00  0.00     0.169 HD
BRANCH  22  25
HETATM   25  C   UNL     1      29.291  43.871  54.717  1.00  0.00     0.142 A 
HETATM   26  O   UNL     1      29.198  45.113  55.295  1.00  0.00    -0.317 OA
HETATM   27  C   UNL     1      30.257  45.242  56.137  1.00  0.00     0.143 A 
HETATM   28  C   UNL     1      31.035  44.109  56.111  1.00  0.00     0.027 A 
HETATM   29  C   UNL     1      30.416  43.226  55.195  1.00  0.00     0.045 A 
ENDBRANCH  22  25
ENDBRANCH   4  21
TORSDOF 7
ENDMDL
MODEL 6
REMARK VINA RESULT:      -8.1      2.313     10.556
REMARK  7 active torsions:
REMARK  status: ('A' for Active; 'I' for Inactive)
REMARK    1  A    between atoms: O_2  and  C_3 
REMARK    2  A    between atoms: C_5  and  C_6 
REMARK    3  A    between atoms: C_6  and  C_7 
REMARK       I    between atoms: C_7  and  N_8 
REMARK    4  A    between atoms: N_8  and  C_9 
REMARK    5  A    between atoms: C_9  and  C_10 
REMARK    6  A    between atoms: C_13  and  N_14 
REMARK       I    between atoms: N_14  and  C_15 
REMARK    7  A    between atoms: C_15  and  C_16 
ROOT
HETATM    1  C   UNL     1      24.079  46.539  49.910  1.00  0.00    -0.040 A 
HETATM    2  C   UNL     1      24.063  45.269  50.496  1.00  0.00     0.011 A 
HETATM    3  C   UNL     1      24.994  44.926  51.485  1.00  0.00     0.030 A 
HETATM    4  C   UNL     1      25.950  45.851  51.909  1.00  0.00     0.035 A 
HETATM    5  C   UNL     1      25.978  47.115  51.311  1.00  0.00     0.030 A 
HETATM    6  C   UNL     1      25.051  47.458  50.321  1.00  0.00     0.011 A 
ENDROOT
BRANCH   1   7
HETATM    7  C   UNL     1      23.038  46.936  48.897  1.00  0.00     0.161 C 
BRANCH   7   8
HETATM    8  N   UNL     1      22.400  48.171  49.292  1.00  0.00    -0.357 N 
HETATM    9  C   UNL     1      22.585  49.325  48.564  1.00  0.00     0.222 C 
HETATM   10  O   UNL     1      23.323  49.389  47.586  1.00  0.00    -0.273 OA
HETATM   11  H   UNL     1      21.598  48.111  49.907  1.00  0.00     0.162 HD
BRANCH   9  12
HETATM   12  C   UNL     1      21.811  50.520  49.088  1.00  0.00     0.141 C 
BRANCH  12  13
HETATM   13  C   UNL     1      20.551  50.892  48.340  1.00  0.00    -0.047 A 
HETATM   14  C   UNL     1      20.077  50.193  47.219  1.00  0.00     0.044 A 
HETATM   15  C   UNL     1      18.903  50.585  46.562  1.00  0.00     0.068 A 
HETATM   16  C   UNL     1      18.193  51.692  47.026  1.00  0.00     0.037 A 
HETATM   17  C   UNL     1      18.652  52.399  48.137  1.00  0.00     0.003 A 
HETATM   18  C   UNL     1      19.819  52.002  48.789  1.00  0.00     0.007 A 
BRANCH  15  19
HETATM   19  O   UNL     1      18.562  49.806  45.490  1.00  0.00    -0.356 OA
HETATM   20  C   UNL     1      17.581  50.328  44.602  1.00  0.00     0.210 C 
ENDBRANCH  15  19
ENDBRANCH  12  13
ENDBRANCH   9  12
ENDBRANCH   7   8
ENDBRANCH   1   7
BRANCH   4  21
HETATM   21  N   UNL     1      26.881  45.607  52.934  1.00  0.00    -0.321 N 
HETATM   22  C   UNL     1      26.828  46.004  54.258  1.00  0.00     0.279 C 
HETATM   23  O   UNL     1      25.891  46.588  54.791  1.00  0.00    -0.265 OA
HETATM   24  H   UNL     1      27.728  45.109  52.680  1.00  0.00     0.169 HD
BRANCH  22  25
HETATM   25  C   UNL     1      28.038  45.662  54.989  1.00  0.00     0.142 A 
HETATM   26  O   UNL     1      28.395  46.403  56.089  1.00  0.00    -0.317 OA
HETATM   27  C   UNL     1      29.535  45.854  56.586  1.00  0.00     0.143 A 
HETATM   28  C   UNL     1      29.923  44.776  55.827  1.00  0.00     0.027 A 
HETATM   29  C   UNL     1      28.962  44.652  54.796  1.00  0.00     0.045 A 
ENDBRANCH  22  25
ENDBRANCH   4  21
TORSDOF 7
ENDMDL
MODEL 7
REMARK VINA RESULT:      -8.1      1.476      2.553
REMARK  7 active torsions:
REMARK  status: ('A' for Active; 'I' for Inactive)
REMARK    1  A    between atoms: O_2  and  C_3 
REMARK    2  A    between atoms: C_5  and  C_6 
REMARK    3  A    between atoms: C_6  and  C_7 
REMARK       I    between atoms: C_7  and  N_8 
REMARK    4  A    between atoms: N_8  and  C_9 
REMARK    5  A    between atoms: C_9  and  C_10 
REMARK    6  A    between atoms: C_13  and  N_14 
REMARK       I    between atoms: N_14  and  C_15 
REMARK    7  A    between atoms: C_15  and  C_16 
ROOT
HETATM    1  C   UNL     1      25.466  44.857  49.601  1.00  0.00    -0.040 A 
HETATM    2  C   UNL     1      24.296  44.632  48.868  1.00  0.00     0.011 A 
HETATM    3  C   UNL     1      23.298  45.611  48.796  1.00  0.00     0.030 A 
HETATM    4  C   UNL     1      23.458  46.835  49.446  1.00  0.00     0.035 A 
HETATM    5  C   UNL     1      24.620  47.056  50.193  1.00  0.00     0.030 A 
HETATM    6  C   UNL     1      25.616  46.077  50.271  1.00  0.00     0.011 A 
ENDROOT
BRANCH   1   7
HETATM    7  C   UNL     1      26.571  43.835  49.626  1.00  0.00     0.161 C 
BRANCH   7   8
HETATM    8  N   UNL     1      27.492  44.119  50.703  1.00  0.00    -0.357 N 
HETATM    9  C   UNL     1      27.490  43.360  51.852  1.00  0.00     0.222 C 
HETATM   10  O   UNL     1      26.694  42.446  52.050  1.00  0.00    -0.273 OA
HETATM   11  H   UNL     1      28.316  44.665  50.487  1.00  0.00     0.162 HD
BRANCH   9  12
HETATM   12  C   UNL     1      28.545  43.762  52.865  1.00  0.00     0.141 C 
BRANCH  12  13
HETATM   13  C   UNL     1      28.162  44.845  53.848  1.00  0.00    -0.047 A 
HETATM   14  C   UNL     1      28.870  45.107  55.031  1.00  0.00     0.044 A 
HETATM   15  C   UNL     1      28.467  46.123  55.909  1.00  0.00     0.068 A 
HETATM   16  C   UNL     1      27.338  46.883  55.606  1.00  0.00     0.037 A 
HETATM   17  C   UNL     1      26.621  46.632  54.436  1.00  0.00     0.003 A 
HETATM   18  C   UNL     1      27.030  45.624  53.564  1.00  0.00     0.007 A 
BRANCH  15  19
HETATM   19  O   UNL     1      29.257  46.267  57.016  1.00  0.00    -0.356 OA
HETATM   20  C   UNL     1      30.376  45.396  57.125  1.00  0.00     0.210 C 
ENDBRANCH  15  19
ENDBRANCH  12  13
ENDBRANCH   9  12
ENDBRANCH   7   8
ENDBRANCH   1   7
BRANCH   4  21
HETATM   21  N   UNL     1      22.532  47.892  49.376  1.00  0.00    -0.321 N 
HETATM   22  C   UNL     1      22.552  49.001  48.549  1.00  0.00     0.279 C 
HETATM   23  O   UNL     1      23.367  49.213  47.658  1.00  0.00    -0.265 OA
HETATM   24  H   UNL     1      21.763  47.876  50.038  1.00  0.00     0.169 HD
BRANCH  22  25
HETATM   25  C   UNL     1      21.481  49.937  48.851  1.00  0.00     0.142 A 
HETATM   26  O   UNL     1      20.537  49.604  49.791  1.00  0.00    -0.317 OA
HETATM   27  C   UNL     1      19.684  50.657  49.890  1.00  0.00     0.143 A 
HETATM   28  C   UNL     1      20.055  51.662  49.030  1.00  0.00     0.027 A 
HETATM   29  C   UNL     1      21.211  51.200  48.357  1.00  0.00     0.045 A 
ENDBRANCH  22  25
ENDBRANCH   4  21
TORSDOF 7
ENDMDL
MODEL 8
REMARK VINA RESULT:      -8.1      3.301      6.289
REMARK  7 active torsions:
REMARK  status: ('A' for Active; 'I' for Inactive)
REMARK    1  A    between atoms: O_2  and  C_3 
REMARK    2  A    between atoms: C_5  and  C_6 
REMARK    3  A    between atoms: C_6  and  C_7 
REMARK       I    between atoms: C_7  and  N_8 
REMARK    4  A    between atoms: N_8  and  C_9 
REMARK    5  A    between atoms: C_9  and  C_10 
REMARK    6  A    between atoms: C_13  and  N_14 
REMARK       I    between atoms: N_14  and  C_15 
REMARK    7  A    between atoms: C_15  and  C_16 
ROOT
HETATM    1  C   UNL     1      25.541  45.909  51.334  1.00  0.00    -0.040 A 
HETATM    2  C   UNL     1      24.772  44.742  51.389  1.00  0.00     0.011 A 
HETATM    3  C   UNL     1      25.047  43.663  50.540  1.00  0.00     0.030 A 
HETATM    4  C   UNL     1      26.101  43.730  49.629  1.00  0.00     0.035 A 
HETATM    5  C   UNL     1      26.861  44.902  49.559  1.00  0.00     0.030 A 
HETATM    6  C   UNL     1      26.585  45.982  50.403  1.00  0.00     0.011 A 
ENDROOT
BRANCH   1   7
HETATM    7  C   UNL     1      25.294  47.045  52.290  1.00  0.00     0.161 C 
BRANCH   7   8
HETATM    8  N   UNL     1      26.418  47.199  53.186  1.00  0.00    -0.357 N 
HETATM    9  C   UNL     1      26.440  46.561  54.406  1.00  0.00     0.222 C 
HETATM   10  O   UNL     1      25.510  45.877  54.822  1.00  0.00    -0.273 OA
HETATM   11  H   UNL     1      27.293  47.519  52.792  1.00  0.00     0.162 HD
BRANCH   9  12
HETATM   12  C   UNL     1      27.709  46.794  55.205  1.00  0.00     0.141 C 
BRANCH  12  13
HETATM   13  C   UNL     1      28.702  45.655  55.244  1.00  0.00    -0.047 A 
HETATM   14  C   UNL     1      28.590  44.497  54.459  1.00  0.00     0.044 A 
HETATM   15  C   UNL     1      29.540  43.470  54.540  1.00  0.00     0.068 A 
HETATM   16  C   UNL     1      30.615  43.596  55.419  1.00  0.00     0.037 A 
HETATM   17  C   UNL     1      30.739  44.739  56.208  1.00  0.00     0.003 A 
HETATM   18  C   UNL     1      29.793  45.760  56.120  1.00  0.00     0.007 A 
BRANCH  15  19
HETATM   19  O   UNL     1      29.303  42.407  53.711  1.00  0.00    -0.356 OA
HETATM   20  C   UNL     1      27.964  41.933  53.641  1.00  0.00     0.210 C 
ENDBRANCH  15  19
ENDBRANCH  12  13
ENDBRANCH   9  12
ENDBRANCH   7   8
ENDBRANCH   1   7
BRANCH   4  21
HETATM   21  N   UNL     1      26.479  42.671  48.783  1.00  0.00    -0.321 N 
HETATM   22  C   UNL     1      27.288  41.586  49.070  1.00  0.00     0.279 C 
HETATM   23  O   UNL     1      27.761  41.320  50.169  1.00  0.00    -0.265 OA
HETATM   24  H   UNL     1      26.158  42.712  47.821  1.00  0.00     0.169 HD
BRANCH  22  25
HETATM   25  C   UNL     1      27.546  40.761  47.901  1.00  0.00     0.142 A 
HETATM   26  O   UNL     1      27.884  41.361  46.712  1.00  0.00    -0.317 OA
HETATM   27  C   UNL     1      28.092  40.366  45.809  1.00  0.00     0.143 A 
HETATM   28  C   UNL     1      27.890  39.137  46.389  1.00  0.00     0.027 A 
HETATM   29  C   UNL     1      27.536  39.389  47.736  1.00  0.00     0.045 A 
ENDBRANCH  22  25
ENDBRANCH   4  21
TORSDOF 7
ENDMDL
MODEL 9
REMARK VINA RESULT:      -8.1      2.421     10.464
REMARK  7 active torsions:
REMARK  status: ('A' for Active; 'I' for Inactive)
REMARK    1  A    between atoms: O_2  and  C_3 
REMARK    2  A    between atoms: C_5  and  C_6 
REMARK    3  A    between atoms: C_6  and  C_7 
REMARK       I    between atoms: C_7  and  N_8 
REMARK    4  A    between atoms: N_8  and  C_9 
REMARK    5  A    between atoms: C_9  and  C_10 
REMARK    6  A    between atoms: C_13  and  N_14 
REMARK       I    between atoms: N_14  and  C_15 
REMARK    7  A    between atoms: C_15  and  C_16 
ROOT
HETATM    1  C   UNL     1      23.916  46.740  49.597  1.00  0.00    -0.040 A 
HETATM    2  C   UNL     1      24.854  47.589  50.193  1.00  0.00     0.011 A 
HETATM    3  C   UNL     1      25.797  47.090  51.101  1.00  0.00     0.030 A 
HETATM    4  C   UNL     1      25.823  45.732  51.419  1.00  0.00     0.035 A 
HETATM    5  C   UNL     1      24.875  44.884  50.837  1.00  0.00     0.030 A 
HETATM    6  C   UNL     1      23.930  45.381  49.934  1.00  0.00     0.011 A 
ENDROOT
BRANCH   1   7
HETATM    7  C   UNL     1      22.946  47.258  48.570  1.00  0.00     0.161 C 
BRANCH   7   8
HETATM    8  N   UNL     1      22.420  48.540  48.979  1.00  0.00    -0.357 N 
HETATM    9  C   UNL     1      22.732  49.686  48.282  1.00  0.00     0.222 C 
HETATM   10  O   UNL     1      23.497  49.699  47.322  1.00  0.00    -0.273 OA
HETATM   11  H   UNL     1      21.602  48.545  49.575  1.00  0.00     0.162 HD
BRANCH   9  12
HETATM   12  C   UNL     1      22.065  50.939  48.817  1.00  0.00     0.141 C 
BRANCH  12  13
HETATM   13  C   UNL     1      20.627  51.167  48.408  1.00  0.00    -0.047 A 
HETATM   14  C   UNL     1      19.712  51.914  49.167  1.00  0.00     0.044 A 
HETATM   15  C   UNL     1      18.389  52.089  48.741  1.00  0.00     0.068 A 
HETATM   16  C   UNL     1      17.970  51.508  47.544  1.00  0.00     0.037 A 
HETATM   17  C   UNL     1      18.866  50.761  46.781  1.00  0.00     0.003 A 
HETATM   18  C   UNL     1      20.183  50.593  47.208  1.00  0.00     0.007 A 
BRANCH  15  19
HETATM   19  O   UNL     1      17.615  52.845  49.578  1.00  0.00    -0.356 OA
HETATM   20  C   UNL     1      16.315  52.351  49.874  1.00  0.00     0.210 C 
ENDBRANCH  15  19
ENDBRANCH  12  13
ENDBRANCH   9  12
ENDBRANCH   7   8
ENDBRANCH   1   7
BRANCH   4  21
HETATM   21  N   UNL     1      26.771  45.142  52.274  1.00  0.00    -0.321 N 
HETATM   22  C   UNL     1      26.670  44.893  53.631  1.00  0.00     0.279 C 
HETATM   23  O   UNL     1      25.673  45.082  54.319  1.00  0.00    -0.265 OA
HETATM   24  H   UNL     1      27.668  44.895  51.868  1.00  0.00     0.169 HD
BRANCH  22  25
HETATM   25  C   UNL     1      27.906  44.375  54.194  1.00  0.00     0.142 A 
HETATM   26  O   UNL     1      28.254  43.065  53.969  1.00  0.00    -0.317 OA
HETATM   27  C   UNL     1      29.451  42.860  54.579  1.00  0.00     0.143 A 
HETATM   28  C   UNL     1      29.881  44.009  55.198  1.00  0.00     0.027 A 
HETATM   29  C   UNL     1      28.887  44.986  54.953  1.00  0.00     0.045 A 
ENDBRANCH  22  25
ENDBRANCH   4  21
TORSDOF 7
ENDMDL
MODEL 10
REMARK VINA RESULT:      -7.9      5.706     13.261
REMARK  7 active torsions:
REMARK  status: ('A' for Active; 'I' for Inactive)
REMARK    1  A    between atoms: O_2  and  C_3 
REMARK    2  A    between atoms: C_5  and  C_6 
REMARK    3  A    between atoms: C_6  and  C_7 
REMARK       I    between atoms: C_7  and  N_8 
REMARK    4  A    between atoms: N_8  and  C_9 
REMARK    5  A    between atoms: C_9  and  C_10 
REMARK    6  A    between atoms: C_13  and  N_14 
REMARK       I    between atoms: N_14  and  C_15 
REMARK    7  A    between atoms: C_15  and  C_16 
ROOT
HETATM    1  C   UNL     1      19.020  51.310  47.472  1.00  0.00    -0.040 A 
HETATM    2  C   UNL     1      19.442  50.078  46.959  1.00  0.00     0.011 A 
HETATM    3  C   UNL     1      20.621  49.478  47.418  1.00  0.00     0.030 A 
HETATM    4  C   UNL     1      21.392  50.096  48.404  1.00  0.00     0.035 A 
HETATM    5  C   UNL     1      20.982  51.335  48.905  1.00  0.00     0.030 A 
HETATM    6  C   UNL     1      19.807  51.938  48.445  1.00  0.00     0.011 A 
ENDROOT
BRANCH   1   7
HETATM    7  C   UNL     1      17.719  51.926  47.032  1.00  0.00     0.161 C 
BRANCH   7   8
HETATM    8  N   UNL     1      16.998  52.442  48.173  1.00  0.00    -0.357 N 
HETATM    9  C   UNL     1      15.921  51.759  48.695  1.00  0.00     0.222 C 
HETATM   10  O   UNL     1      15.486  50.720  48.208  1.00  0.00    -0.273 OA
HETATM   11  H   UNL     1      17.464  53.125  48.755  1.00  0.00     0.162 HD
BRANCH   9  12
HETATM   12  C   UNL     1      15.304  52.414  49.917  1.00  0.00     0.141 C 
BRANCH  12  13
HETATM   13  C   UNL     1      14.917  53.870  49.782  1.00  0.00    -0.047 A 
HETATM   14  C   UNL     1      15.238  54.851  50.732  1.00  0.00     0.044 A 
HETATM   15  C   UNL     1      14.849  56.186  50.557  1.00  0.00     0.068 A 
HETATM   16  C   UNL     1      14.126  56.547  49.420  1.00  0.00     0.037 A 
HETATM   17  C   UNL     1      13.797  55.583  48.468  1.00  0.00     0.003 A 
HETATM   18  C   UNL     1      14.190  54.256  48.646  1.00  0.00     0.007 A 
BRANCH  15  19
HETATM   19  O   UNL     1      15.238  57.030  51.561  1.00  0.00    -0.356 OA
HETATM   20  C   UNL     1      15.204  56.513  52.885  1.00  0.00     0.210 C 
ENDBRANCH  15  19
ENDBRANCH  12  13
ENDBRANCH   9  12
ENDBRANCH   7   8
ENDBRANCH   1   7
BRANCH   4  21
HETATM   21  N   UNL     1      22.556  49.534  48.960  1.00  0.00    -0.321 N 
HETATM   22  C   UNL     1      23.834  49.504  48.431  1.00  0.00     0.279 C 
HETATM   23  O   UNL     1      24.191  50.048  47.392  1.00  0.00    -0.265 OA
HETATM   24  H   UNL     1      22.457  49.049  49.845  1.00  0.00     0.169 HD
BRANCH  22  25
HETATM   25  C   UNL     1      24.754  48.729  49.248  1.00  0.00     0.142 A 
HETATM   26  O   UNL     1      24.260  47.950  50.266  1.00  0.00    -0.317 OA
HETATM   27  C   UNL     1      25.322  47.323  50.839  1.00  0.00     0.143 A 
HETATM   28  C   UNL     1      26.492  47.686  50.215  1.00  0.00     0.027 A 
HETATM   29  C   UNL     1      26.128  48.593  49.191  1.00  0.00     0.045 A 
ENDBRANCH  22  25
ENDBRANCH   4  21
TORSDOF 7
ENDMDL
