MODEL 1
REMARK VINA RESULT:     -10.3      0.000      0.000
REMARK  7 active torsions:
REMARK  status: ('A' for Active; 'I' for Inactive)
REMARK    1  A    between atoms: C_6  and  N_7 
REMARK       I    between atoms: N_7  and  C_8 
REMARK    2  A    between atoms: C_8  and  C_9 
REMARK    3  A    between atoms: C_9  and  O_10 
REMARK    4  A    between atoms: O_10  and  C_11 
REMARK    5  A    between atoms: C_11  and  C_12 
REMARK       I    between atoms: C_12  and  N_13 
REMARK    6  A    between atoms: N_13  and  N_14 
REMARK       I    between atoms: N_14  and  C_15 
REMARK    7  A    between atoms: C_15  and  C_16 
ROOT
HETATM    1  C   UNL     1      24.250  45.789  49.701  1.00  0.00     0.259 C 
HETATM    2  N   UNL     1      24.315  47.164  49.770  1.00  0.00    -0.265 N 
HETATM    3  O   UNL     1      23.210  45.180  49.455  1.00  0.00    -0.269 OA
HETATM    4  H   UNL     1      25.180  47.666  49.974  1.00  0.00     0.190 HD
ENDROOT
BRANCH   1   5
HETATM    5  C   UNL     1      25.565  45.087  50.034  1.00  0.00     0.272 C 
BRANCH   5   6
HETATM    6  O   UNL     1      26.064  45.484  51.313  1.00  0.00    -0.373 OA
BRANCH   6   7
HETATM    7  C   UNL     1      25.331  44.897  52.385  1.00  0.00     0.271 C 
BRANCH   7   8
HETATM    8  C   UNL     1      26.163  44.460  53.599  1.00  0.00     0.245 C 
HETATM    9  N   UNL     1      27.523  44.593  53.381  1.00  0.00    -0.325 N 
HETATM   10  H   UNL     1      27.785  44.862  52.436  1.00  0.00     0.169 HD
HETATM   11  O   UNL     1      25.616  44.084  54.631  1.00  0.00    -0.271 OA
BRANCH   9  12
HETATM   12  C   UNL     1      28.569  44.390  54.303  1.00  0.00     0.036 A 
HETATM   13  C   UNL     1      28.821  45.224  55.394  1.00  0.00     0.053 A 
HETATM   14  C   UNL     1      29.903  44.971  56.247  1.00  0.00     0.042 A 
HETATM   15  C   UNL     1      30.749  43.874  56.032  1.00  0.00    -0.040 A 
HETATM   16 CL   UNL     1      30.165  46.061  57.564  1.00  0.00    -0.084 Cl
HETATM   17  C   UNL     1      31.925  43.588  56.924  1.00  0.00     0.050 C 
HETATM   18  C   UNL     1      30.487  43.036  54.941  1.00  0.00     0.011 A 
HETATM   19  C   UNL     1      29.410  43.293  54.086  1.00  0.00     0.030 A 
ENDBRANCH   9  12
ENDBRANCH   7   8
ENDBRANCH   6   7
ENDBRANCH   5   6
ENDBRANCH   1   5
BRANCH   2  20
HETATM   20  N   UNL     1      23.149  47.907  49.576  1.00  0.00    -0.262 N 
HETATM   21  C   UNL     1      23.242  49.264  49.351  1.00  0.00     0.286 C 
HETATM   22  O   UNL     1      24.328  49.831  49.225  1.00  0.00    -0.264 OA
HETATM   23  H   UNL     1      22.272  47.437  49.779  1.00  0.00     0.190 HD
BRANCH  21  24
HETATM   24  C   UNL     1      21.982  49.969  49.269  1.00  0.00     0.103 A 
HETATM   25  N   UNL     1      20.865  49.528  49.947  1.00  0.00    -0.351 N 
HETATM   26  H   UNL     1      20.853  48.700  50.529  1.00  0.00     0.166 HD
HETATM   27  C   UNL     1      19.793  50.361  49.734  1.00  0.00     0.043 A 
HETATM   28  C   UNL     1      20.228  51.370  48.879  1.00  0.00    -0.007 A 
HETATM   29  C   UNL     1      18.485  50.300  50.229  1.00  0.00     0.030 A 
HETATM   30  C   UNL     1      21.598  51.115  48.591  1.00  0.00     0.049 A 
HETATM   31  C   UNL     1      19.317  52.372  48.493  1.00  0.00     0.014 A 
HETATM   32  C   UNL     1      18.005  52.328  48.978  1.00  0.00     0.001 A 
HETATM   33  C   UNL     1      17.598  51.306  49.833  1.00  0.00     0.002 A 
ENDBRANCH  21  24
ENDBRANCH   2  20
TORSDOF 7
ENDMDL
MODEL 2
REMARK VINA RESULT:      -9.7      3.575     11.683
REMARK  7 active torsions:
REMARK  status: ('A' for Active; 'I' for Inactive)
REMARK    1  A    between atoms: C_6  and  N_7 
REMARK       I    between atoms: N_7  and  C_8 
REMARK    2  A    between atoms: C_8  and  C_9 
REMARK    3  A    between atoms: C_9  and  O_10 
REMARK    4  A    between atoms: O_10  and  C_11 
REMARK    5  A    between atoms: C_11  and  C_12 
REMARK       I    between atoms: C_12  and  N_13 
REMARK    6  A    between atoms: N_13  and  N_14 
REMARK       I    between atoms: N_14  and  C_15 
REMARK    7  A    between atoms: C_15  and  C_16 
ROOT
HETATM    1  C   UNL     1      25.460  47.332  50.245  1.00  0.00     0.259 C 
HETATM    2  N   UNL     1      25.100  46.910  51.507  1.00  0.00    -0.265 N 
HETATM    3  O   UNL     1      26.594  47.186  49.790  1.00  0.00    -0.269 OA
HETATM    4  H   UNL     1      24.159  47.031  51.882  1.00  0.00     0.190 HD
ENDROOT
BRANCH   1   5
HETATM    5  C   UNL     1      24.350  48.064  49.495  1.00  0.00     0.272 C 
BRANCH   5   6
HETATM    6  O   UNL     1      24.710  49.419  49.214  1.00  0.00    -0.373 OA
BRANCH   6   7
HETATM    7  C   UNL     1      23.792  50.047  48.324  1.00  0.00     0.271 C 
BRANCH   7   8
HETATM    8  C   UNL     1      22.476  50.527  48.954  1.00  0.00     0.245 C 
HETATM    9  N   UNL     1      21.424  50.506  48.055  1.00  0.00    -0.325 N 
HETATM   10  H   UNL     1      21.677  50.277  47.098  1.00  0.00     0.169 HD
HETATM   11  O   UNL     1      22.427  50.840  50.139  1.00  0.00    -0.271 OA
BRANCH   9  12
HETATM   12  C   UNL     1      20.065  50.776  48.313  1.00  0.00     0.036 A 
HETATM   13  C   UNL     1      19.053  49.817  48.247  1.00  0.00     0.053 A 
HETATM   14  C   UNL     1      17.719  50.173  48.485  1.00  0.00     0.042 A 
HETATM   15  C   UNL     1      17.372  51.494  48.802  1.00  0.00    -0.040 A 
HETATM   16 CL   UNL     1      16.518  48.935  48.363  1.00  0.00    -0.084 Cl
HETATM   17  C   UNL     1      15.947  51.906  49.049  1.00  0.00     0.050 C 
HETATM   18  C   UNL     1      18.392  52.450  48.875  1.00  0.00     0.011 A 
HETATM   19  C   UNL     1      19.723  52.095  48.630  1.00  0.00     0.030 A 
ENDBRANCH   9  12
ENDBRANCH   7   8
ENDBRANCH   6   7
ENDBRANCH   5   6
ENDBRANCH   1   5
BRANCH   2  20
HETATM   20  N   UNL     1      26.064  46.310  52.320  1.00  0.00    -0.262 N 
HETATM   21  C   UNL     1      26.378  46.887  53.534  1.00  0.00     0.286 C 
HETATM   22  O   UNL     1      25.771  47.867  53.966  1.00  0.00    -0.264 OA
HETATM   23  H   UNL     1      26.613  45.565  51.901  1.00  0.00     0.190 HD
BRANCH  21  24
HETATM   24  C   UNL     1      27.461  46.261  54.258  1.00  0.00     0.103 A 
HETATM   25  N   UNL     1      27.915  45.001  53.927  1.00  0.00    -0.351 N 
HETATM   26  H   UNL     1      27.527  44.444  53.176  1.00  0.00     0.166 HD
HETATM   27  C   UNL     1      28.956  44.618  54.738  1.00  0.00     0.043 A 
HETATM   28  C   UNL     1      29.178  45.662  55.633  1.00  0.00    -0.007 A 
HETATM   29  C   UNL     1      29.714  43.441  54.748  1.00  0.00     0.030 A 
HETATM   30  C   UNL     1      28.235  46.684  55.327  1.00  0.00     0.049 A 
HETATM   31  C   UNL     1      30.203  45.531  56.589  1.00  0.00     0.014 A 
HETATM   32  C   UNL     1      30.971  44.362  56.613  1.00  0.00     0.001 A 
HETATM   33  C   UNL     1      30.728  43.334  55.704  1.00  0.00     0.002 A 
ENDBRANCH  21  24
ENDBRANCH   2  20
TORSDOF 7
ENDMDL
MODEL 3
REMARK VINA RESULT:      -9.6      3.330     11.520
REMARK  7 active torsions:
REMARK  status: ('A' for Active; 'I' for Inactive)
REMARK    1  A    between atoms: C_6  and  N_7 
REMARK       I    between atoms: N_7  and  C_8 
REMARK    2  A    between atoms: C_8  and  C_9 
REMARK    3  A    between atoms: C_9  and  O_10 
REMARK    4  A    between atoms: O_10  and  C_11 
REMARK    5  A    between atoms: C_11  and  C_12 
REMARK       I    between atoms: C_12  and  N_13 
REMARK    6  A    between atoms: N_13  and  N_14 
REMARK       I    between atoms: N_14  and  C_15 
REMARK    7  A    between atoms: C_15  and  C_16 
ROOT
HETATM    1  C   UNL     1      25.685  45.806  50.895  1.00  0.00     0.259 C 
HETATM    2  N   UNL     1      25.508  45.856  52.261  1.00  0.00    -0.265 N 
HETATM    3  O   UNL     1      26.675  45.301  50.367  1.00  0.00    -0.269 OA
HETATM    4  H   UNL     1      24.686  46.274  52.697  1.00  0.00     0.190 HD
ENDROOT
BRANCH   1   5
HETATM    5  C   UNL     1      24.582  46.501  50.100  1.00  0.00     0.272 C 
BRANCH   5   6
HETATM    6  O   UNL     1      24.542  47.904  50.373  1.00  0.00    -0.373 OA
BRANCH   6   7
HETATM    7  C   UNL     1      24.486  48.684  49.182  1.00  0.00     0.271 C 
BRANCH   7   8
HETATM    8  C   UNL     1      23.077  49.056  48.696  1.00  0.00     0.245 C 
HETATM    9  N   UNL     1      22.203  49.286  49.743  1.00  0.00    -0.325 N 
HETATM   10  H   UNL     1      22.574  49.087  50.669  1.00  0.00     0.169 HD
HETATM   11  O   UNL     1      22.835  49.159  47.498  1.00  0.00    -0.271 OA
BRANCH   9  12
HETATM   12  C   UNL     1      20.873  49.746  49.672  1.00  0.00     0.036 A 
HETATM   13  C   UNL     1      19.786  48.942  49.327  1.00  0.00     0.053 A 
HETATM   14  C   UNL     1      18.497  49.485  49.246  1.00  0.00     0.042 A 
HETATM   15  C   UNL     1      18.268  50.841  49.517  1.00  0.00    -0.040 A 
HETATM   16 CL   UNL     1      17.204  48.431  48.790  1.00  0.00    -0.084 Cl
HETATM   17  C   UNL     1      16.898  51.452  49.424  1.00  0.00     0.050 C 
HETATM   18  C   UNL     1      19.361  51.642  49.870  1.00  0.00     0.011 A 
HETATM   19  C   UNL     1      20.649  51.100  49.944  1.00  0.00     0.030 A 
ENDBRANCH   9  12
ENDBRANCH   7   8
ENDBRANCH   6   7
ENDBRANCH   5   6
ENDBRANCH   1   5
BRANCH   2  20
HETATM   20  N   UNL     1      26.502  45.333  53.091  1.00  0.00    -0.262 N 
HETATM   21  C   UNL     1      27.103  46.152  54.025  1.00  0.00     0.286 C 
HETATM   22  O   UNL     1      26.728  47.310  54.213  1.00  0.00    -0.264 OA
HETATM   23  H   UNL     1      26.856  44.411  52.852  1.00  0.00     0.190 HD
BRANCH  21  24
HETATM   24  C   UNL     1      28.194  45.557  54.764  1.00  0.00     0.103 A 
HETATM   25  N   UNL     1      28.624  46.086  55.963  1.00  0.00    -0.351 N 
HETATM   26  H   UNL     1      28.218  46.908  56.392  1.00  0.00     0.166 HD
HETATM   27  C   UNL     1      29.657  45.349  56.490  1.00  0.00     0.043 A 
HETATM   28  C   UNL     1      29.912  44.312  55.596  1.00  0.00    -0.007 A 
HETATM   29  C   UNL     1      30.377  45.516  57.678  1.00  0.00     0.030 A 
HETATM   30  C   UNL     1      28.993  44.453  54.518  1.00  0.00     0.049 A 
HETATM   31  C   UNL     1      30.936  43.394  55.895  1.00  0.00     0.014 A 
HETATM   32  C   UNL     1      31.667  43.545  57.079  1.00  0.00     0.001 A 
HETATM   33  C   UNL     1      31.389  44.592  57.956  1.00  0.00     0.002 A 
ENDBRANCH  21  24
ENDBRANCH   2  20
TORSDOF 7
ENDMDL
MODEL 4
REMARK VINA RESULT:      -9.6      1.875      2.436
REMARK  7 active torsions:
REMARK  status: ('A' for Active; 'I' for Inactive)
REMARK    1  A    between atoms: C_6  and  N_7 
REMARK       I    between atoms: N_7  and  C_8 
REMARK    2  A    between atoms: C_8  and  C_9 
REMARK    3  A    between atoms: C_9  and  O_10 
REMARK    4  A    between atoms: O_10  and  C_11 
REMARK    5  A    between atoms: C_11  and  C_12 
REMARK       I    between atoms: C_12  and  N_13 
REMARK    6  A    between atoms: N_13  and  N_14 
REMARK       I    between atoms: N_14  and  C_15 
REMARK    7  A    between atoms: C_15  and  C_16 
ROOT
HETATM    1  C   UNL     1      22.785  44.427  49.388  1.00  0.00     0.259 C 
HETATM    2  N   UNL     1      23.244  45.726  49.432  1.00  0.00    -0.265 N 
HETATM    3  O   UNL     1      21.605  44.141  49.189  1.00  0.00    -0.269 OA
HETATM    4  H   UNL     1      24.223  45.960  49.596  1.00  0.00     0.190 HD
ENDROOT
BRANCH   1   5
HETATM    5  C   UNL     1      23.856  43.379  49.684  1.00  0.00     0.272 C 
BRANCH   5   6
HETATM    6  O   UNL     1      24.946  43.467  48.765  1.00  0.00    -0.373 OA
BRANCH   6   7
HETATM    7  C   UNL     1      26.157  42.953  49.313  1.00  0.00     0.271 C 
BRANCH   7   8
HETATM    8  C   UNL     1      26.903  43.892  50.273  1.00  0.00     0.245 C 
HETATM    9  N   UNL     1      26.865  43.445  51.582  1.00  0.00    -0.325 N 
HETATM   10  H   UNL     1      26.280  42.628  51.744  1.00  0.00     0.169 HD
HETATM   11  O   UNL     1      27.480  44.889  49.852  1.00  0.00    -0.271 OA
BRANCH   9  12
HETATM   12  C   UNL     1      27.525  43.992  52.700  1.00  0.00     0.036 A 
HETATM   13  C   UNL     1      28.671  43.442  53.277  1.00  0.00     0.053 A 
HETATM   14  C   UNL     1      29.249  44.029  54.410  1.00  0.00     0.042 A 
HETATM   15  C   UNL     1      28.698  45.184  54.983  1.00  0.00    -0.040 A 
HETATM   16 CL   UNL     1      30.654  43.277  55.082  1.00  0.00    -0.084 Cl
HETATM   17  C   UNL     1      29.291  45.827  56.206  1.00  0.00     0.050 C 
HETATM   18  C   UNL     1      27.554  45.737  54.395  1.00  0.00     0.011 A 
HETATM   19  C   UNL     1      26.973  45.146  53.268  1.00  0.00     0.030 A 
ENDBRANCH   9  12
ENDBRANCH   7   8
ENDBRANCH   6   7
ENDBRANCH   5   6
ENDBRANCH   1   5
BRANCH   2  20
HETATM   20  N   UNL     1      22.333  46.771  49.269  1.00  0.00    -0.262 N 
HETATM   21  C   UNL     1      22.799  48.066  49.174  1.00  0.00     0.286 C 
HETATM   22  O   UNL     1      24.003  48.324  49.138  1.00  0.00    -0.264 OA
HETATM   23  H   UNL     1      21.351  46.543  49.397  1.00  0.00     0.190 HD
BRANCH  21  24
HETATM   24  C   UNL     1      21.781  49.091  49.115  1.00  0.00     0.103 A 
HETATM   25  N   UNL     1      20.616  48.991  49.846  1.00  0.00    -0.351 N 
HETATM   26  H   UNL     1      20.400  48.211  50.454  1.00  0.00     0.166 HD
HETATM   27  C   UNL     1      19.808  50.084  49.646  1.00  0.00     0.043 A 
HETATM   28  C   UNL     1      20.468  50.916  48.745  1.00  0.00    -0.007 A 
HETATM   29  C   UNL     1      18.557  50.399  50.188  1.00  0.00     0.030 A 
HETATM   30  C   UNL     1      21.700  50.285  48.417  1.00  0.00     0.049 A 
HETATM   31  C   UNL     1      19.854  52.124  48.361  1.00  0.00     0.014 A 
HETATM   32  C   UNL     1      18.603  52.455  48.894  1.00  0.00     0.001 A 
HETATM   33  C   UNL     1      17.966  51.604  49.794  1.00  0.00     0.002 A 
ENDBRANCH  21  24
ENDBRANCH   2  20
TORSDOF 7
ENDMDL
MODEL 5
REMARK VINA RESULT:      -9.1      1.254      1.594
REMARK  7 active torsions:
REMARK  status: ('A' for Active; 'I' for Inactive)
REMARK    1  A    between atoms: C_6  and  N_7 
REMARK       I    between atoms: N_7  and  C_8 
REMARK    2  A    between atoms: C_8  and  C_9 
REMARK    3  A    between atoms: C_9  and  O_10 
REMARK    4  A    between atoms: O_10  and  C_11 
REMARK    5  A    between atoms: C_11  and  C_12 
REMARK       I    between atoms: C_12  and  N_13 
REMARK    6  A    between atoms: N_13  and  N_14 
REMARK       I    between atoms: N_14  and  C_15 
REMARK    7  A    between atoms: C_15  and  C_16 
ROOT
HETATM    1  C   UNL     1      23.430  47.050  49.477  1.00  0.00     0.259 C 
HETATM    2  N   UNL     1      23.171  48.357  49.831  1.00  0.00    -0.265 N 
HETATM    3  O   UNL     1      22.596  46.325  48.937  1.00  0.00    -0.269 OA
HETATM    4  H   UNL     1      23.866  48.956  50.277  1.00  0.00     0.190 HD
ENDROOT
BRANCH   1   5
HETATM    5  C   UNL     1      24.818  46.559  49.886  1.00  0.00     0.272 C 
BRANCH   5   6
HETATM    6  O   UNL     1      24.741  45.462  50.798  1.00  0.00    -0.373 OA
BRANCH   6   7
HETATM    7  C   UNL     1      25.086  45.841  52.128  1.00  0.00     0.271 C 
BRANCH   7   8
HETATM    8  C   UNL     1      26.083  44.919  52.845  1.00  0.00     0.245 C 
HETATM    9  N   UNL     1      27.158  45.613  53.370  1.00  0.00    -0.325 N 
HETATM   10  H   UNL     1      27.193  46.601  53.132  1.00  0.00     0.169 HD
HETATM   11  O   UNL     1      25.867  43.715  52.937  1.00  0.00    -0.271 OA
BRANCH   9  12
HETATM   12  C   UNL     1      28.200  45.110  54.174  1.00  0.00     0.036 A 
HETATM   13  C   UNL     1      28.638  45.715  55.353  1.00  0.00     0.053 A 
HETATM   14  C   UNL     1      29.704  45.169  56.079  1.00  0.00     0.042 A 
HETATM   15  C   UNL     1      30.347  44.001  55.646  1.00  0.00    -0.040 A 
HETATM   16 CL   UNL     1      30.205  45.987  57.518  1.00  0.00    -0.084 Cl
HETATM   17  C   UNL     1      31.502  43.401  56.399  1.00  0.00     0.050 C 
HETATM   18  C   UNL     1      29.899  43.393  54.467  1.00  0.00     0.011 A 
HETATM   19  C   UNL     1      28.838  43.944  53.739  1.00  0.00     0.030 A 
ENDBRANCH   9  12
ENDBRANCH   7   8
ENDBRANCH   6   7
ENDBRANCH   5   6
ENDBRANCH   1   5
BRANCH   2  20
HETATM   20  N   UNL     1      21.901  48.883  49.590  1.00  0.00    -0.262 N 
HETATM   21  C   UNL     1      21.700  50.243  49.704  1.00  0.00     0.286 C 
HETATM   22  O   UNL     1      22.627  51.022  49.923  1.00  0.00    -0.264 OA
HETATM   23  H   UNL     1      21.140  48.214  49.507  1.00  0.00     0.190 HD
BRANCH  21  24
HETATM   24  C   UNL     1      20.332  50.685  49.544  1.00  0.00     0.103 A 
HETATM   25  N   UNL     1      19.398  49.913  48.885  1.00  0.00    -0.351 N 
HETATM   26  H   UNL     1      19.604  49.010  48.476  1.00  0.00     0.166 HD
HETATM   27  C   UNL     1      18.168  50.525  48.869  1.00  0.00     0.043 A 
HETATM   28  C   UNL     1      18.313  51.741  49.533  1.00  0.00    -0.007 A 
HETATM   29  C   UNL     1      16.950  50.100  48.327  1.00  0.00     0.030 A 
HETATM   30  C   UNL     1      19.671  51.833  49.948  1.00  0.00     0.049 A 
HETATM   31  C   UNL     1      17.190  52.581  49.663  1.00  0.00     0.014 A 
HETATM   32  C   UNL     1      15.964  52.172  49.127  1.00  0.00     0.001 A 
HETATM   33  C   UNL     1      15.848  50.950  48.470  1.00  0.00     0.002 A 
ENDBRANCH  21  24
ENDBRANCH   2  20
TORSDOF 7
ENDMDL
MODEL 6
REMARK VINA RESULT:      -9.1      3.317     11.360
REMARK  7 active torsions:
REMARK  status: ('A' for Active; 'I' for Inactive)
REMARK    1  A    between atoms: C_6  and  N_7 
REMARK       I    between atoms: N_7  and  C_8 
REMARK    2  A    between atoms: C_8  and  C_9 
REMARK    3  A    between atoms: C_9  and  O_10 
REMARK    4  A    between atoms: O_10  and  C_11 
REMARK    5  A    between atoms: C_11  and  C_12 
REMARK       I    between atoms: C_12  and  N_13 
REMARK    6  A    between atoms: N_13  and  N_14 
REMARK       I    between atoms: N_14  and  C_15 
REMARK    7  A    between atoms: C_15  and  C_16 
ROOT
HETATM    1  C   UNL     1      24.635  43.583  51.414  1.00  0.00     0.259 C 
HETATM    2  N   UNL     1      25.727  42.765  51.609  1.00  0.00    -0.265 N 
HETATM    3  O   UNL     1      24.381  44.544  52.139  1.00  0.00    -0.269 OA
HETATM    4  H   UNL     1      25.936  41.970  51.005  1.00  0.00     0.190 HD
ENDROOT
BRANCH   1   5
HETATM    5  C   UNL     1      23.726  43.143  50.268  1.00  0.00     0.272 C 
BRANCH   5   6
HETATM    6  O   UNL     1      22.835  44.188  49.872  1.00  0.00    -0.373 OA
BRANCH   6   7
HETATM    7  C   UNL     1      23.377  44.995  48.831  1.00  0.00     0.271 C 
BRANCH   7   8
HETATM    8  C   UNL     1      22.393  45.962  48.157  1.00  0.00     0.245 C 
HETATM    9  N   UNL     1      21.600  46.628  49.074  1.00  0.00    -0.325 N 
HETATM   10  H   UNL     1      21.704  46.324  50.039  1.00  0.00     0.169 HD
HETATM   11  O   UNL     1      22.392  46.106  46.939  1.00  0.00    -0.271 OA
BRANCH   9  12
HETATM   12  C   UNL     1      20.669  47.657  48.823  1.00  0.00     0.036 A 
HETATM   13  C   UNL     1      21.000  49.011  48.762  1.00  0.00     0.053 A 
HETATM   14  C   UNL     1      20.009  49.976  48.540  1.00  0.00     0.042 A 
HETATM   15  C   UNL     1      18.668  49.605  48.365  1.00  0.00    -0.040 A 
HETATM   16 CL   UNL     1      20.492  51.636  48.501  1.00  0.00    -0.084 Cl
HETATM   17  C   UNL     1      17.583  50.620  48.139  1.00  0.00     0.050 C 
HETATM   18  C   UNL     1      18.343  48.244  48.419  1.00  0.00     0.011 A 
HETATM   19  C   UNL     1      19.333  47.281  48.647  1.00  0.00     0.030 A 
ENDBRANCH   9  12
ENDBRANCH   7   8
ENDBRANCH   6   7
ENDBRANCH   5   6
ENDBRANCH   1   5
BRANCH   2  20
HETATM   20  N   UNL     1      26.577  43.018  52.688  1.00  0.00    -0.262 N 
HETATM   21  C   UNL     1      27.779  43.657  52.466  1.00  0.00     0.286 C 
HETATM   22  O   UNL     1      28.090  44.095  51.358  1.00  0.00    -0.264 OA
HETATM   23  H   UNL     1      26.343  42.565  53.566  1.00  0.00     0.190 HD
BRANCH  21  24
HETATM   24  C   UNL     1      28.641  43.779  53.621  1.00  0.00     0.103 A 
HETATM   25  N   UNL     1      28.564  44.869  54.464  1.00  0.00    -0.351 N 
HETATM   26  H   UNL     1      27.920  45.637  54.331  1.00  0.00     0.166 HD
HETATM   27  C   UNL     1      29.464  44.761  55.497  1.00  0.00     0.043 A 
HETATM   28  C   UNL     1      30.154  43.567  55.311  1.00  0.00    -0.007 A 
HETATM   29  C   UNL     1      29.716  45.621  56.573  1.00  0.00     0.030 A 
HETATM   30  C   UNL     1      29.634  42.961  54.133  1.00  0.00     0.049 A 
HETATM   31  C   UNL     1      31.149  43.205  56.240  1.00  0.00     0.014 A 
HETATM   32  C   UNL     1      31.415  44.052  57.323  1.00  0.00     0.001 A 
HETATM   33  C   UNL     1      30.707  45.241  57.484  1.00  0.00     0.002 A 
ENDBRANCH  21  24
ENDBRANCH   2  20
TORSDOF 7
ENDMDL
MODEL 7
REMARK VINA RESULT:      -8.8      4.287      8.356
REMARK  7 active torsions:
REMARK  status: ('A' for Active; 'I' for Inactive)
REMARK    1  A    between atoms: C_6  and  N_7 
REMARK       I    between atoms: N_7  and  C_8 
REMARK    2  A    between atoms: C_8  and  C_9 
REMARK    3  A    between atoms: C_9  and  O_10 
REMARK    4  A    between atoms: O_10  and  C_11 
REMARK    5  A    between atoms: C_11  and  C_12 
REMARK       I    between atoms: C_12  and  N_13 
REMARK    6  A    between atoms: N_13  and  N_14 
REMARK       I    between atoms: N_14  and  C_15 
REMARK    7  A    between atoms: C_15  and  C_16 
ROOT
HETATM    1  C   UNL     1      25.204  45.810  50.434  1.00  0.00     0.259 C 
HETATM    2  N   UNL     1      26.465  45.467  49.995  1.00  0.00    -0.265 N 
HETATM    3  O   UNL     1      24.256  45.026  50.424  1.00  0.00    -0.269 OA
HETATM    4  H   UNL     1      27.250  46.118  50.006  1.00  0.00     0.190 HD
ENDROOT
BRANCH   1   5
HETATM    5  C   UNL     1      25.072  47.270  50.862  1.00  0.00     0.272 C 
BRANCH   5   6
HETATM    6  O   UNL     1      25.752  47.522  52.093  1.00  0.00    -0.373 OA
BRANCH   6   7
HETATM    7  C   UNL     1      25.630  46.437  53.009  1.00  0.00     0.271 C 
BRANCH   7   8
HETATM    8  C   UNL     1      26.697  46.373  54.111  1.00  0.00     0.245 C 
HETATM    9  N   UNL     1      27.410  45.189  54.085  1.00  0.00    -0.325 N 
HETATM   10  H   UNL     1      27.076  44.496  53.420  1.00  0.00     0.169 HD
HETATM   11  O   UNL     1      26.869  47.321  54.871  1.00  0.00    -0.271 OA
BRANCH   9  12
HETATM   12  C   UNL     1      28.524  44.835  54.874  1.00  0.00     0.036 A 
HETATM   13  C   UNL     1      28.977  45.580  55.964  1.00  0.00     0.053 A 
HETATM   14  C   UNL     1      30.113  45.178  56.677  1.00  0.00     0.042 A 
HETATM   15  C   UNL     1      30.814  44.017  56.320  1.00  0.00    -0.040 A 
HETATM   16 CL   UNL     1      30.628  46.164  58.001  1.00  0.00    -0.084 Cl
HETATM   17  C   UNL     1      32.044  43.570  57.060  1.00  0.00     0.050 C 
HETATM   18  C   UNL     1      30.351  43.269  55.231  1.00  0.00     0.011 A 
HETATM   19  C   UNL     1      29.219  43.675  54.515  1.00  0.00     0.030 A 
ENDBRANCH   9  12
ENDBRANCH   7   8
ENDBRANCH   6   7
ENDBRANCH   5   6
ENDBRANCH   1   5
BRANCH   2  20
HETATM   20  N   UNL     1      26.679  44.182  49.492  1.00  0.00    -0.262 N 
HETATM   21  C   UNL     1      27.246  43.223  50.306  1.00  0.00     0.286 C 
HETATM   22  O   UNL     1      27.488  43.437  51.494  1.00  0.00    -0.264 OA
HETATM   23  H   UNL     1      26.562  44.060  48.490  1.00  0.00     0.190 HD
BRANCH  21  24
HETATM   24  C   UNL     1      27.530  41.956  49.671  1.00  0.00     0.103 A 
HETATM   25  N   UNL     1      28.304  40.997  50.291  1.00  0.00    -0.351 N 
HETATM   26  H   UNL     1      28.718  41.116  51.207  1.00  0.00     0.166 HD
HETATM   27  C   UNL     1      28.425  39.874  49.508  1.00  0.00     0.043 A 
HETATM   28  C   UNL     1      27.713  40.117  48.336  1.00  0.00    -0.007 A 
HETATM   29  C   UNL     1      29.101  38.671  49.746  1.00  0.00     0.030 A 
HETATM   30  C   UNL     1      27.160  41.424  48.446  1.00  0.00     0.049 A 
HETATM   31  C   UNL     1      27.671  39.117  47.347  1.00  0.00     0.014 A 
HETATM   32  C   UNL     1      28.341  37.907  47.567  1.00  0.00     0.001 A 
HETATM   33  C   UNL     1      29.044  37.691  48.750  1.00  0.00     0.002 A 
ENDBRANCH  21  24
ENDBRANCH   2  20
TORSDOF 7
ENDMDL
MODEL 8
REMARK VINA RESULT:      -8.7      3.716     11.135
REMARK  7 active torsions:
REMARK  status: ('A' for Active; 'I' for Inactive)
REMARK    1  A    between atoms: C_6  and  N_7 
REMARK       I    between atoms: N_7  and  C_8 
REMARK    2  A    between atoms: C_8  and  C_9 
REMARK    3  A    between atoms: C_9  and  O_10 
REMARK    4  A    between atoms: O_10  and  C_11 
REMARK    5  A    between atoms: C_11  and  C_12 
REMARK       I    between atoms: C_12  and  N_13 
REMARK    6  A    between atoms: N_13  and  N_14 
REMARK       I    between atoms: N_14  and  C_15 
REMARK    7  A    between atoms: C_15  and  C_16 
ROOT
HETATM    1  C   UNL     1      24.372  43.905  51.064  1.00  0.00     0.259 C 
HETATM    2  N   UNL     1      25.172  42.997  51.724  1.00  0.00    -0.265 N 
HETATM    3  O   UNL     1      24.382  45.110  51.314  1.00  0.00    -0.269 OA
HETATM    4  H   UNL     1      25.164  41.999  51.515  1.00  0.00     0.190 HD
ENDROOT
BRANCH   1   5
HETATM    5  C   UNL     1      23.420  43.273  50.052  1.00  0.00     0.272 C 
BRANCH   5   6
HETATM    6  O   UNL     1      23.443  43.967  48.803  1.00  0.00    -0.373 OA
BRANCH   6   7
HETATM    7  C   UNL     1      22.165  43.987  48.173  1.00  0.00     0.271 C 
BRANCH   7   8
HETATM    8  C   UNL     1      21.295  45.217  48.472  1.00  0.00     0.245 C 
HETATM    9  N   UNL     1      21.930  46.402  48.148  1.00  0.00    -0.325 N 
HETATM   10  H   UNL     1      22.900  46.308  47.855  1.00  0.00     0.169 HD
HETATM   11  O   UNL     1      20.157  45.087  48.912  1.00  0.00    -0.271 OA
BRANCH   9  12
HETATM   12  C   UNL     1      21.397  47.706  48.189  1.00  0.00     0.036 A 
HETATM   13  C   UNL     1      20.413  48.175  47.317  1.00  0.00     0.053 A 
HETATM   14  C   UNL     1      19.958  49.497  47.403  1.00  0.00     0.042 A 
HETATM   15  C   UNL     1      20.472  50.375  48.368  1.00  0.00    -0.040 A 
HETATM   16 CL   UNL     1      18.753  50.012  46.274  1.00  0.00    -0.084 Cl
HETATM   17  C   UNL     1      20.012  51.802  48.473  1.00  0.00     0.050 C 
HETATM   18  C   UNL     1      21.454  49.897  49.245  1.00  0.00     0.011 A 
HETATM   19  C   UNL     1      21.912  48.578  49.154  1.00  0.00     0.030 A 
ENDBRANCH   9  12
ENDBRANCH   7   8
ENDBRANCH   6   7
ENDBRANCH   5   6
ENDBRANCH   1   5
BRANCH   2  20
HETATM   20  N   UNL     1      26.017  43.452  52.739  1.00  0.00    -0.262 N 
HETATM   21  C   UNL     1      27.373  43.541  52.500  1.00  0.00     0.286 C 
HETATM   22  O   UNL     1      27.855  43.317  51.390  1.00  0.00    -0.264 OA
HETATM   23  H   UNL     1      25.610  43.537  53.666  1.00  0.00     0.190 HD
BRANCH  21  24
HETATM   24  C   UNL     1      28.181  43.917  53.639  1.00  0.00     0.103 A 
HETATM   25  N   UNL     1      29.204  43.111  54.093  1.00  0.00    -0.351 N 
HETATM   26  H   UNL     1      29.447  42.223  53.674  1.00  0.00     0.166 HD
HETATM   27  C   UNL     1      29.841  43.677  55.171  1.00  0.00     0.043 A 
HETATM   28  C   UNL     1      29.202  44.887  55.430  1.00  0.00    -0.007 A 
HETATM   29  C   UNL     1      30.924  43.217  55.929  1.00  0.00     0.030 A 
HETATM   30  C   UNL     1      28.163  45.027  54.468  1.00  0.00     0.049 A 
HETATM   31  C   UNL     1      29.661  45.682  56.498  1.00  0.00     0.014 A 
HETATM   32  C   UNL     1      30.744  45.238  57.266  1.00  0.00     0.001 A 
HETATM   33  C   UNL     1      31.364  44.024  56.983  1.00  0.00     0.002 A 
ENDBRANCH  21  24
ENDBRANCH   2  20
TORSDOF 7
ENDMDL
MODEL 9
REMARK VINA RESULT:      -8.4      1.925      2.878
REMARK  7 active torsions:
REMARK  status: ('A' for Active; 'I' for Inactive)
REMARK    1  A    between atoms: C_6  and  N_7 
REMARK       I    between atoms: N_7  and  C_8 
REMARK    2  A    between atoms: C_8  and  C_9 
REMARK    3  A    between atoms: C_9  and  O_10 
REMARK    4  A    between atoms: O_10  and  C_11 
REMARK    5  A    between atoms: C_11  and  C_12 
REMARK       I    between atoms: C_12  and  N_13 
REMARK    6  A    between atoms: N_13  and  N_14 
REMARK       I    between atoms: N_14  and  C_15 
REMARK    7  A    between atoms: C_15  and  C_16 
ROOT
HETATM    1  C   UNL     1      23.700  48.691  48.942  1.00  0.00     0.259 C 
HETATM    2  N   UNL     1      22.581  48.657  49.746  1.00  0.00    -0.265 N 
HETATM    3  O   UNL     1      23.708  49.214  47.829  1.00  0.00    -0.269 OA
HETATM    4  H   UNL     1      22.577  48.223  50.669  1.00  0.00     0.190 HD
ENDROOT
BRANCH   1   5
HETATM    5  C   UNL     1      24.905  47.954  49.524  1.00  0.00     0.272 C 
BRANCH   5   6
HETATM    6  O   UNL     1      24.683  46.543  49.578  1.00  0.00    -0.373 OA
BRANCH   6   7
HETATM    7  C   UNL     1      24.501  46.076  50.912  1.00  0.00     0.271 C 
BRANCH   7   8
HETATM    8  C   UNL     1      25.711  46.239  51.844  1.00  0.00     0.245 C 
HETATM    9  N   UNL     1      26.108  45.038  52.405  1.00  0.00    -0.325 N 
HETATM   10  H   UNL     1      25.501  44.246  52.208  1.00  0.00     0.169 HD
HETATM   11  O   UNL     1      26.241  47.335  51.997  1.00  0.00    -0.271 OA
BRANCH   9  12
HETATM   12  C   UNL     1      27.235  44.796  53.216  1.00  0.00     0.036 A 
HETATM   13  C   UNL     1      28.265  43.917  52.878  1.00  0.00     0.053 A 
HETATM   14  C   UNL     1      29.336  43.706  53.756  1.00  0.00     0.042 A 
HETATM   15  C   UNL     1      29.404  44.378  54.985  1.00  0.00    -0.040 A 
HETATM   16 CL   UNL     1      30.564  42.585  53.279  1.00  0.00    -0.084 Cl
HETATM   17  C   UNL     1      30.535  44.161  55.951  1.00  0.00     0.050 C 
HETATM   18  C   UNL     1      28.372  45.265  55.315  1.00  0.00     0.011 A 
HETATM   19  C   UNL     1      27.299  45.469  54.440  1.00  0.00     0.030 A 
ENDBRANCH   9  12
ENDBRANCH   7   8
ENDBRANCH   6   7
ENDBRANCH   5   6
ENDBRANCH   1   5
BRANCH   2  20
HETATM   20  N   UNL     1      21.392  49.218  49.274  1.00  0.00    -0.262 N 
HETATM   21  C   UNL     1      21.044  50.493  49.670  1.00  0.00     0.286 C 
HETATM   22  O   UNL     1      21.791  51.190  50.356  1.00  0.00    -0.264 OA
HETATM   23  H   UNL     1      20.754  48.592  48.792  1.00  0.00     0.190 HD
BRANCH  21  24
HETATM   24  C   UNL     1      19.748  50.951  49.221  1.00  0.00     0.103 A 
HETATM   25  N   UNL     1      18.789  51.386  50.112  1.00  0.00    -0.351 N 
HETATM   26  H   UNL     1      18.924  51.408  51.115  1.00  0.00     0.166 HD
HETATM   27  C   UNL     1      17.648  51.786  49.459  1.00  0.00     0.043 A 
HETATM   28  C   UNL     1      17.871  51.593  48.098  1.00  0.00    -0.007 A 
HETATM   29  C   UNL     1      16.448  52.300  49.963  1.00  0.00     0.030 A 
HETATM   30  C   UNL     1      19.187  51.068  47.959  1.00  0.00     0.049 A 
HETATM   31  C   UNL     1      16.850  51.927  47.189  1.00  0.00     0.014 A 
HETATM   32  C   UNL     1      15.643  52.443  47.674  1.00  0.00     0.001 A 
HETATM   33  C   UNL     1      15.448  52.626  49.041  1.00  0.00     0.002 A 
ENDBRANCH  21  24
ENDBRANCH   2  20
TORSDOF 7
ENDMDL
MODEL 10
REMARK VINA RESULT:      -8.3      3.760     11.896
REMARK  7 active torsions:
REMARK  status: ('A' for Active; 'I' for Inactive)
REMARK    1  A    between atoms: C_6  and  N_7 
REMARK       I    between atoms: N_7  and  C_8 
REMARK    2  A    between atoms: C_8  and  C_9 
REMARK    3  A    between atoms: C_9  and  O_10 
REMARK    4  A    between atoms: O_10  and  C_11 
REMARK    5  A    between atoms: C_11  and  C_12 
REMARK       I    between atoms: C_12  and  N_13 
REMARK    6  A    between atoms: N_13  and  N_14 
REMARK       I    between atoms: N_14  and  C_15 
REMARK    7  A    between atoms: C_15  and  C_16 
ROOT
HETATM    1  C   UNL     1      24.539  48.217  49.971  1.00  0.00     0.259 C 
HETATM    2  N   UNL     1      24.330  47.143  50.808  1.00  0.00    -0.265 N 
HETATM    3  O   UNL     1      25.658  48.659  49.716  1.00  0.00    -0.269 OA
HETATM    4  H   UNL     1      23.401  46.777  51.017  1.00  0.00     0.190 HD
ENDROOT
BRANCH   1   5
HETATM    5  C   UNL     1      23.254  48.858  49.451  1.00  0.00     0.272 C 
BRANCH   5   6
HETATM    6  O   UNL     1      23.266  50.276  49.621  1.00  0.00    -0.373 OA
BRANCH   6   7
HETATM    7  C   UNL     1      22.563  50.951  48.581  1.00  0.00     0.271 C 
BRANCH   7   8
HETATM    8  C   UNL     1      21.031  50.902  48.674  1.00  0.00     0.245 C 
HETATM    9  N   UNL     1      20.450  50.394  47.526  1.00  0.00    -0.325 N 
HETATM   10  H   UNL     1      21.092  50.218  46.757  1.00  0.00     0.169 HD
HETATM   11  O   UNL     1      20.454  51.253  49.698  1.00  0.00    -0.271 OA
BRANCH   9  12
HETATM   12  C   UNL     1      19.088  50.109  47.302  1.00  0.00     0.036 A 
HETATM   13  C   UNL     1      18.381  49.106  47.967  1.00  0.00     0.053 A 
HETATM   14  C   UNL     1      17.035  48.864  47.662  1.00  0.00     0.042 A 
HETATM   15  C   UNL     1      16.367  49.626  46.693  1.00  0.00    -0.040 A 
HETATM   16 CL   UNL     1      16.231  47.589  48.511  1.00  0.00    -0.084 Cl
HETATM   17  C   UNL     1      14.928  49.378  46.337  1.00  0.00     0.050 C 
HETATM   18  C   UNL     1      17.079  50.636  46.035  1.00  0.00     0.011 A 
HETATM   19  C   UNL     1      18.425  50.873  46.335  1.00  0.00     0.030 A 
ENDBRANCH   9  12
ENDBRANCH   7   8
ENDBRANCH   6   7
ENDBRANCH   5   6
ENDBRANCH   1   5
BRANCH   2  20
HETATM   20  N   UNL     1      25.431  46.537  51.418  1.00  0.00    -0.262 N 
HETATM   21  C   UNL     1      25.264  45.334  52.073  1.00  0.00     0.286 C 
HETATM   22  O   UNL     1      24.192  44.730  52.062  1.00  0.00    -0.264 OA
HETATM   23  H   UNL     1      26.275  47.098  51.494  1.00  0.00     0.190 HD
BRANCH  21  24
HETATM   24  C   UNL     1      26.431  44.835  52.765  1.00  0.00     0.103 A 
HETATM   25  N   UNL     1      27.098  45.603  53.697  1.00  0.00    -0.351 N 
HETATM   26  H   UNL     1      26.824  46.544  53.949  1.00  0.00     0.166 HD
HETATM   27  C   UNL     1      28.163  44.919  54.234  1.00  0.00     0.043 A 
HETATM   28  C   UNL     1      28.193  43.670  53.620  1.00  0.00    -0.007 A 
HETATM   29  C   UNL     1      29.091  45.306  55.207  1.00  0.00     0.030 A 
HETATM   30  C   UNL     1      27.108  43.628  52.701  1.00  0.00     0.049 A 
HETATM   31  C   UNL     1      29.198  42.756  53.990  1.00  0.00     0.014 A 
HETATM   32  C   UNL     1      30.135  43.125  54.963  1.00  0.00     0.001 A 
HETATM   33  C   UNL     1      30.079  44.382  55.561  1.00  0.00     0.002 A 
ENDBRANCH  21  24
ENDBRANCH   2  20
TORSDOF 7
ENDMDL
