MODEL 1
REMARK VINA RESULT:     -10.0      0.000      0.000
REMARK  8 active torsions:
REMARK  status: ('A' for Active; 'I' for Inactive)
REMARK    1  A    between atoms: C_2  and  N_3 
REMARK    2  A    between atoms: C_2  and  C_26 
REMARK       I    between atoms: N_3  and  C_4 
REMARK    3  A    between atoms: C_4  and  C_5 
REMARK    4  A    between atoms: C_5  and  S_6 
REMARK    5  A    between atoms: S_6  and  C_7 
REMARK    6  A    between atoms: C_10  and  C_11 
REMARK    7  A    between atoms: C_11  and  O_12 
REMARK    8  A    between atoms: O_12  and  C_13 
ROOT
HETATM    1  C   UNL     1      24.396  42.839  50.643  1.00  0.00     0.191 A 
HETATM    2  N   UNL     1      25.617  42.230  50.566  1.00  0.00    -0.314 N 
HETATM    3  C   UNL     1      26.126  41.388  49.514  1.00  0.00     0.160 C 
HETATM    4  C   UNL     1      26.301  42.633  51.693  1.00  0.00     0.154 A 
HETATM    5  N   UNL     1      25.509  43.401  52.419  1.00  0.00    -0.132 NA
HETATM    6  N   UNL     1      24.317  43.536  51.753  1.00  0.00    -0.123 NA
ENDROOT
BRANCH   1   7
HETATM    7  S   UNL     1      23.184  42.733  49.417  1.00  0.00    -0.081 SA
BRANCH   7   8
HETATM    8  C   UNL     1      23.707  44.046  48.280  1.00  0.00     0.185 C 
BRANCH   8   9
HETATM    9  C   UNL     1      23.562  45.407  48.936  1.00  0.00     0.227 C 
HETATM   10  N   UNL     1      24.682  45.831  49.615  1.00  0.00    -0.352 N 
HETATM   11  H   UNL     1      25.359  45.117  49.879  1.00  0.00     0.163 HD
HETATM   12  O   UNL     1      22.530  46.069  48.854  1.00  0.00    -0.273 OA
BRANCH  10  13
HETATM   13  C   UNL     1      24.689  47.057  50.392  1.00  0.00     0.113 C 
HETATM   14  C   UNL     1      25.326  46.837  51.765  1.00  0.00     0.037 C 
BRANCH  13  15
HETATM   15  C   UNL     1      25.382  48.160  49.612  1.00  0.00    -0.036 A 
HETATM   16  C   UNL     1      26.775  48.316  49.711  1.00  0.00     0.009 A 
HETATM   17  C   UNL     1      27.431  49.327  49.007  1.00  0.00     0.001 A 
HETATM   18  C   UNL     1      26.706  50.199  48.199  1.00  0.00     0.000 A 
HETATM   19  C   UNL     1      25.323  50.063  48.096  1.00  0.00     0.001 A 
HETATM   20  C   UNL     1      24.663  49.052  48.799  1.00  0.00     0.009 A 
ENDBRANCH  13  15
ENDBRANCH  10  13
ENDBRANCH   8   9
ENDBRANCH   7   8
ENDBRANCH   1   7
BRANCH   4  21
HETATM   21  C   UNL     1      27.725  42.303  51.984  1.00  0.00     0.256 C 
BRANCH  21  22
HETATM   22  O   UNL     1      28.424  43.538  52.114  1.00  0.00    -0.344 OA
BRANCH  22  23
HETATM   23  C   UNL     1      28.953  43.827  53.342  1.00  0.00     0.069 A 
HETATM   24  C   UNL     1      28.497  44.806  54.228  1.00  0.00     0.044 A 
HETATM   25  C   UNL     1      29.138  45.013  55.463  1.00  0.00    -0.049 A 
HETATM   26  C   UNL     1      30.261  44.239  55.803  1.00  0.00    -0.052 A 
HETATM   27  C   UNL     1      28.642  46.115  56.369  1.00  0.00     0.039 C 
HETATM   28  C   UNL     1      30.962  44.401  57.130  1.00  0.00     0.039 C 
HETATM   29  C   UNL     1      30.704  43.250  54.915  1.00  0.00     0.010 A 
HETATM   30  C   UNL     1      30.652  45.730  57.816  1.00  0.00     0.005 C 
HETATM   31  C   UNL     1      29.152  45.997  57.804  1.00  0.00     0.005 C 
HETATM   32  C   UNL     1      30.057  43.052  53.695  1.00  0.00     0.037 A 
ENDBRANCH  22  23
ENDBRANCH  21  22
ENDBRANCH   4  21
TORSDOF 8
ENDMDL
MODEL 2
REMARK VINA RESULT:     -10.0      3.455      4.459
REMARK  8 active torsions:
REMARK  status: ('A' for Active; 'I' for Inactive)
REMARK    1  A    between atoms: C_2  and  N_3 
REMARK    2  A    between atoms: C_2  and  C_26 
REMARK       I    between atoms: N_3  and  C_4 
REMARK    3  A    between atoms: C_4  and  C_5 
REMARK    4  A    between atoms: C_5  and  S_6 
REMARK    5  A    between atoms: S_6  and  C_7 
REMARK    6  A    between atoms: C_10  and  C_11 
REMARK    7  A    between atoms: C_11  and  O_12 
REMARK    8  A    between atoms: O_12  and  C_13 
ROOT
HETATM    1  C   UNL     1      24.722  46.570  50.793  1.00  0.00     0.191 A 
HETATM    2  N   UNL     1      25.014  45.303  51.212  1.00  0.00    -0.314 N 
HETATM    3  C   UNL     1      24.571  44.055  50.645  1.00  0.00     0.160 C 
HETATM    4  C   UNL     1      25.880  45.455  52.273  1.00  0.00     0.154 A 
HETATM    5  N   UNL     1      26.053  46.746  52.498  1.00  0.00    -0.132 NA
HETATM    6  N   UNL     1      25.332  47.443  51.563  1.00  0.00    -0.123 NA
ENDROOT
BRANCH   1   7
HETATM    7  S   UNL     1      23.741  46.932  49.419  1.00  0.00    -0.081 SA
BRANCH   7   8
HETATM    8  C   UNL     1      24.188  48.662  49.103  1.00  0.00     0.185 C 
BRANCH   8   9
HETATM    9  C   UNL     1      23.183  49.310  48.169  1.00  0.00     0.227 C 
HETATM   10  N   UNL     1      21.873  48.974  48.427  1.00  0.00    -0.352 N 
HETATM   11  H   UNL     1      21.712  48.130  48.974  1.00  0.00     0.163 HD
HETATM   12  O   UNL     1      23.521  50.075  47.269  1.00  0.00    -0.273 OA
BRANCH  10  13
HETATM   13  C   UNL     1      20.787  49.413  47.569  1.00  0.00     0.113 C 
HETATM   14  C   UNL     1      20.043  48.220  46.965  1.00  0.00     0.037 C 
BRANCH  13  15
HETATM   15  C   UNL     1      19.858  50.333  48.341  1.00  0.00    -0.036 A 
HETATM   16  C   UNL     1      19.700  51.668  47.931  1.00  0.00     0.009 A 
HETATM   17  C   UNL     1      18.856  52.533  48.630  1.00  0.00     0.001 A 
HETATM   18  C   UNL     1      18.162  52.079  49.748  1.00  0.00     0.000 A 
HETATM   19  C   UNL     1      18.313  50.760  50.172  1.00  0.00     0.001 A 
HETATM   20  C   UNL     1      19.157  49.892  49.475  1.00  0.00     0.009 A 
ENDBRANCH  13  15
ENDBRANCH  10  13
ENDBRANCH   8   9
ENDBRANCH   7   8
ENDBRANCH   1   7
BRANCH   4  21
HETATM   21  C   UNL     1      26.556  44.334  52.985  1.00  0.00     0.256 C 
BRANCH  21  22
HETATM   22  O   UNL     1      27.958  44.496  52.789  1.00  0.00    -0.344 OA
BRANCH  22  23
HETATM   23  C   UNL     1      28.761  44.346  53.887  1.00  0.00     0.069 A 
HETATM   24  C   UNL     1      28.793  45.180  55.006  1.00  0.00     0.044 A 
HETATM   25  C   UNL     1      29.678  44.923  56.070  1.00  0.00    -0.049 A 
HETATM   26  C   UNL     1      30.550  43.823  55.999  1.00  0.00    -0.052 A 
HETATM   27  C   UNL     1      29.715  45.879  57.238  1.00  0.00     0.039 C 
HETATM   28  C   UNL     1      31.492  43.486  57.129  1.00  0.00     0.039 C 
HETATM   29  C   UNL     1      30.502  42.982  54.879  1.00  0.00     0.010 A 
HETATM   30  C   UNL     1      31.733  44.656  58.081  1.00  0.00     0.005 C 
HETATM   31  C   UNL     1      30.412  45.305  58.470  1.00  0.00     0.005 C 
HETATM   32  C   UNL     1      29.618  43.248  53.832  1.00  0.00     0.037 A 
ENDBRANCH  22  23
ENDBRANCH  21  22
ENDBRANCH   4  21
TORSDOF 8
ENDMDL
MODEL 3
REMARK VINA RESULT:      -9.9      1.229      1.790
REMARK  8 active torsions:
REMARK  status: ('A' for Active; 'I' for Inactive)
REMARK    1  A    between atoms: C_2  and  N_3 
REMARK    2  A    between atoms: C_2  and  C_26 
REMARK       I    between atoms: N_3  and  C_4 
REMARK    3  A    between atoms: C_4  and  C_5 
REMARK    4  A    between atoms: C_5  and  S_6 
REMARK    5  A    between atoms: S_6  and  C_7 
REMARK    6  A    between atoms: C_10  and  C_11 
REMARK    7  A    between atoms: C_11  and  O_12 
REMARK    8  A    between atoms: O_12  and  C_13 
ROOT
HETATM    1  C   UNL     1      24.148  43.862  50.094  1.00  0.00     0.191 A 
HETATM    2  N   UNL     1      25.455  43.472  50.182  1.00  0.00    -0.314 N 
HETATM    3  C   UNL     1      26.246  42.783  49.195  1.00  0.00     0.160 C 
HETATM    4  C   UNL     1      25.893  43.926  51.407  1.00  0.00     0.154 A 
HETATM    5  N   UNL     1      24.885  44.512  52.029  1.00  0.00    -0.132 NA
HETATM    6  N   UNL     1      23.794  44.478  51.199  1.00  0.00    -0.123 NA
ENDROOT
BRANCH   1   7
HETATM    7  S   UNL     1      23.158  43.615  48.701  1.00  0.00    -0.081 SA
BRANCH   7   8
HETATM    8  C   UNL     1      21.904  44.908  48.918  1.00  0.00     0.185 C 
BRANCH   8   9
HETATM    9  C   UNL     1      22.365  46.208  48.284  1.00  0.00     0.227 C 
HETATM   10  N   UNL     1      22.802  47.153  49.185  1.00  0.00    -0.352 N 
HETATM   11  H   UNL     1      22.504  47.041  50.153  1.00  0.00     0.163 HD
HETATM   12  O   UNL     1      22.354  46.387  47.068  1.00  0.00    -0.273 OA
BRANCH  10  13
HETATM   13  C   UNL     1      23.178  48.492  48.769  1.00  0.00     0.113 C 
HETATM   14  C   UNL     1      22.382  49.552  49.533  1.00  0.00     0.037 C 
BRANCH  13  15
HETATM   15  C   UNL     1      24.676  48.681  48.924  1.00  0.00    -0.036 A 
HETATM   16  C   UNL     1      25.313  49.760  48.289  1.00  0.00     0.009 A 
HETATM   17  C   UNL     1      26.691  49.949  48.414  1.00  0.00     0.001 A 
HETATM   18  C   UNL     1      27.451  49.061  49.170  1.00  0.00     0.000 A 
HETATM   19  C   UNL     1      26.836  47.982  49.801  1.00  0.00     0.001 A 
HETATM   20  C   UNL     1      25.459  47.790  49.678  1.00  0.00     0.009 A 
ENDBRANCH  13  15
ENDBRANCH  10  13
ENDBRANCH   8   9
ENDBRANCH   7   8
ENDBRANCH   1   7
BRANCH   4  21
HETATM   21  C   UNL     1      27.298  43.828  51.897  1.00  0.00     0.256 C 
BRANCH  21  22
HETATM   22  O   UNL     1      27.458  44.812  52.915  1.00  0.00    -0.344 OA
BRANCH  22  23
HETATM   23  C   UNL     1      28.371  44.545  53.898  1.00  0.00     0.069 A 
HETATM   24  C   UNL     1      28.600  45.312  55.042  1.00  0.00     0.044 A 
HETATM   25  C   UNL     1      29.583  44.934  55.977  1.00  0.00    -0.049 A 
HETATM   26  C   UNL     1      30.353  43.781  55.749  1.00  0.00    -0.052 A 
HETATM   27  C   UNL     1      29.831  45.819  57.175  1.00  0.00     0.039 C 
HETATM   28  C   UNL     1      31.394  43.316  56.738  1.00  0.00     0.039 C 
HETATM   29  C   UNL     1      30.108  43.009  54.605  1.00  0.00     0.010 A 
HETATM   30  C   UNL     1      31.835  44.411  57.707  1.00  0.00     0.005 C 
HETATM   31  C   UNL     1      30.623  45.130  58.284  1.00  0.00     0.005 C 
HETATM   32  C   UNL     1      29.129  43.393  53.688  1.00  0.00     0.037 A 
ENDBRANCH  22  23
ENDBRANCH  21  22
ENDBRANCH   4  21
TORSDOF 8
ENDMDL
MODEL 4
REMARK VINA RESULT:      -9.7      2.977      3.835
REMARK  8 active torsions:
REMARK  status: ('A' for Active; 'I' for Inactive)
REMARK    1  A    between atoms: C_2  and  N_3 
REMARK    2  A    between atoms: C_2  and  C_26 
REMARK       I    between atoms: N_3  and  C_4 
REMARK    3  A    between atoms: C_4  and  C_5 
REMARK    4  A    between atoms: C_5  and  S_6 
REMARK    5  A    between atoms: S_6  and  C_7 
REMARK    6  A    between atoms: C_10  and  C_11 
REMARK    7  A    between atoms: C_11  and  O_12 
REMARK    8  A    between atoms: O_12  and  C_13 
ROOT
HETATM    1  C   UNL     1      24.449  44.782  50.161  1.00  0.00     0.191 A 
HETATM    2  N   UNL     1      25.676  45.194  50.600  1.00  0.00    -0.314 N 
HETATM    3  C   UNL     1      26.739  45.792  49.833  1.00  0.00     0.160 C 
HETATM    4  C   UNL     1      25.676  44.970  51.959  1.00  0.00     0.154 A 
HETATM    5  N   UNL     1      24.527  44.412  52.298  1.00  0.00    -0.132 NA
HETATM    6  N   UNL     1      23.756  44.303  51.169  1.00  0.00    -0.123 NA
ENDROOT
BRANCH   1   7
HETATM    7  S   UNL     1      23.904  44.935  48.530  1.00  0.00    -0.081 SA
BRANCH   7   8
HETATM    8  C   UNL     1      22.437  45.981  48.737  1.00  0.00     0.185 C 
BRANCH   8   9
HETATM    9  C   UNL     1      22.843  47.420  49.000  1.00  0.00     0.227 C 
HETATM   10  N   UNL     1      21.836  48.337  48.798  1.00  0.00    -0.352 N 
HETATM   11  H   UNL     1      21.050  48.041  48.222  1.00  0.00     0.163 HD
HETATM   12  O   UNL     1      23.973  47.727  49.370  1.00  0.00    -0.273 OA
BRANCH  10  13
HETATM   13  C   UNL     1      22.071  49.767  48.897  1.00  0.00     0.113 C 
HETATM   14  C   UNL     1      22.830  50.287  47.675  1.00  0.00     0.037 C 
BRANCH  13  15
HETATM   15  C   UNL     1      20.755  50.495  49.105  1.00  0.00    -0.036 A 
HETATM   16  C   UNL     1      19.812  49.985  50.013  1.00  0.00     0.009 A 
HETATM   17  C   UNL     1      18.592  50.635  50.214  1.00  0.00     0.001 A 
HETATM   18  C   UNL     1      18.297  51.799  49.509  1.00  0.00     0.000 A 
HETATM   19  C   UNL     1      19.219  52.314  48.600  1.00  0.00     0.001 A 
HETATM   20  C   UNL     1      20.439  51.666  48.396  1.00  0.00     0.009 A 
ENDBRANCH  13  15
ENDBRANCH  10  13
ENDBRANCH   8   9
ENDBRANCH   7   8
ENDBRANCH   1   7
BRANCH   4  21
HETATM   21  C   UNL     1      26.773  45.370  52.886  1.00  0.00     0.256 C 
BRANCH  21  22
HETATM   22  O   UNL     1      27.809  44.401  52.755  1.00  0.00    -0.344 OA
BRANCH  22  23
HETATM   23  C   UNL     1      28.651  44.244  53.821  1.00  0.00     0.069 A 
HETATM   24  C   UNL     1      28.767  45.104  54.915  1.00  0.00     0.044 A 
HETATM   25  C   UNL     1      29.686  44.836  55.947  1.00  0.00    -0.049 A 
HETATM   26  C   UNL     1      30.507  43.698  55.869  1.00  0.00    -0.052 A 
HETATM   27  C   UNL     1      29.814  45.818  57.087  1.00  0.00     0.039 C 
HETATM   28  C   UNL     1      31.483  43.349  56.967  1.00  0.00     0.039 C 
HETATM   29  C   UNL     1      30.375  42.832  54.775  1.00  0.00     0.010 A 
HETATM   30  C   UNL     1      31.814  44.531  57.876  1.00  0.00     0.005 C 
HETATM   31  C   UNL     1      30.539  45.246  58.303  1.00  0.00     0.005 C 
HETATM   32  C   UNL     1      29.458  43.109  53.760  1.00  0.00     0.037 A 
ENDBRANCH  22  23
ENDBRANCH  21  22
ENDBRANCH   4  21
TORSDOF 8
ENDMDL
MODEL 5
REMARK VINA RESULT:      -9.5      1.149      2.199
REMARK  8 active torsions:
REMARK  status: ('A' for Active; 'I' for Inactive)
REMARK    1  A    between atoms: C_2  and  N_3 
REMARK    2  A    between atoms: C_2  and  C_26 
REMARK       I    between atoms: N_3  and  C_4 
REMARK    3  A    between atoms: C_4  and  C_5 
REMARK    4  A    between atoms: C_5  and  S_6 
REMARK    5  A    between atoms: S_6  and  C_7 
REMARK    6  A    between atoms: C_10  and  C_11 
REMARK    7  A    between atoms: C_11  and  O_12 
REMARK    8  A    between atoms: O_12  and  C_13 
ROOT
HETATM    1  C   UNL     1      26.180  41.612  50.234  1.00  0.00     0.191 A 
HETATM    2  N   UNL     1      26.738  42.003  51.419  1.00  0.00    -0.314 N 
HETATM    3  C   UNL     1      26.192  42.900  52.405  1.00  0.00     0.160 C 
HETATM    4  C   UNL     1      27.927  41.314  51.512  1.00  0.00     0.154 A 
HETATM    5  N   UNL     1      28.085  40.590  50.418  1.00  0.00    -0.132 NA
HETATM    6  N   UNL     1      26.983  40.773  49.622  1.00  0.00    -0.123 NA
ENDROOT
BRANCH   1   7
HETATM    7  S   UNL     1      24.625  42.122  49.683  1.00  0.00    -0.081 SA
BRANCH   7   8
HETATM    8  C   UNL     1      25.066  43.500  48.587  1.00  0.00     0.185 C 
BRANCH   8   9
HETATM    9  C   UNL     1      24.585  44.816  49.168  1.00  0.00     0.227 C 
HETATM   10  N   UNL     1      25.544  45.506  49.877  1.00  0.00    -0.352 N 
HETATM   11  H   UNL     1      26.346  44.972  50.207  1.00  0.00     0.163 HD
HETATM   12  O   UNL     1      23.439  45.227  49.005  1.00  0.00    -0.273 OA
BRANCH  10  13
HETATM   13  C   UNL     1      25.235  46.731  50.592  1.00  0.00     0.113 C 
HETATM   14  C   UNL     1      25.878  46.736  51.980  1.00  0.00     0.037 C 
BRANCH  13  15
HETATM   15  C   UNL     1      25.652  47.933  49.765  1.00  0.00    -0.036 A 
HETATM   16  C   UNL     1      24.678  48.683  49.084  1.00  0.00     0.009 A 
HETATM   17  C   UNL     1      25.040  49.789  48.312  1.00  0.00     0.001 A 
HETATM   18  C   UNL     1      26.379  50.157  48.207  1.00  0.00     0.000 A 
HETATM   19  C   UNL     1      27.358  49.421  48.870  1.00  0.00     0.001 A 
HETATM   20  C   UNL     1      26.999  48.314  49.642  1.00  0.00     0.009 A 
ENDBRANCH  13  15
ENDBRANCH  10  13
ENDBRANCH   8   9
ENDBRANCH   7   8
ENDBRANCH   1   7
BRANCH   4  21
HETATM   21  C   UNL     1      28.833  41.338  52.695  1.00  0.00     0.256 C 
BRANCH  21  22
HETATM   22  O   UNL     1      29.598  42.538  52.614  1.00  0.00    -0.344 OA
BRANCH  22  23
HETATM   23  C   UNL     1      29.706  43.284  53.756  1.00  0.00     0.069 A 
HETATM   24  C   UNL     1      30.572  43.038  54.824  1.00  0.00     0.044 A 
HETATM   25  C   UNL     1      30.578  43.878  55.953  1.00  0.00    -0.049 A 
HETATM   26  C   UNL     1      29.692  44.967  56.015  1.00  0.00    -0.052 A 
HETATM   27  C   UNL     1      31.495  43.547  57.106  1.00  0.00     0.039 C 
HETATM   28  C   UNL     1      29.685  45.916  57.189  1.00  0.00     0.039 C 
HETATM   29  C   UNL     1      28.837  45.216  54.933  1.00  0.00     0.010 A 
HETATM   30  C   UNL     1      30.350  45.336  58.435  1.00  0.00     0.005 C 
HETATM   31  C   UNL     1      31.691  44.708  58.079  1.00  0.00     0.005 C 
HETATM   32  C   UNL     1      28.843  44.377  53.818  1.00  0.00     0.037 A 
ENDBRANCH  22  23
ENDBRANCH  21  22
ENDBRANCH   4  21
TORSDOF 8
ENDMDL
MODEL 6
REMARK VINA RESULT:      -9.5      4.546     10.607
REMARK  8 active torsions:
REMARK  status: ('A' for Active; 'I' for Inactive)
REMARK    1  A    between atoms: C_2  and  N_3 
REMARK    2  A    between atoms: C_2  and  C_26 
REMARK       I    between atoms: N_3  and  C_4 
REMARK    3  A    between atoms: C_4  and  C_5 
REMARK    4  A    between atoms: C_5  and  S_6 
REMARK    5  A    between atoms: S_6  and  C_7 
REMARK    6  A    between atoms: C_10  and  C_11 
REMARK    7  A    between atoms: C_11  and  O_12 
REMARK    8  A    between atoms: O_12  and  C_13 
ROOT
HETATM    1  C   UNL     1      24.480  47.611  49.513  1.00  0.00     0.191 A 
HETATM    2  N   UNL     1      23.459  48.073  48.730  1.00  0.00    -0.314 N 
HETATM    3  C   UNL     1      22.263  47.378  48.328  1.00  0.00     0.160 C 
HETATM    4  C   UNL     1      23.781  49.381  48.439  1.00  0.00     0.154 A 
HETATM    5  N   UNL     1      24.952  49.662  48.982  1.00  0.00    -0.132 NA
HETATM    6  N   UNL     1      25.384  48.552  49.663  1.00  0.00    -0.123 NA
ENDROOT
BRANCH   1   7
HETATM    7  S   UNL     1      24.515  46.040  50.228  1.00  0.00    -0.081 SA
BRANCH   7   8
HETATM    8  C   UNL     1      26.205  45.982  50.887  1.00  0.00     0.185 C 
BRANCH   8   9
HETATM    9  C   UNL     1      26.186  46.040  52.403  1.00  0.00     0.227 C 
HETATM   10  N   UNL     1      26.957  45.077  53.015  1.00  0.00    -0.352 N 
HETATM   11  H   UNL     1      27.205  44.261  52.458  1.00  0.00     0.163 HD
HETATM   12  O   UNL     1      25.542  46.884  53.022  1.00  0.00    -0.273 OA
BRANCH  10  13
HETATM   13  C   UNL     1      26.975  44.912  54.458  1.00  0.00     0.113 C 
HETATM   14  C   UNL     1      26.030  43.792  54.897  1.00  0.00     0.037 C 
BRANCH  13  15
HETATM   15  C   UNL     1      28.397  44.679  54.935  1.00  0.00    -0.036 A 
HETATM   16  C   UNL     1      29.096  43.535  54.512  1.00  0.00     0.009 A 
HETATM   17  C   UNL     1      30.402  43.298  54.943  1.00  0.00     0.001 A 
HETATM   18  C   UNL     1      31.027  44.196  55.805  1.00  0.00     0.000 A 
HETATM   19  C   UNL     1      30.346  45.331  56.239  1.00  0.00     0.001 A 
HETATM   20  C   UNL     1      29.039  45.571  55.809  1.00  0.00     0.009 A 
ENDBRANCH  13  15
ENDBRANCH  10  13
ENDBRANCH   8   9
ENDBRANCH   7   8
ENDBRANCH   1   7
BRANCH   4  21
HETATM   21  C   UNL     1      22.900  50.326  47.695  1.00  0.00     0.256 C 
BRANCH  21  22
HETATM   22  O   UNL     1      22.133  51.036  48.663  1.00  0.00    -0.344 OA
BRANCH  22  23
HETATM   23  C   UNL     1      20.785  51.121  48.447  1.00  0.00     0.069 A 
HETATM   24  C   UNL     1      19.859  51.782  49.257  1.00  0.00     0.044 A 
HETATM   25  C   UNL     1      18.490  51.785  48.929  1.00  0.00    -0.049 A 
HETATM   26  C   UNL     1      18.047  51.101  47.784  1.00  0.00    -0.052 A 
HETATM   27  C   UNL     1      17.517  52.470  49.859  1.00  0.00     0.039 C 
HETATM   28  C   UNL     1      16.595  51.105  47.373  1.00  0.00     0.039 C 
HETATM   29  C   UNL     1      18.984  50.452  46.969  1.00  0.00     0.010 A 
HETATM   30  C   UNL     1      15.648  51.488  48.508  1.00  0.00     0.005 C 
HETATM   31  C   UNL     1      16.154  52.734  49.223  1.00  0.00     0.005 C 
HETATM   32  C   UNL     1      20.339  50.460  47.303  1.00  0.00     0.037 A 
ENDBRANCH  22  23
ENDBRANCH  21  22
ENDBRANCH   4  21
TORSDOF 8
ENDMDL
MODEL 7
REMARK VINA RESULT:      -9.5      3.031      9.443
REMARK  8 active torsions:
REMARK  status: ('A' for Active; 'I' for Inactive)
REMARK    1  A    between atoms: C_2  and  N_3 
REMARK    2  A    between atoms: C_2  and  C_26 
REMARK       I    between atoms: N_3  and  C_4 
REMARK    3  A    between atoms: C_4  and  C_5 
REMARK    4  A    between atoms: C_5  and  S_6 
REMARK    5  A    between atoms: S_6  and  C_7 
REMARK    6  A    between atoms: C_10  and  C_11 
REMARK    7  A    between atoms: C_11  and  O_12 
REMARK    8  A    between atoms: O_12  and  C_13 
ROOT
HETATM    1  C   UNL     1      25.217  45.476  52.737  1.00  0.00     0.191 A 
HETATM    2  N   UNL     1      24.704  45.379  51.474  1.00  0.00    -0.314 N 
HETATM    3  C   UNL     1      24.139  44.221  50.830  1.00  0.00     0.160 C 
HETATM    4  C   UNL     1      24.786  46.649  50.946  1.00  0.00     0.154 A 
HETATM    5  N   UNL     1      25.359  47.443  51.833  1.00  0.00    -0.132 NA
HETATM    6  N   UNL     1      25.621  46.705  52.959  1.00  0.00    -0.123 NA
ENDROOT
BRANCH   1   7
HETATM    7  S   UNL     1      25.259  44.169  53.866  1.00  0.00    -0.081 SA
BRANCH   7   8
HETATM    8  C   UNL     1      26.719  43.252  53.300  1.00  0.00     0.185 C 
BRANCH   8   9
HETATM    9  C   UNL     1      27.977  44.075  53.505  1.00  0.00     0.227 C 
HETATM   10  N   UNL     1      27.936  44.908  54.601  1.00  0.00    -0.352 N 
HETATM   11  H   UNL     1      27.016  45.132  54.976  1.00  0.00     0.163 HD
HETATM   12  O   UNL     1      28.947  43.990  52.756  1.00  0.00    -0.273 OA
BRANCH  10  13
HETATM   13  C   UNL     1      29.006  45.846  54.891  1.00  0.00     0.113 C 
HETATM   14  C   UNL     1      28.451  47.240  55.192  1.00  0.00     0.037 C 
BRANCH  13  15
HETATM   15  C   UNL     1      29.865  45.317  56.024  1.00  0.00    -0.036 A 
HETATM   16  C   UNL     1      30.735  44.237  55.795  1.00  0.00     0.009 A 
HETATM   17  C   UNL     1      31.530  43.730  56.825  1.00  0.00     0.001 A 
HETATM   18  C   UNL     1      31.464  44.292  58.097  1.00  0.00     0.000 A 
HETATM   19  C   UNL     1      30.602  45.358  58.343  1.00  0.00     0.001 A 
HETATM   20  C   UNL     1      29.805  45.867  57.315  1.00  0.00     0.009 A 
ENDBRANCH  13  15
ENDBRANCH  10  13
ENDBRANCH   8   9
ENDBRANCH   7   8
ENDBRANCH   1   7
BRANCH   4  21
HETATM   21  C   UNL     1      24.241  47.053  49.618  1.00  0.00     0.256 C 
BRANCH  21  22
HETATM   22  O   UNL     1      24.371  48.469  49.523  1.00  0.00    -0.344 OA
BRANCH  22  23
HETATM   23  C   UNL     1      23.236  49.178  49.241  1.00  0.00     0.069 A 
HETATM   24  C   UNL     1      21.939  48.667  49.168  1.00  0.00     0.044 A 
HETATM   25  C   UNL     1      20.851  49.504  48.855  1.00  0.00    -0.049 A 
HETATM   26  C   UNL     1      21.075  50.867  48.596  1.00  0.00    -0.052 A 
HETATM   27  C   UNL     1      19.472  48.899  48.739  1.00  0.00     0.039 C 
HETATM   28  C   UNL     1      19.938  51.811  48.290  1.00  0.00     0.039 C 
HETATM   29  C   UNL     1      22.378  51.376  48.685  1.00  0.00     0.010 A 
HETATM   30  C   UNL     1      18.665  51.096  47.841  1.00  0.00     0.005 C 
HETATM   31  C   UNL     1      18.351  49.935  48.776  1.00  0.00     0.005 C 
HETATM   32  C   UNL     1      23.446  50.535  48.999  1.00  0.00     0.037 A 
ENDBRANCH  22  23
ENDBRANCH  21  22
ENDBRANCH   4  21
TORSDOF 8
ENDMDL
MODEL 8
REMARK VINA RESULT:      -9.4      2.357      3.049
REMARK  8 active torsions:
REMARK  status: ('A' for Active; 'I' for Inactive)
REMARK    1  A    between atoms: C_2  and  N_3 
REMARK    2  A    between atoms: C_2  and  C_26 
REMARK       I    between atoms: N_3  and  C_4 
REMARK    3  A    between atoms: C_4  and  C_5 
REMARK    4  A    between atoms: C_5  and  S_6 
REMARK    5  A    between atoms: S_6  and  C_7 
REMARK    6  A    between atoms: C_10  and  C_11 
REMARK    7  A    between atoms: C_11  and  O_12 
REMARK    8  A    between atoms: O_12  and  C_13 
ROOT
HETATM    1  C   UNL     1      24.336  44.174  50.102  1.00  0.00     0.191 A 
HETATM    2  N   UNL     1      25.429  44.875  50.526  1.00  0.00    -0.314 N 
HETATM    3  C   UNL     1      26.226  45.816  49.781  1.00  0.00     0.160 C 
HETATM    4  C   UNL     1      25.591  44.537  51.852  1.00  0.00     0.154 A 
HETATM    5  N   UNL     1      24.670  43.648  52.181  1.00  0.00    -0.132 NA
HETATM    6  N   UNL     1      23.878  43.429  51.082  1.00  0.00    -0.123 NA
ENDROOT
BRANCH   1   7
HETATM    7  S   UNL     1      23.650  44.314  48.523  1.00  0.00    -0.081 SA
BRANCH   7   8
HETATM    8  C   UNL     1      21.877  44.356  48.903  1.00  0.00     0.185 C 
BRANCH   8   9
HETATM    9  C   UNL     1      21.220  45.556  48.247  1.00  0.00     0.227 C 
HETATM   10  N   UNL     1      20.854  46.551  49.126  1.00  0.00    -0.352 N 
HETATM   11  H   UNL     1      20.764  46.291  50.107  1.00  0.00     0.163 HD
HETATM   12  O   UNL     1      21.043  45.627  47.034  1.00  0.00    -0.273 OA
BRANCH  10  13
HETATM   13  C   UNL     1      20.117  47.725  48.691  1.00  0.00     0.113 C 
HETATM   14  C   UNL     1      18.874  47.947  49.556  1.00  0.00     0.037 C 
BRANCH  13  15
HETATM   15  C   UNL     1      21.031  48.936  48.683  1.00  0.00    -0.036 A 
HETATM   16  C   UNL     1      20.824  49.973  49.609  1.00  0.00     0.009 A 
HETATM   17  C   UNL     1      21.649  51.099  49.615  1.00  0.00     0.001 A 
HETATM   18  C   UNL     1      22.689  51.208  48.696  1.00  0.00     0.000 A 
HETATM   19  C   UNL     1      22.904  50.192  47.767  1.00  0.00     0.001 A 
HETATM   20  C   UNL     1      22.080  49.064  47.758  1.00  0.00     0.009 A 
ENDBRANCH  13  15
ENDBRANCH  10  13
ENDBRANCH   8   9
ENDBRANCH   7   8
ENDBRANCH   1   7
BRANCH   4  21
HETATM   21  C   UNL     1      26.600  45.145  52.766  1.00  0.00     0.256 C 
BRANCH  21  22
HETATM   22  O   UNL     1      27.824  44.443  52.568  1.00  0.00    -0.344 OA
BRANCH  22  23
HETATM   23  C   UNL     1      28.636  44.289  53.658  1.00  0.00     0.069 A 
HETATM   24  C   UNL     1      28.697  45.136  54.768  1.00  0.00     0.044 A 
HETATM   25  C   UNL     1      29.589  44.874  55.824  1.00  0.00    -0.049 A 
HETATM   26  C   UNL     1      30.439  43.756  55.756  1.00  0.00    -0.052 A 
HETATM   27  C   UNL     1      29.657  45.842  56.982  1.00  0.00     0.039 C 
HETATM   28  C   UNL     1      31.387  43.414  56.880  1.00  0.00     0.039 C 
HETATM   29  C   UNL     1      30.362  42.904  54.647  1.00  0.00     0.010 A 
HETATM   30  C   UNL     1      31.661  44.590  57.816  1.00  0.00     0.005 C 
HETATM   31  C   UNL     1      30.357  45.268  58.212  1.00  0.00     0.005 C 
HETATM   32  C   UNL     1      29.471  43.174  53.607  1.00  0.00     0.037 A 
ENDBRANCH  22  23
ENDBRANCH  21  22
ENDBRANCH   4  21
TORSDOF 8
ENDMDL
MODEL 9
REMARK VINA RESULT:      -9.2      3.762     10.052
REMARK  8 active torsions:
REMARK  status: ('A' for Active; 'I' for Inactive)
REMARK    1  A    between atoms: C_2  and  N_3 
REMARK    2  A    between atoms: C_2  and  C_26 
REMARK       I    between atoms: N_3  and  C_4 
REMARK    3  A    between atoms: C_4  and  C_5 
REMARK    4  A    between atoms: C_5  and  S_6 
REMARK    5  A    between atoms: S_6  and  C_7 
REMARK    6  A    between atoms: C_10  and  C_11 
REMARK    7  A    between atoms: C_11  and  O_12 
REMARK    8  A    between atoms: O_12  and  C_13 
ROOT
HETATM    1  C   UNL     1      24.686  46.333  50.686  1.00  0.00     0.191 A 
HETATM    2  N   UNL     1      23.880  46.375  49.583  1.00  0.00    -0.314 N 
HETATM    3  C   UNL     1      23.187  45.284  48.946  1.00  0.00     0.160 C 
HETATM    4  C   UNL     1      23.816  47.704  49.225  1.00  0.00     0.154 A 
HETATM    5  N   UNL     1      24.581  48.403  50.044  1.00  0.00    -0.132 NA
HETATM    6  N   UNL     1      25.119  47.541  50.965  1.00  0.00    -0.123 NA
ENDROOT
BRANCH   1   7
HETATM    7  S   UNL     1      25.019  44.897  51.585  1.00  0.00    -0.081 SA
BRANCH   7   8
HETATM    8  C   UNL     1      26.682  44.478  50.994  1.00  0.00     0.185 C 
BRANCH   8   9
HETATM    9  C   UNL     1      27.343  43.480  51.926  1.00  0.00     0.227 C 
HETATM   10  N   UNL     1      28.215  44.042  52.832  1.00  0.00    -0.352 N 
HETATM   11  H   UNL     1      28.569  44.972  52.615  1.00  0.00     0.163 HD
HETATM   12  O   UNL     1      27.106  42.276  51.874  1.00  0.00    -0.273 OA
BRANCH  10  13
HETATM   13  C   UNL     1      29.017  43.230  53.729  1.00  0.00     0.113 C 
HETATM   14  C   UNL     1      30.201  42.600  52.992  1.00  0.00     0.037 C 
BRANCH  13  15
HETATM   15  C   UNL     1      29.462  44.059  54.920  1.00  0.00    -0.036 A 
HETATM   16  C   UNL     1      28.735  45.206  55.282  1.00  0.00     0.009 A 
HETATM   17  C   UNL     1      29.130  45.987  56.370  1.00  0.00     0.001 A 
HETATM   18  C   UNL     1      30.258  45.636  57.108  1.00  0.00     0.000 A 
HETATM   19  C   UNL     1      30.993  44.505  56.758  1.00  0.00     0.001 A 
HETATM   20  C   UNL     1      30.601  43.723  55.670  1.00  0.00     0.009 A 
ENDBRANCH  13  15
ENDBRANCH  10  13
ENDBRANCH   8   9
ENDBRANCH   7   8
ENDBRANCH   1   7
BRANCH   4  21
HETATM   21  C   UNL     1      22.957  48.249  48.135  1.00  0.00     0.256 C 
BRANCH  21  22
HETATM   22  O   UNL     1      22.931  49.665  48.288  1.00  0.00    -0.344 OA
BRANCH  22  23
HETATM   23  C   UNL     1      21.717  50.239  48.553  1.00  0.00     0.069 A 
HETATM   24  C   UNL     1      20.670  50.411  47.645  1.00  0.00     0.044 A 
HETATM   25  C   UNL     1      19.469  51.030  48.041  1.00  0.00    -0.049 A 
HETATM   26  C   UNL     1      19.328  51.495  49.360  1.00  0.00    -0.052 A 
HETATM   27  C   UNL     1      18.382  51.240  47.015  1.00  0.00     0.039 C 
HETATM   28  C   UNL     1      18.048  52.134  49.841  1.00  0.00     0.039 C 
HETATM   29  C   UNL     1      20.378  51.306  50.268  1.00  0.00     0.010 A 
HETATM   30  C   UNL     1      17.159  52.632  48.703  1.00  0.00     0.005 C 
HETATM   31  C   UNL     1      17.021  51.560  47.630  1.00  0.00     0.005 C 
HETATM   32  C   UNL     1      21.562  50.688  49.864  1.00  0.00     0.037 A 
ENDBRANCH  22  23
ENDBRANCH  21  22
ENDBRANCH   4  21
TORSDOF 8
ENDMDL
MODEL 10
REMARK VINA RESULT:      -9.2      2.715      8.394
REMARK  8 active torsions:
REMARK  status: ('A' for Active; 'I' for Inactive)
REMARK    1  A    between atoms: C_2  and  N_3 
REMARK    2  A    between atoms: C_2  and  C_26 
REMARK       I    between atoms: N_3  and  C_4 
REMARK    3  A    between atoms: C_4  and  C_5 
REMARK    4  A    between atoms: C_5  and  S_6 
REMARK    5  A    between atoms: S_6  and  C_7 
REMARK    6  A    between atoms: C_10  and  C_11 
REMARK    7  A    between atoms: C_11  and  O_12 
REMARK    8  A    between atoms: O_12  and  C_13 
ROOT
HETATM    1  C   UNL     1      26.089  43.971  49.857  1.00  0.00     0.191 A 
HETATM    2  N   UNL     1      25.147  44.907  50.182  1.00  0.00    -0.314 N 
HETATM    3  C   UNL     1      23.800  44.689  50.645  1.00  0.00     0.160 C 
HETATM    4  C   UNL     1      25.770  46.126  50.027  1.00  0.00     0.154 A 
HETATM    5  N   UNL     1      27.000  45.922  49.590  1.00  0.00    -0.132 NA
HETATM    6  N   UNL     1      27.200  44.569  49.493  1.00  0.00    -0.123 NA
ENDROOT
BRANCH   1   7
HETATM    7  S   UNL     1      25.839  42.267  49.976  1.00  0.00    -0.081 SA
BRANCH   7   8
HETATM    8  C   UNL     1      27.517  41.682  50.342  1.00  0.00     0.185 C 
BRANCH   8   9
HETATM    9  C   UNL     1      27.800  41.775  51.830  1.00  0.00     0.227 C 
HETATM   10  N   UNL     1      28.156  43.033  52.261  1.00  0.00    -0.352 N 
HETATM   11  H   UNL     1      28.492  43.685  51.554  1.00  0.00     0.163 HD
HETATM   12  O   UNL     1      27.707  40.805  52.579  1.00  0.00    -0.273 OA
BRANCH  10  13
HETATM   13  C   UNL     1      28.566  43.286  53.631  1.00  0.00     0.113 C 
HETATM   14  C   UNL     1      30.067  43.049  53.810  1.00  0.00     0.037 C 
BRANCH  13  15
HETATM   15  C   UNL     1      28.157  44.689  54.043  1.00  0.00    -0.036 A 
HETATM   16  C   UNL     1      28.853  45.344  55.073  1.00  0.00     0.009 A 
HETATM   17  C   UNL     1      28.489  46.632  55.472  1.00  0.00     0.001 A 
HETATM   18  C   UNL     1      27.425  47.280  54.851  1.00  0.00     0.000 A 
HETATM   19  C   UNL     1      26.720  46.642  53.832  1.00  0.00     0.001 A 
HETATM   20  C   UNL     1      27.081  45.354  53.431  1.00  0.00     0.009 A 
ENDBRANCH  13  15
ENDBRANCH  10  13
ENDBRANCH   8   9
ENDBRANCH   7   8
ENDBRANCH   1   7
BRANCH   4  21
HETATM   21  C   UNL     1      25.160  47.441  50.375  1.00  0.00     0.256 C 
BRANCH  21  22
HETATM   22  O   UNL     1      24.973  48.153  49.155  1.00  0.00    -0.344 OA
BRANCH  22  23
HETATM   23  C   UNL     1      23.827  48.892  49.037  1.00  0.00     0.069 A 
HETATM   24  C   UNL     1      22.522  48.424  49.209  1.00  0.00     0.044 A 
HETATM   25  C   UNL     1      21.422  49.287  49.046  1.00  0.00    -0.049 A 
HETATM   26  C   UNL     1      21.637  50.630  48.691  1.00  0.00    -0.052 A 
HETATM   27  C   UNL     1      20.027  48.728  49.192  1.00  0.00     0.039 C 
HETATM   28  C   UNL     1      20.492  51.601  48.539  1.00  0.00     0.039 C 
HETATM   29  C   UNL     1      22.950  51.095  48.535  1.00  0.00     0.010 A 
HETATM   30  C   UNL     1      19.142  50.915  48.345  1.00  0.00     0.005 C 
HETATM   31  C   UNL     1      18.958  49.804  49.372  1.00  0.00     0.005 C 
HETATM   32  C   UNL     1      24.032  50.229  48.702  1.00  0.00     0.037 A 
ENDBRANCH  22  23
ENDBRANCH  21  22
ENDBRANCH   4  21
TORSDOF 8
ENDMDL
