MODEL 1
REMARK VINA RESULT:      -8.9      0.000      0.000
REMARK  5 active torsions:
REMARK  status: ('A' for Active; 'I' for Inactive)
REMARK    1  A    between atoms: C_4  and  C_5 
REMARK       I    between atoms: C_5  and  N_6 
REMARK    2  A    between atoms: N_6  and  C_7 
REMARK    3  A    between atoms: C_10  and  N_11 
REMARK       I    between atoms: N_11  and  C_12 
REMARK       I    between atoms: C_12  and  N_13 
REMARK    4  A    between atoms: N_13  and  C_14 
REMARK    5  A    between atoms: C_14  and  C_15 
ROOT
HETATM    1  C   UNL     1      24.267  45.865  50.080  1.00  0.00     0.035 A 
HETATM    2  C   UNL     1      24.590  44.872  49.154  1.00  0.00     0.032 A 
HETATM    3  C   UNL     1      25.236  43.689  49.562  1.00  0.00     0.032 A 
HETATM    4  C   UNL     1      25.586  43.497  50.897  1.00  0.00     0.036 A 
HETATM    5  C   UNL     1      25.264  44.500  51.819  1.00  0.00     0.032 A 
HETATM    6  C   UNL     1      24.613  45.669  51.418  1.00  0.00     0.032 A 
ENDROOT
BRANCH   4   7
HETATM    7  N   UNL     1      26.190  42.348  51.434  1.00  0.00    -0.309 N 
HETATM    8  C   UNL     1      27.399  42.061  51.969  1.00  0.00     0.321 C 
HETATM    9  N   UNL     1      28.237  43.066  52.308  1.00  0.00    -0.337 N 
HETATM   10  O   UNL     1      27.686  40.877  52.153  1.00  0.00    -0.247 OA
HETATM   11  H   UNL     1      27.814  43.928  52.626  1.00  0.00     0.164 HD
HETATM   12  H   UNL     1      25.650  41.495  51.360  1.00  0.00     0.170 HD
BRANCH   9  13
HETATM   13  C   UNL     1      29.483  42.731  52.966  1.00  0.00     0.183 C 
BRANCH  13  14
HETATM   14  C   UNL     1      29.765  43.564  54.196  1.00  0.00     0.053 A 
HETATM   15  N   UNL     1      29.022  44.683  54.410  1.00  0.00    -0.264 NA
HETATM   16  C   UNL     1      29.276  45.395  55.531  1.00  0.00     0.118 A 
HETATM   17  C   UNL     1      30.224  45.041  56.470  1.00  0.00     0.043 A 
HETATM   18  C   UNL     1      30.955  43.885  56.239  1.00  0.00     0.037 A 
HETATM   19 CL   UNL     1      32.141  43.378  57.379  1.00  0.00    -0.084 Cl
HETATM   20  C   UNL     1      30.733  43.131  55.095  1.00  0.00     0.052 A 
ENDBRANCH  13  14
ENDBRANCH   9  13
ENDBRANCH   4   7
BRANCH   1  21
HETATM   21  N   UNL     1      23.583  47.053  49.773  1.00  0.00    -0.321 N 
HETATM   22  C   UNL     1      24.097  48.310  49.511  1.00  0.00     0.279 C 
HETATM   23  O   UNL     1      25.281  48.623  49.568  1.00  0.00    -0.265 OA
HETATM   24  H   UNL     1      22.571  46.998  49.709  1.00  0.00     0.169 HD
BRANCH  22  25
HETATM   25  C   UNL     1      23.057  49.262  49.150  1.00  0.00     0.142 A 
HETATM   26  O   UNL     1      21.759  48.824  49.027  1.00  0.00    -0.317 OA
HETATM   27  C   UNL     1      21.007  49.896  48.667  1.00  0.00     0.143 A 
HETATM   28  C   UNL     1      21.789  51.021  48.561  1.00  0.00     0.027 A 
HETATM   29  C   UNL     1      23.110  50.614  48.873  1.00  0.00     0.045 A 
ENDBRANCH  22  25
ENDBRANCH   1  21
TORSDOF 5
ENDMDL
MODEL 2
REMARK VINA RESULT:      -8.6      1.627      2.145
REMARK  5 active torsions:
REMARK  status: ('A' for Active; 'I' for Inactive)
REMARK    1  A    between atoms: C_4  and  C_5 
REMARK       I    between atoms: C_5  and  N_6 
REMARK    2  A    between atoms: N_6  and  C_7 
REMARK    3  A    between atoms: C_10  and  N_11 
REMARK       I    between atoms: N_11  and  C_12 
REMARK       I    between atoms: C_12  and  N_13 
REMARK    4  A    between atoms: N_13  and  C_14 
REMARK    5  A    between atoms: C_14  and  C_15 
ROOT
HETATM    1  C   UNL     1      25.113  46.024  51.015  1.00  0.00     0.035 A 
HETATM    2  C   UNL     1      25.320  46.003  52.395  1.00  0.00     0.032 A 
HETATM    3  C   UNL     1      25.930  44.895  53.016  1.00  0.00     0.032 A 
HETATM    4  C   UNL     1      26.320  43.788  52.264  1.00  0.00     0.036 A 
HETATM    5  C   UNL     1      26.105  43.815  50.881  1.00  0.00     0.032 A 
HETATM    6  C   UNL     1      25.510  44.917  50.262  1.00  0.00     0.032 A 
ENDROOT
BRANCH   4   7
HETATM    7  N   UNL     1      26.975  42.648  52.756  1.00  0.00    -0.309 N 
HETATM    8  C   UNL     1      28.213  42.383  53.233  1.00  0.00     0.321 C 
HETATM    9  N   UNL     1      29.041  43.404  53.551  1.00  0.00    -0.337 N 
HETATM   10  O   UNL     1      28.537  41.204  53.386  1.00  0.00    -0.247 OA
HETATM   11  H   UNL     1      28.611  44.249  53.901  1.00  0.00     0.164 HD
HETATM   12  H   UNL     1      26.453  41.782  52.693  1.00  0.00     0.170 HD
BRANCH   9  13
HETATM   13  C   UNL     1      30.322  43.090  54.148  1.00  0.00     0.183 C 
BRANCH  13  14
HETATM   14  C   UNL     1      30.515  43.686  55.524  1.00  0.00     0.053 A 
HETATM   15  N   UNL     1      31.552  43.245  56.286  1.00  0.00    -0.264 NA
HETATM   16  C   UNL     1      31.719  43.814  57.502  1.00  0.00     0.118 A 
HETATM   17  C   UNL     1      30.914  44.820  57.998  1.00  0.00     0.043 A 
HETATM   18  C   UNL     1      29.875  45.266  57.194  1.00  0.00     0.037 A 
HETATM   19 CL   UNL     1      28.845  46.529  57.746  1.00  0.00    -0.084 Cl
HETATM   20  C   UNL     1      29.663  44.701  55.943  1.00  0.00     0.052 A 
ENDBRANCH  13  14
ENDBRANCH   9  13
ENDBRANCH   4   7
BRANCH   1  21
HETATM   21  N   UNL     1      24.557  47.102  50.306  1.00  0.00    -0.321 N 
HETATM   22  C   UNL     1      25.200  48.119  49.625  1.00  0.00     0.279 C 
HETATM   23  O   UNL     1      26.413  48.291  49.578  1.00  0.00    -0.265 OA
HETATM   24  H   UNL     1      23.544  47.147  50.258  1.00  0.00     0.169 HD
BRANCH  22  25
HETATM   25  C   UNL     1      24.263  49.000  48.945  1.00  0.00     0.142 A 
HETATM   26  O   UNL     1      22.913  48.777  49.080  1.00  0.00    -0.317 OA
HETATM   27  C   UNL     1      22.275  49.718  48.337  1.00  0.00     0.143 A 
HETATM   28  C   UNL     1      23.184  50.550  47.728  1.00  0.00     0.027 A 
HETATM   29  C   UNL     1      24.465  50.090  48.120  1.00  0.00     0.045 A 
ENDBRANCH  22  25
ENDBRANCH   1  21
TORSDOF 5
ENDMDL
MODEL 3
REMARK VINA RESULT:      -8.5      4.073      9.395
REMARK  5 active torsions:
REMARK  status: ('A' for Active; 'I' for Inactive)
REMARK    1  A    between atoms: C_4  and  C_5 
REMARK       I    between atoms: C_5  and  N_6 
REMARK    2  A    between atoms: N_6  and  C_7 
REMARK    3  A    between atoms: C_10  and  N_11 
REMARK       I    between atoms: N_11  and  C_12 
REMARK       I    between atoms: C_12  and  N_13 
REMARK    4  A    between atoms: N_13  and  C_14 
REMARK    5  A    between atoms: C_14  and  C_15 
ROOT
HETATM    1  C   UNL     1      27.017  44.031  51.843  1.00  0.00     0.035 A 
HETATM    2  C   UNL     1      25.730  43.502  51.957  1.00  0.00     0.032 A 
HETATM    3  C   UNL     1      24.826  43.567  50.879  1.00  0.00     0.032 A 
HETATM    4  C   UNL     1      25.193  44.180  49.683  1.00  0.00     0.036 A 
HETATM    5  C   UNL     1      26.484  44.713  49.578  1.00  0.00     0.032 A 
HETATM    6  C   UNL     1      27.385  44.640  50.642  1.00  0.00     0.032 A 
ENDROOT
BRANCH   4   7
HETATM    7  N   UNL     1      24.402  44.269  48.526  1.00  0.00    -0.309 N 
HETATM    8  C   UNL     1      23.335  45.010  48.147  1.00  0.00     0.321 C 
HETATM    9  N   UNL     1      22.977  46.090  48.878  1.00  0.00    -0.337 N 
HETATM   10  O   UNL     1      22.736  44.684  47.121  1.00  0.00    -0.247 OA
HETATM   11  H   UNL     1      23.719  46.599  49.338  1.00  0.00     0.164 HD
HETATM   12  H   UNL     1      24.602  43.586  47.805  1.00  0.00     0.170 HD
BRANCH   9  13
HETATM   13  C   UNL     1      21.891  46.918  48.395  1.00  0.00     0.183 C 
BRANCH  13  14
HETATM   14  C   UNL     1      22.210  48.395  48.386  1.00  0.00     0.053 A 
HETATM   15  N   UNL     1      23.509  48.781  48.265  1.00  0.00    -0.264 NA
HETATM   16  C   UNL     1      23.765  50.108  48.233  1.00  0.00     0.118 A 
HETATM   17  C   UNL     1      22.788  51.083  48.295  1.00  0.00     0.043 A 
HETATM   18  C   UNL     1      21.470  50.664  48.398  1.00  0.00     0.037 A 
HETATM   19 CL   UNL     1      20.203  51.827  48.463  1.00  0.00    -0.084 Cl
HETATM   20  C   UNL     1      21.165  49.310  48.446  1.00  0.00     0.052 A 
ENDBRANCH  13  14
ENDBRANCH   9  13
ENDBRANCH   4   7
BRANCH   1  21
HETATM   21  N   UNL     1      27.999  43.970  52.846  1.00  0.00    -0.321 N 
HETATM   22  C   UNL     1      28.155  44.775  53.960  1.00  0.00     0.279 C 
HETATM   23  O   UNL     1      27.470  45.754  54.234  1.00  0.00    -0.265 OA
HETATM   24  H   UNL     1      28.686  43.227  52.773  1.00  0.00     0.169 HD
BRANCH  22  25
HETATM   25  C   UNL     1      29.252  44.331  54.806  1.00  0.00     0.142 A 
HETATM   26  O   UNL     1      29.711  45.161  55.801  1.00  0.00    -0.317 OA
HETATM   27  C   UNL     1      30.738  44.519  56.417  1.00  0.00     0.143 A 
HETATM   28  C   UNL     1      30.949  43.287  55.845  1.00  0.00     0.027 A 
HETATM   29  C   UNL     1      29.992  43.164  54.808  1.00  0.00     0.045 A 
ENDBRANCH  22  25
ENDBRANCH   1  21
TORSDOF 5
ENDMDL
MODEL 4
REMARK VINA RESULT:      -8.2      1.638      2.029
REMARK  5 active torsions:
REMARK  status: ('A' for Active; 'I' for Inactive)
REMARK    1  A    between atoms: C_4  and  C_5 
REMARK       I    between atoms: C_5  and  N_6 
REMARK    2  A    between atoms: N_6  and  C_7 
REMARK    3  A    between atoms: C_10  and  N_11 
REMARK       I    between atoms: N_11  and  C_12 
REMARK       I    between atoms: C_12  and  N_13 
REMARK    4  A    between atoms: N_13  and  C_14 
REMARK    5  A    between atoms: C_14  and  C_15 
ROOT
HETATM    1  C   UNL     1      24.393  45.724  49.957  1.00  0.00     0.035 A 
HETATM    2  C   UNL     1      23.726  44.587  50.416  1.00  0.00     0.032 A 
HETATM    3  C   UNL     1      24.425  43.387  50.651  1.00  0.00     0.032 A 
HETATM    4  C   UNL     1      25.795  43.306  50.409  1.00  0.00     0.036 A 
HETATM    5  C   UNL     1      26.456  44.450  49.943  1.00  0.00     0.032 A 
HETATM    6  C   UNL     1      25.766  45.644  49.720  1.00  0.00     0.032 A 
ENDROOT
BRANCH   4   7
HETATM    7  N   UNL     1      26.609  42.186  50.644  1.00  0.00    -0.309 N 
HETATM    8  C   UNL     1      27.614  41.894  51.501  1.00  0.00     0.321 C 
HETATM    9  N   UNL     1      27.851  42.705  52.557  1.00  0.00    -0.337 N 
HETATM   10  O   UNL     1      28.271  40.872  51.298  1.00  0.00    -0.247 OA
HETATM   11  H   UNL     1      27.052  43.169  52.966  1.00  0.00     0.164 HD
HETATM   12  H   UNL     1      26.493  41.417  49.996  1.00  0.00     0.170 HD
BRANCH   9  13
HETATM   13  C   UNL     1      28.871  42.315  53.508  1.00  0.00     0.183 C 
BRANCH  13  14
HETATM   14  C   UNL     1      29.278  43.423  54.453  1.00  0.00     0.053 A 
HETATM   15  N   UNL     1      30.392  43.254  55.215  1.00  0.00    -0.264 NA
HETATM   16  C   UNL     1      30.749  44.271  56.032  1.00  0.00     0.118 A 
HETATM   17  C   UNL     1      30.063  45.467  56.118  1.00  0.00     0.043 A 
HETATM   18  C   UNL     1      28.943  45.623  55.316  1.00  0.00     0.037 A 
HETATM   19 CL   UNL     1      28.053  47.095  55.362  1.00  0.00    -0.084 Cl
HETATM   20  C   UNL     1      28.535  44.599  54.471  1.00  0.00     0.052 A 
ENDBRANCH  13  14
ENDBRANCH   9  13
ENDBRANCH   4   7
BRANCH   1  21
HETATM   21  N   UNL     1      23.788  46.974  49.741  1.00  0.00    -0.321 N 
HETATM   22  C   UNL     1      22.861  47.336  48.781  1.00  0.00     0.279 C 
HETATM   23  O   UNL     1      22.444  46.614  47.882  1.00  0.00    -0.265 OA
HETATM   24  H   UNL     1      24.036  47.722  50.380  1.00  0.00     0.169 HD
BRANCH  22  25
HETATM   25  C   UNL     1      22.414  48.711  48.944  1.00  0.00     0.142 A 
HETATM   26  O   UNL     1      23.120  49.553  49.771  1.00  0.00    -0.317 OA
HETATM   27  C   UNL     1      22.483  50.753  49.759  1.00  0.00     0.143 A 
HETATM   28  C   UNL     1      21.384  50.708  48.936  1.00  0.00     0.027 A 
HETATM   29  C   UNL     1      21.338  49.394  48.410  1.00  0.00     0.045 A 
ENDBRANCH  22  25
ENDBRANCH   1  21
TORSDOF 5
ENDMDL
MODEL 5
REMARK VINA RESULT:      -8.2      7.914     13.893
REMARK  5 active torsions:
REMARK  status: ('A' for Active; 'I' for Inactive)
REMARK    1  A    between atoms: C_4  and  C_5 
REMARK       I    between atoms: C_5  and  N_6 
REMARK    2  A    between atoms: N_6  and  C_7 
REMARK    3  A    between atoms: C_10  and  N_11 
REMARK       I    between atoms: N_11  and  C_12 
REMARK       I    between atoms: C_12  and  N_13 
REMARK    4  A    between atoms: N_13  and  C_14 
REMARK    5  A    between atoms: C_14  and  C_15 
ROOT
HETATM    1  C   UNL     1      20.405  51.381  49.032  1.00  0.00     0.035 A 
HETATM    2  C   UNL     1      19.593  51.415  50.167  1.00  0.00     0.032 A 
HETATM    3  C   UNL     1      18.271  51.893  50.093  1.00  0.00     0.032 A 
HETATM    4  C   UNL     1      17.753  52.361  48.888  1.00  0.00     0.036 A 
HETATM    5  C   UNL     1      18.575  52.328  47.754  1.00  0.00     0.032 A 
HETATM    6  C   UNL     1      19.883  51.845  47.823  1.00  0.00     0.032 A 
ENDROOT
BRANCH   4   7
HETATM    7  N   UNL     1      16.442  52.819  48.676  1.00  0.00    -0.309 N 
HETATM    8  C   UNL     1      15.464  53.326  49.461  1.00  0.00     0.321 C 
HETATM    9  N   UNL     1      15.755  53.724  50.720  1.00  0.00    -0.337 N 
HETATM   10  O   UNL     1      14.333  53.432  48.985  1.00  0.00    -0.247 OA
HETATM   11  H   UNL     1      16.680  54.100  50.879  1.00  0.00     0.164 HD
HETATM   12  H   UNL     1      16.081  52.695  47.737  1.00  0.00     0.170 HD
BRANCH   9  13
HETATM   13  C   UNL     1      14.710  54.350  51.503  1.00  0.00     0.183 C 
BRANCH  13  14
HETATM   14  C   UNL     1      14.947  55.819  51.769  1.00  0.00     0.053 A 
HETATM   15  N   UNL     1      14.917  56.685  50.720  1.00  0.00    -0.264 NA
HETATM   16  C   UNL     1      15.105  57.997  50.988  1.00  0.00     0.118 A 
HETATM   17  C   UNL     1      15.303  58.503  52.258  1.00  0.00     0.043 A 
HETATM   18  C   UNL     1      15.309  57.602  53.313  1.00  0.00     0.037 A 
HETATM   19 CL   UNL     1      15.533  58.169  54.923  1.00  0.00    -0.084 Cl
HETATM   20  C   UNL     1      15.131  56.245  53.080  1.00  0.00     0.052 A 
ENDBRANCH  13  14
ENDBRANCH   9  13
ENDBRANCH   4   7
BRANCH   1  21
HETATM   21  N   UNL     1      21.717  50.878  49.001  1.00  0.00    -0.321 N 
HETATM   22  C   UNL     1      22.147  49.566  49.070  1.00  0.00     0.279 C 
HETATM   23  O   UNL     1      21.429  48.588  49.241  1.00  0.00    -0.265 OA
HETATM   24  H   UNL     1      22.465  51.555  48.891  1.00  0.00     0.169 HD
BRANCH  22  25
HETATM   25  C   UNL     1      23.590  49.455  48.918  1.00  0.00     0.142 A 
HETATM   26  O   UNL     1      24.276  48.532  49.670  1.00  0.00    -0.317 OA
HETATM   27  C   UNL     1      25.591  48.651  49.351  1.00  0.00     0.143 A 
HETATM   28  C   UNL     1      25.770  49.629  48.402  1.00  0.00     0.027 A 
HETATM   29  C   UNL     1      24.482  50.148  48.121  1.00  0.00     0.045 A 
ENDBRANCH  22  25
ENDBRANCH   1  21
TORSDOF 5
ENDMDL
MODEL 6
REMARK VINA RESULT:      -8.0      7.053     12.879
REMARK  5 active torsions:
REMARK  status: ('A' for Active; 'I' for Inactive)
REMARK    1  A    between atoms: C_4  and  C_5 
REMARK       I    between atoms: C_5  and  N_6 
REMARK    2  A    between atoms: N_6  and  C_7 
REMARK    3  A    between atoms: C_10  and  N_11 
REMARK       I    between atoms: N_11  and  C_12 
REMARK       I    between atoms: C_12  and  N_13 
REMARK    4  A    between atoms: N_13  and  C_14 
REMARK    5  A    between atoms: C_14  and  C_15 
ROOT
HETATM    1  C   UNL     1      21.473  49.718  49.504  1.00  0.00     0.035 A 
HETATM    2  C   UNL     1      20.471  48.795  49.199  1.00  0.00     0.032 A 
HETATM    3  C   UNL     1      19.112  49.155  49.276  1.00  0.00     0.032 A 
HETATM    4  C   UNL     1      18.740  50.436  49.680  1.00  0.00     0.036 A 
HETATM    5  C   UNL     1      19.751  51.354  49.990  1.00  0.00     0.032 A 
HETATM    6  C   UNL     1      21.100  51.002  49.904  1.00  0.00     0.032 A 
ENDROOT
BRANCH   4   7
HETATM    7  N   UNL     1      17.427  50.928  49.754  1.00  0.00    -0.309 N 
HETATM    8  C   UNL     1      16.589  51.558  48.899  1.00  0.00     0.321 C 
HETATM    9  N   UNL     1      16.887  51.604  47.581  1.00  0.00    -0.337 N 
HETATM   10  O   UNL     1      15.557  52.053  49.356  1.00  0.00    -0.247 OA
HETATM   11  H   UNL     1      17.387  50.813  47.197  1.00  0.00     0.164 HD
HETATM   12  H   UNL     1      16.992  50.880  50.668  1.00  0.00     0.170 HD
BRANCH   9  13
HETATM   13  C   UNL     1      15.924  52.201  46.679  1.00  0.00     0.183 C 
BRANCH  13  14
HETATM   14  C   UNL     1      16.444  52.388  45.272  1.00  0.00     0.053 A 
HETATM   15  N   UNL     1      16.162  53.549  44.621  1.00  0.00    -0.264 NA
HETATM   16  C   UNL     1      16.662  53.703  43.374  1.00  0.00     0.118 A 
HETATM   17  C   UNL     1      17.451  52.764  42.739  1.00  0.00     0.043 A 
HETATM   18  C   UNL     1      17.740  51.597  43.431  1.00  0.00     0.037 A 
HETATM   19 CL   UNL     1      18.733  50.393  42.704  1.00  0.00    -0.084 Cl
HETATM   20  C   UNL     1      17.239  51.395  44.709  1.00  0.00     0.052 A 
ENDBRANCH  13  14
ENDBRANCH   9  13
ENDBRANCH   4   7
BRANCH   1  21
HETATM   21  N   UNL     1      22.851  49.462  49.410  1.00  0.00    -0.321 N 
HETATM   22  C   UNL     1      23.719  49.743  48.371  1.00  0.00     0.279 C 
HETATM   23  O   UNL     1      23.403  50.224  47.288  1.00  0.00    -0.265 OA
HETATM   24  H   UNL     1      23.295  49.032  50.215  1.00  0.00     0.169 HD
BRANCH  22  25
HETATM   25  C   UNL     1      25.094  49.398  48.697  1.00  0.00     0.142 A 
HETATM   26  O   UNL     1      25.337  48.448  49.661  1.00  0.00    -0.317 OA
HETATM   27  C   UNL     1      26.685  48.334  49.781  1.00  0.00     0.143 A 
HETATM   28  C   UNL     1      27.320  49.186  48.910  1.00  0.00     0.027 A 
HETATM   29  C   UNL     1      26.297  49.872  48.210  1.00  0.00     0.045 A 
ENDBRANCH  22  25
ENDBRANCH   1  21
TORSDOF 5
ENDMDL
MODEL 7
REMARK VINA RESULT:      -7.9      3.742      6.248
REMARK  5 active torsions:
REMARK  status: ('A' for Active; 'I' for Inactive)
REMARK    1  A    between atoms: C_4  and  C_5 
REMARK       I    between atoms: C_5  and  N_6 
REMARK    2  A    between atoms: N_6  and  C_7 
REMARK    3  A    between atoms: C_10  and  N_11 
REMARK       I    between atoms: N_11  and  C_12 
REMARK       I    between atoms: C_12  and  N_13 
REMARK    4  A    between atoms: N_13  and  C_14 
REMARK    5  A    between atoms: C_14  and  C_15 
ROOT
HETATM    1  C   UNL     1      20.796  50.271  48.717  1.00  0.00     0.035 A 
HETATM    2  C   UNL     1      21.197  48.937  48.805  1.00  0.00     0.032 A 
HETATM    3  C   UNL     1      22.563  48.594  48.812  1.00  0.00     0.032 A 
HETATM    4  C   UNL     1      23.542  49.580  48.710  1.00  0.00     0.036 A 
HETATM    5  C   UNL     1      23.131  50.916  48.617  1.00  0.00     0.032 A 
HETATM    6  C   UNL     1      21.777  51.259  48.620  1.00  0.00     0.032 A 
ENDROOT
BRANCH   4   7
HETATM    7  N   UNL     1      24.930  49.372  48.750  1.00  0.00    -0.309 N 
HETATM    8  C   UNL     1      25.745  48.448  49.308  1.00  0.00     0.321 C 
HETATM    9  N   UNL     1      25.223  47.299  49.794  1.00  0.00    -0.337 N 
HETATM   10  O   UNL     1      26.955  48.680  49.332  1.00  0.00    -0.247 OA
HETATM   11  H   UNL     1      24.407  46.932  49.322  1.00  0.00     0.164 HD
HETATM   12  H   UNL     1      25.494  50.100  48.331  1.00  0.00     0.170 HD
BRANCH   9  13
HETATM   13  C   UNL     1      26.130  46.289  50.298  1.00  0.00     0.183 C 
BRANCH  13  14
HETATM   14  C   UNL     1      25.981  46.022  51.778  1.00  0.00     0.053 A 
HETATM   15  N   UNL     1      25.705  44.754  52.187  1.00  0.00    -0.264 NA
HETATM   16  C   UNL     1      25.604  44.536  53.518  1.00  0.00     0.118 A 
HETATM   17  C   UNL     1      25.783  45.516  54.475  1.00  0.00     0.043 A 
HETATM   18  C   UNL     1      26.083  46.796  54.033  1.00  0.00     0.037 A 
HETATM   19 CL   UNL     1      26.335  48.059  55.174  1.00  0.00    -0.084 Cl
HETATM   20  C   UNL     1      26.186  47.065  52.675  1.00  0.00     0.052 A 
ENDBRANCH  13  14
ENDBRANCH   9  13
ENDBRANCH   4   7
BRANCH   1  21
HETATM   21  N   UNL     1      19.461  50.709  48.750  1.00  0.00    -0.321 N 
HETATM   22  C   UNL     1      18.546  50.632  49.784  1.00  0.00     0.279 C 
HETATM   23  O   UNL     1      18.737  50.090  50.867  1.00  0.00    -0.265 OA
HETATM   24  H   UNL     1      19.107  51.167  47.916  1.00  0.00     0.169 HD
BRANCH  22  25
HETATM   25  C   UNL     1      17.287  51.280  49.449  1.00  0.00     0.142 A 
HETATM   26  O   UNL     1      16.537  50.791  48.406  1.00  0.00    -0.317 OA
HETATM   27  C   UNL     1      15.438  51.582  48.298  1.00  0.00     0.143 A 
HETATM   28  C   UNL     1      15.457  52.569  49.253  1.00  0.00     0.027 A 
HETATM   29  C   UNL     1      16.647  52.376  49.997  1.00  0.00     0.045 A 
ENDBRANCH  22  25
ENDBRANCH   1  21
TORSDOF 5
ENDMDL
MODEL 8
REMARK VINA RESULT:      -7.8      4.036      9.650
REMARK  5 active torsions:
REMARK  status: ('A' for Active; 'I' for Inactive)
REMARK    1  A    between atoms: C_4  and  C_5 
REMARK       I    between atoms: C_5  and  N_6 
REMARK    2  A    between atoms: N_6  and  C_7 
REMARK    3  A    between atoms: C_10  and  N_11 
REMARK       I    between atoms: N_11  and  C_12 
REMARK       I    between atoms: C_12  and  N_13 
REMARK    4  A    between atoms: N_13  and  C_14 
REMARK    5  A    between atoms: C_14  and  C_15 
ROOT
HETATM    1  C   UNL     1      26.829  45.344  53.835  1.00  0.00     0.035 A 
HETATM    2  C   UNL     1      26.265  46.495  53.282  1.00  0.00     0.032 A 
HETATM    3  C   UNL     1      25.333  46.407  52.230  1.00  0.00     0.032 A 
HETATM    4  C   UNL     1      24.972  45.167  51.706  1.00  0.00     0.036 A 
HETATM    5  C   UNL     1      25.546  44.017  52.263  1.00  0.00     0.032 A 
HETATM    6  C   UNL     1      26.462  44.102  53.313  1.00  0.00     0.032 A 
ENDROOT
BRANCH   4   7
HETATM    7  N   UNL     1      24.025  44.945  50.693  1.00  0.00    -0.309 N 
HETATM    8  C   UNL     1      23.367  45.727  49.807  1.00  0.00     0.321 C 
HETATM    9  N   UNL     1      23.770  47.003  49.611  1.00  0.00    -0.337 N 
HETATM   10  O   UNL     1      22.425  45.234  49.183  1.00  0.00    -0.247 OA
HETATM   11  H   UNL     1      24.758  47.191  49.706  1.00  0.00     0.164 HD
HETATM   12  H   UNL     1      23.676  43.997  50.620  1.00  0.00     0.170 HD
BRANCH   9  13
HETATM   13  C   UNL     1      23.106  47.785  48.588  1.00  0.00     0.183 C 
BRANCH  13  14
HETATM   14  C   UNL     1      22.198  48.860  49.138  1.00  0.00     0.053 A 
HETATM   15  N   UNL     1      22.756  50.007  49.610  1.00  0.00    -0.264 NA
HETATM   16  C   UNL     1      21.920  50.965  50.072  1.00  0.00     0.118 A 
HETATM   17  C   UNL     1      20.544  50.851  50.071  1.00  0.00     0.043 A 
HETATM   18  C   UNL     1      19.998  49.680  49.566  1.00  0.00     0.037 A 
HETATM   19 CL   UNL     1      18.289  49.482  49.521  1.00  0.00    -0.084 Cl
HETATM   20  C   UNL     1      20.821  48.668  49.092  1.00  0.00     0.052 A 
ENDBRANCH  13  14
ENDBRANCH   9  13
ENDBRANCH   4   7
BRANCH   1  21
HETATM   21  N   UNL     1      27.729  45.333  54.915  1.00  0.00    -0.321 N 
HETATM   22  C   UNL     1      28.988  44.768  54.991  1.00  0.00     0.279 C 
HETATM   23  O   UNL     1      29.525  44.099  54.115  1.00  0.00    -0.265 OA
HETATM   24  H   UNL     1      27.442  45.821  55.757  1.00  0.00     0.169 HD
BRANCH  22  25
HETATM   25  C   UNL     1      29.638  45.051  56.262  1.00  0.00     0.142 A 
HETATM   26  O   UNL     1      30.672  44.247  56.681  1.00  0.00    -0.317 OA
HETATM   27  C   UNL     1      31.078  44.714  57.890  1.00  0.00     0.143 A 
HETATM   28  C   UNL     1      30.333  45.807  58.260  1.00  0.00     0.027 A 
HETATM   29  C   UNL     1      29.405  46.026  57.212  1.00  0.00     0.045 A 
ENDBRANCH  22  25
ENDBRANCH   1  21
TORSDOF 5
ENDMDL
MODEL 9
REMARK VINA RESULT:      -7.6     16.985     20.475
REMARK  5 active torsions:
REMARK  status: ('A' for Active; 'I' for Inactive)
REMARK    1  A    between atoms: C_4  and  C_5 
REMARK       I    between atoms: C_5  and  N_6 
REMARK    2  A    between atoms: N_6  and  C_7 
REMARK    3  A    between atoms: C_10  and  N_11 
REMARK       I    between atoms: N_11  and  C_12 
REMARK       I    between atoms: C_12  and  N_13 
REMARK    4  A    between atoms: N_13  and  C_14 
REMARK    5  A    between atoms: C_14  and  C_15 
ROOT
HETATM    1  C   UNL     1      39.070  40.386  64.279  1.00  0.00     0.035 A 
HETATM    2  C   UNL     1      39.640  41.306  63.398  1.00  0.00     0.032 A 
HETATM    3  C   UNL     1      38.996  42.526  63.113  1.00  0.00     0.032 A 
HETATM    4  C   UNL     1      37.765  42.829  63.691  1.00  0.00     0.036 A 
HETATM    5  C   UNL     1      37.197  41.898  64.570  1.00  0.00     0.032 A 
HETATM    6  C   UNL     1      37.839  40.692  64.862  1.00  0.00     0.032 A 
ENDROOT
BRANCH   4   7
HETATM    7  N   UNL     1      37.047  44.024  63.523  1.00  0.00    -0.309 N 
HETATM    8  C   UNL     1      36.744  45.080  64.312  1.00  0.00     0.321 C 
HETATM    9  N   UNL     1      37.387  45.242  65.491  1.00  0.00    -0.337 N 
HETATM   10  O   UNL     1      35.899  45.881  63.910  1.00  0.00    -0.247 OA
HETATM   11  H   UNL     1      38.346  44.925  65.536  1.00  0.00     0.164 HD
HETATM   12  H   UNL     1      36.571  44.127  62.635  1.00  0.00     0.170 HD
BRANCH   9  13
HETATM   13  C   UNL     1      37.109  46.432  66.268  1.00  0.00     0.183 C 
BRANCH  13  14
HETATM   14  C   UNL     1      37.971  47.616  65.896  1.00  0.00     0.053 A 
HETATM   15  N   UNL     1      39.162  47.387  65.279  1.00  0.00    -0.264 NA
HETATM   16  C   UNL     1      39.903  48.465  64.933  1.00  0.00     0.118 A 
HETATM   17  C   UNL     1      39.510  49.771  65.151  1.00  0.00     0.043 A 
HETATM   18  C   UNL     1      38.283  49.978  65.763  1.00  0.00     0.037 A 
HETATM   19 CL   UNL     1      37.727  51.582  66.048  1.00  0.00    -0.084 Cl
HETATM   20  C   UNL     1      37.497  48.899  66.144  1.00  0.00     0.052 A 
ENDBRANCH  13  14
ENDBRANCH   9  13
ENDBRANCH   4   7
BRANCH   1  21
HETATM   21  N   UNL     1      39.660  39.168  64.658  1.00  0.00    -0.321 N 
HETATM   22  C   UNL     1      40.449  38.890  65.759  1.00  0.00     0.279 C 
HETATM   23  O   UNL     1      40.831  39.708  66.588  1.00  0.00    -0.265 OA
HETATM   24  H   UNL     1      39.478  38.365  64.065  1.00  0.00     0.169 HD
BRANCH  22  25
HETATM   25  C   UNL     1      40.796  37.479  65.840  1.00  0.00     0.142 A 
HETATM   26  O   UNL     1      42.040  37.068  65.423  1.00  0.00    -0.317 OA
HETATM   27  C   UNL     1      42.092  35.721  65.586  1.00  0.00     0.143 A 
HETATM   28  C   UNL     1      40.911  35.251  66.106  1.00  0.00     0.027 A 
HETATM   29  C   UNL     1      40.074  36.382  66.272  1.00  0.00     0.045 A 
ENDBRANCH  22  25
ENDBRANCH   1  21
TORSDOF 5
ENDMDL
MODEL 10
REMARK VINA RESULT:      -7.5      3.687      5.324
REMARK  5 active torsions:
REMARK  status: ('A' for Active; 'I' for Inactive)
REMARK    1  A    between atoms: C_4  and  C_5 
REMARK       I    between atoms: C_5  and  N_6 
REMARK    2  A    between atoms: N_6  and  C_7 
REMARK    3  A    between atoms: C_10  and  N_11 
REMARK       I    between atoms: N_11  and  C_12 
REMARK       I    between atoms: C_12  and  N_13 
REMARK    4  A    between atoms: N_13  and  C_14 
REMARK    5  A    between atoms: C_14  and  C_15 
ROOT
HETATM    1  C   UNL     1      26.082  46.384  50.686  1.00  0.00     0.035 A 
HETATM    2  C   UNL     1      26.778  45.402  49.980  1.00  0.00     0.032 A 
HETATM    3  C   UNL     1      27.345  44.299  50.648  1.00  0.00     0.032 A 
HETATM    4  C   UNL     1      27.239  44.177  52.032  1.00  0.00     0.036 A 
HETATM    5  C   UNL     1      26.542  45.169  52.734  1.00  0.00     0.032 A 
HETATM    6  C   UNL     1      25.971  46.259  52.072  1.00  0.00     0.032 A 
ENDROOT
BRANCH   4   7
HETATM    7  N   UNL     1      27.719  43.108  52.805  1.00  0.00    -0.309 N 
HETATM    8  C   UNL     1      28.043  41.817  52.561  1.00  0.00     0.321 C 
HETATM    9  N   UNL     1      28.172  41.389  51.285  1.00  0.00    -0.337 N 
HETATM   10  O   UNL     1      28.235  41.075  53.525  1.00  0.00    -0.247 OA
HETATM   11  H   UNL     1      28.514  42.059  50.610  1.00  0.00     0.164 HD
HETATM   12  H   UNL     1      27.790  43.284  53.800  1.00  0.00     0.170 HD
BRANCH   9  13
HETATM   13  C   UNL     1      28.612  40.028  51.058  1.00  0.00     0.183 C 
BRANCH  13  14
HETATM   14  C   UNL     1      28.399  39.548  49.640  1.00  0.00     0.053 A 
HETATM   15  N   UNL     1      28.216  38.218  49.422  1.00  0.00    -0.264 NA
HETATM   16  C   UNL     1      28.000  37.818  48.149  1.00  0.00     0.118 A 
HETATM   17  C   UNL     1      27.936  38.680  47.072  1.00  0.00     0.043 A 
HETATM   18  C   UNL     1      28.105  40.033  47.322  1.00  0.00     0.037 A 
HETATM   19 CL   UNL     1      28.020  41.163  46.026  1.00  0.00    -0.084 Cl
HETATM   20  C   UNL     1      28.340  40.485  48.614  1.00  0.00     0.052 A 
ENDBRANCH  13  14
ENDBRANCH   9  13
ENDBRANCH   4   7
BRANCH   1  21
HETATM   21  N   UNL     1      25.445  47.491  50.100  1.00  0.00    -0.321 N 
HETATM   22  C   UNL     1      24.206  47.559  49.490  1.00  0.00     0.279 C 
HETATM   23  O   UNL     1      23.454  46.611  49.294  1.00  0.00    -0.265 OA
HETATM   24  H   UNL     1      25.937  48.378  50.139  1.00  0.00     0.169 HD
BRANCH  22  25
HETATM   25  C   UNL     1      23.870  48.915  49.084  1.00  0.00     0.142 A 
HETATM   26  O   UNL     1      22.933  49.619  49.804  1.00  0.00    -0.317 OA
HETATM   27  C   UNL     1      22.797  50.831  49.207  1.00  0.00     0.143 A 
HETATM   28  C   UNL     1      23.631  50.930  48.119  1.00  0.00     0.027 A 
HETATM   29  C   UNL     1      24.324  49.698  48.039  1.00  0.00     0.045 A 
ENDBRANCH  22  25
ENDBRANCH   1  21
TORSDOF 5
ENDMDL
