MODEL 1
REMARK VINA RESULT:      -8.5      0.000      0.000
REMARK  7 active torsions:
REMARK  status: ('A' for Active; 'I' for Inactive)
REMARK    1  A    between atoms: C_3  and  N_4 
REMARK       I    between atoms: N_4  and  C_5 
REMARK    2  A    between atoms: C_5  and  C_6 
REMARK    3  A    between atoms: C_7  and  C_8 
REMARK    4  A    between atoms: C_19  and  C_20 
REMARK    5  A    between atoms: C_20  and  C_21 
REMARK    6  A    between atoms: C_21  and  C_22 
REMARK    7  A    between atoms: C_22  and  O_23 
ROOT
HETATM    1  C   UNL     1      25.482  45.227  52.265  1.00  0.00     0.062 A 
HETATM    2  C   UNL     1      24.717  44.375  51.260  1.00  0.00     0.202 A 
HETATM    3  N   UNL     1      24.108  45.204  50.211  1.00  0.00    -0.083 N 
HETATM    4  C   UNL     1      24.155  46.572  50.194  1.00  0.00     0.726 A 
HETATM    5  N   UNL     1      24.811  47.224  51.171  1.00  0.00    -0.192 N 
HETATM    6  N   UNL     1      23.341  44.729  49.206  1.00  0.00    -0.140 NA
HETATM    7  C   UNL     1      23.038  45.867  48.564  1.00  0.00     0.166 A 
HETATM    8  N   UNL     1      23.501  47.018  49.154  1.00  0.00    -0.046 NA
HETATM    9  C   UNL     1      25.506  46.580  52.187  1.00  0.00     0.037 A 
HETATM   10  C   UNL     1      26.247  47.477  53.147  1.00  0.00     0.070 C 
HETATM   11  H   UNL     1      24.887  48.237  51.116  1.00  0.00     0.184 HD
ENDROOT
BRANCH   1  12
HETATM   12  C   UNL     1      26.317  44.519  53.268  1.00  0.00     0.256 C 
HETATM   13  N   UNL     1      27.658  44.816  53.159  1.00  0.00    -0.323 N 
HETATM   14  H   UNL     1      27.939  45.402  52.387  1.00  0.00     0.169 HD
HETATM   15  O   UNL     1      25.775  43.754  54.055  1.00  0.00    -0.267 OA
BRANCH  13  16
HETATM   16  C   UNL     1      28.708  44.351  53.991  1.00  0.00     0.041 A 
HETATM   17  C   UNL     1      29.408  43.181  53.621  1.00  0.00    -0.035 A 
HETATM   18  C   UNL     1      29.091  42.409  52.368  1.00  0.00     0.050 C 
HETATM   19  C   UNL     1      30.458  42.716  54.436  1.00  0.00     0.009 A 
HETATM   20  C   UNL     1      30.812  43.390  55.602  1.00  0.00     0.001 A 
HETATM   21  C   UNL     1      30.126  44.541  55.965  1.00  0.00     0.002 A 
HETATM   22  C   UNL     1      29.084  45.017  55.165  1.00  0.00     0.030 A 
ENDBRANCH  13  16
ENDBRANCH   1  12
BRANCH   2  23
HETATM   23  C   UNL     1      25.540  43.251  50.645  1.00  0.00    -0.025 A 
HETATM   24  C   UNL     1      25.326  41.925  51.057  1.00  0.00     0.052 A 
HETATM   25  C   UNL     1      26.083  40.893  50.512  1.00  0.00     0.117 A 
HETATM   26  F   UNL     1      25.866  39.634  50.918  1.00  0.00    -0.206 F 
HETATM   27  C   UNL     1      27.058  41.146  49.558  1.00  0.00     0.042 A 
HETATM   28  C   UNL     1      27.278  42.455  49.134  1.00  0.00     0.004 A 
HETATM   29  C   UNL     1      26.524  43.501  49.671  1.00  0.00     0.010 A 
ENDBRANCH   2  23
BRANCH   7  30
HETATM   30  C   UNL     1      22.269  45.888  47.293  1.00  0.00     0.085 C 
BRANCH  30  31
HETATM   31  C   UNL     1      20.993  45.053  47.352  1.00  0.00     0.034 C 
BRANCH  31  32
HETATM   32  C   UNL     1      19.976  45.586  48.355  1.00  0.00     0.164 C 
BRANCH  32  33
HETATM   33  O   UNL     1      20.129  44.906  49.596  1.00  0.00    -0.401 OA
HETATM   34  H   UNL     1      19.249  44.603  49.877  1.00  0.00     0.209 HD
ENDBRANCH  32  33
ENDBRANCH  31  32
ENDBRANCH  30  31
ENDBRANCH   7  30
TORSDOF 7
ENDMDL
MODEL 2
REMARK VINA RESULT:      -8.2      3.466      5.928
REMARK  7 active torsions:
REMARK  status: ('A' for Active; 'I' for Inactive)
REMARK    1  A    between atoms: C_3  and  N_4 
REMARK       I    between atoms: N_4  and  C_5 
REMARK    2  A    between atoms: C_5  and  C_6 
REMARK    3  A    between atoms: C_7  and  C_8 
REMARK    4  A    between atoms: C_19  and  C_20 
REMARK    5  A    between atoms: C_20  and  C_21 
REMARK    6  A    between atoms: C_21  and  C_22 
REMARK    7  A    between atoms: C_22  and  O_23 
ROOT
HETATM    1  C   UNL     1      27.355  42.643  51.711  1.00  0.00     0.062 A 
HETATM    2  C   UNL     1      27.059  42.930  50.244  1.00  0.00     0.202 A 
HETATM    3  N   UNL     1      27.501  41.824  49.384  1.00  0.00    -0.083 N 
HETATM    4  C   UNL     1      28.168  40.719  49.841  1.00  0.00     0.726 A 
HETATM    5  N   UNL     1      28.429  40.600  51.156  1.00  0.00    -0.192 N 
HETATM    6  N   UNL     1      27.402  41.812  48.037  1.00  0.00    -0.140 NA
HETATM    7  C   UNL     1      27.947  40.620  47.757  1.00  0.00     0.166 A 
HETATM    8  N   UNL     1      28.448  39.932  48.836  1.00  0.00    -0.046 NA
HETATM    9  C   UNL     1      28.005  41.521  52.105  1.00  0.00     0.037 A 
HETATM   10  C   UNL     1      28.323  41.179  53.540  1.00  0.00     0.070 C 
HETATM   11  H   UNL     1      28.873  39.749  51.489  1.00  0.00     0.184 HD
ENDROOT
BRANCH   1  12
HETATM   12  C   UNL     1      26.788  43.575  52.719  1.00  0.00     0.256 C 
HETATM   13  N   UNL     1      27.547  44.713  52.887  1.00  0.00    -0.323 N 
HETATM   14  H   UNL     1      28.421  44.762  52.386  1.00  0.00     0.169 HD
HETATM   15  O   UNL     1      25.757  43.262  53.300  1.00  0.00    -0.267 OA
BRANCH  13  16
HETATM   16  C   UNL     1      27.258  45.818  53.728  1.00  0.00     0.041 A 
HETATM   17  C   UNL     1      28.014  45.995  54.909  1.00  0.00    -0.035 A 
HETATM   18  C   UNL     1      29.125  45.062  55.308  1.00  0.00     0.050 C 
HETATM   19  C   UNL     1      27.741  47.094  55.745  1.00  0.00     0.009 A 
HETATM   20  C   UNL     1      26.735  48.003  55.429  1.00  0.00     0.001 A 
HETATM   21  C   UNL     1      25.993  47.830  54.269  1.00  0.00     0.002 A 
HETATM   22  C   UNL     1      26.255  46.748  53.425  1.00  0.00     0.030 A 
ENDBRANCH  13  16
ENDBRANCH   1  12
BRANCH   2  23
HETATM   23  C   UNL     1      25.605  43.283  49.961  1.00  0.00    -0.025 A 
HETATM   24  C   UNL     1      25.275  44.574  49.515  1.00  0.00     0.052 A 
HETATM   25  C   UNL     1      23.948  44.910  49.267  1.00  0.00     0.117 A 
HETATM   26  F   UNL     1      23.652  46.146  48.844  1.00  0.00    -0.206 F 
HETATM   27  C   UNL     1      22.928  43.987  49.453  1.00  0.00     0.042 A 
HETATM   28  C   UNL     1      23.240  42.700  49.890  1.00  0.00     0.004 A 
HETATM   29  C   UNL     1      24.569  42.348  50.140  1.00  0.00     0.010 A 
ENDBRANCH   2  23
BRANCH   7  30
HETATM   30  C   UNL     1      27.996  40.065  46.379  1.00  0.00     0.085 C 
BRANCH  30  31
HETATM   31  C   UNL     1      27.442  38.645  46.288  1.00  0.00     0.034 C 
BRANCH  31  32
HETATM   32  C   UNL     1      28.534  37.582  46.220  1.00  0.00     0.164 C 
BRANCH  32  33
HETATM   33  O   UNL     1      28.866  37.157  47.538  1.00  0.00    -0.401 OA
HETATM   34  H   UNL     1      29.678  36.626  47.480  1.00  0.00     0.209 HD
ENDBRANCH  32  33
ENDBRANCH  31  32
ENDBRANCH  30  31
ENDBRANCH   7  30
TORSDOF 7
ENDMDL
MODEL 3
REMARK VINA RESULT:      -8.2      3.051      4.198
REMARK  7 active torsions:
REMARK  status: ('A' for Active; 'I' for Inactive)
REMARK    1  A    between atoms: C_3  and  N_4 
REMARK       I    between atoms: N_4  and  C_5 
REMARK    2  A    between atoms: C_5  and  C_6 
REMARK    3  A    between atoms: C_7  and  C_8 
REMARK    4  A    between atoms: C_19  and  C_20 
REMARK    5  A    between atoms: C_20  and  C_21 
REMARK    6  A    between atoms: C_21  and  C_22 
REMARK    7  A    between atoms: C_22  and  O_23 
ROOT
HETATM    1  C   UNL     1      25.626  47.409  49.781  1.00  0.00     0.062 A 
HETATM    2  C   UNL     1      24.106  47.322  49.846  1.00  0.00     0.202 A 
HETATM    3  N   UNL     1      23.477  48.490  49.215  1.00  0.00    -0.083 N 
HETATM    4  C   UNL     1      24.173  49.556  48.713  1.00  0.00     0.726 A 
HETATM    5  N   UNL     1      25.518  49.551  48.763  1.00  0.00    -0.192 N 
HETATM    6  N   UNL     1      22.145  48.704  49.155  1.00  0.00    -0.140 NA
HETATM    7  C   UNL     1      22.110  49.881  48.513  1.00  0.00     0.166 A 
HETATM    8  N   UNL     1      23.335  50.443  48.245  1.00  0.00    -0.046 NA
HETATM    9  C   UNL     1      26.261  48.485  49.254  1.00  0.00     0.037 A 
HETATM   10  C   UNL     1      27.759  48.628  49.157  1.00  0.00     0.070 C 
HETATM   11  H   UNL     1      26.024  50.321  48.334  1.00  0.00     0.184 HD
ENDROOT
BRANCH   1  12
HETATM   12  C   UNL     1      26.399  46.211  50.196  1.00  0.00     0.256 C 
HETATM   13  N   UNL     1      26.308  45.952  51.547  1.00  0.00    -0.323 N 
HETATM   14  H   UNL     1      25.807  46.623  52.111  1.00  0.00     0.169 HD
HETATM   15  O   UNL     1      27.037  45.596  49.351  1.00  0.00    -0.267 OA
BRANCH  13  16
HETATM   16  C   UNL     1      26.879  44.861  52.249  1.00  0.00     0.041 A 
HETATM   17  C   UNL     1      27.330  45.061  53.574  1.00  0.00    -0.035 A 
HETATM   18  C   UNL     1      27.220  46.389  54.276  1.00  0.00     0.050 C 
HETATM   19  C   UNL     1      27.890  43.983  54.284  1.00  0.00     0.009 A 
HETATM   20  C   UNL     1      28.011  42.725  53.699  1.00  0.00     0.001 A 
HETATM   21  C   UNL     1      27.566  42.527  52.398  1.00  0.00     0.002 A 
HETATM   22  C   UNL     1      27.004  43.587  51.682  1.00  0.00     0.030 A 
ENDBRANCH  13  16
ENDBRANCH   1  12
BRANCH   2  23
HETATM   23  C   UNL     1      23.533  46.030  49.278  1.00  0.00    -0.025 A 
HETATM   24  C   UNL     1      23.342  44.922  50.120  1.00  0.00     0.052 A 
HETATM   25  C   UNL     1      22.832  43.734  49.608  1.00  0.00     0.117 A 
HETATM   26  F   UNL     1      22.658  42.687  50.426  1.00  0.00    -0.206 F 
HETATM   27  C   UNL     1      22.504  43.615  48.265  1.00  0.00     0.042 A 
HETATM   28  C   UNL     1      22.683  44.707  47.417  1.00  0.00     0.004 A 
HETATM   29  C   UNL     1      23.191  45.908  47.919  1.00  0.00     0.010 A 
ENDBRANCH   2  23
BRANCH   7  30
HETATM   30  C   UNL     1      20.839  50.530  48.099  1.00  0.00     0.085 C 
BRANCH  30  31
HETATM   31  C   UNL     1      20.186  51.334  49.222  1.00  0.00     0.034 C 
BRANCH  31  32
HETATM   32  C   UNL     1      19.092  50.561  49.950  1.00  0.00     0.164 C 
BRANCH  32  33
HETATM   33  O   UNL     1      19.679  49.732  50.948  1.00  0.00    -0.401 OA
HETATM   34  H   UNL     1      20.556  50.096  51.155  1.00  0.00     0.209 HD
ENDBRANCH  32  33
ENDBRANCH  31  32
ENDBRANCH  30  31
ENDBRANCH   7  30
TORSDOF 7
ENDMDL
MODEL 4
REMARK VINA RESULT:      -7.9      3.065      5.325
REMARK  7 active torsions:
REMARK  status: ('A' for Active; 'I' for Inactive)
REMARK    1  A    between atoms: C_3  and  N_4 
REMARK       I    between atoms: N_4  and  C_5 
REMARK    2  A    between atoms: C_5  and  C_6 
REMARK    3  A    between atoms: C_7  and  C_8 
REMARK    4  A    between atoms: C_19  and  C_20 
REMARK    5  A    between atoms: C_20  and  C_21 
REMARK    6  A    between atoms: C_21  and  C_22 
REMARK    7  A    between atoms: C_22  and  O_23 
ROOT
HETATM    1  C   UNL     1      25.637  42.647  49.606  1.00  0.00     0.062 A 
HETATM    2  C   UNL     1      26.283  43.946  50.074  1.00  0.00     0.202 A 
HETATM    3  N   UNL     1      25.444  45.107  49.749  1.00  0.00    -0.083 N 
HETATM    4  C   UNL     1      24.276  45.032  49.039  1.00  0.00     0.726 A 
HETATM    5  N   UNL     1      23.831  43.833  48.623  1.00  0.00    -0.192 N 
HETATM    6  N   UNL     1      25.776  46.390  50.010  1.00  0.00    -0.140 NA
HETATM    7  C   UNL     1      24.708  47.031  49.511  1.00  0.00     0.166 A 
HETATM    8  N   UNL     1      23.779  46.231  48.890  1.00  0.00    -0.046 NA
HETATM    9  C   UNL     1      24.468  42.635  48.920  1.00  0.00     0.037 A 
HETATM   10  C   UNL     1      23.777  41.385  48.434  1.00  0.00     0.070 C 
HETATM   11  H   UNL     1      22.933  43.785  48.147  1.00  0.00     0.184 HD
ENDROOT
BRANCH   1  12
HETATM   12  C   UNL     1      26.267  41.374  50.039  1.00  0.00     0.256 C 
HETATM   13  N   UNL     1      27.408  41.069  49.330  1.00  0.00    -0.323 N 
HETATM   14  H   UNL     1      27.651  41.678  48.562  1.00  0.00     0.169 HD
HETATM   15  O   UNL     1      25.735  40.725  50.931  1.00  0.00    -0.267 OA
BRANCH  13  16
HETATM   16  C   UNL     1      28.269  39.960  49.530  1.00  0.00     0.041 A 
HETATM   17  C   UNL     1      28.571  39.122  48.434  1.00  0.00    -0.035 A 
HETATM   18  C   UNL     1      28.023  39.364  47.053  1.00  0.00     0.050 C 
HETATM   19  C   UNL     1      29.432  38.024  48.619  1.00  0.00     0.009 A 
HETATM   20  C   UNL     1      29.984  37.749  49.868  1.00  0.00     0.001 A 
HETATM   21  C   UNL     1      29.689  38.574  50.945  1.00  0.00     0.002 A 
HETATM   22  C   UNL     1      28.840  39.670  50.776  1.00  0.00     0.030 A 
ENDBRANCH  13  16
ENDBRANCH   1  12
BRANCH   2  23
HETATM   23  C   UNL     1      26.662  43.953  51.549  1.00  0.00    -0.025 A 
HETATM   24  C   UNL     1      25.657  44.036  52.527  1.00  0.00     0.052 A 
HETATM   25  C   UNL     1      25.994  44.057  53.876  1.00  0.00     0.117 A 
HETATM   26  F   UNL     1      25.021  44.138  54.795  1.00  0.00    -0.206 F 
HETATM   27  C   UNL     1      27.319  43.998  54.285  1.00  0.00     0.042 A 
HETATM   28  C   UNL     1      28.327  43.910  53.327  1.00  0.00     0.004 A 
HETATM   29  C   UNL     1      28.003  43.885  51.968  1.00  0.00     0.010 A 
ENDBRANCH   2  23
BRANCH   7  30
HETATM   30  C   UNL     1      24.526  48.500  49.635  1.00  0.00     0.085 C 
BRANCH  30  31
HETATM   31  C   UNL     1      25.133  49.277  48.469  1.00  0.00     0.034 C 
BRANCH  31  32
HETATM   32  C   UNL     1      26.587  49.669  48.705  1.00  0.00     0.164 C 
BRANCH  32  33
HETATM   33  O   UNL     1      27.427  48.542  48.479  1.00  0.00    -0.401 OA
HETATM   34  H   UNL     1      27.756  48.242  49.343  1.00  0.00     0.209 HD
ENDBRANCH  32  33
ENDBRANCH  31  32
ENDBRANCH  30  31
ENDBRANCH   7  30
TORSDOF 7
ENDMDL
MODEL 5
REMARK VINA RESULT:      -7.9      3.740      8.634
REMARK  7 active torsions:
REMARK  status: ('A' for Active; 'I' for Inactive)
REMARK    1  A    between atoms: C_3  and  N_4 
REMARK       I    between atoms: N_4  and  C_5 
REMARK    2  A    between atoms: C_5  and  C_6 
REMARK    3  A    between atoms: C_7  and  C_8 
REMARK    4  A    between atoms: C_19  and  C_20 
REMARK    5  A    between atoms: C_20  and  C_21 
REMARK    6  A    between atoms: C_21  and  C_22 
REMARK    7  A    between atoms: C_22  and  O_23 
ROOT
HETATM    1  C   UNL     1      23.240  46.366  49.370  1.00  0.00     0.062 A 
HETATM    2  C   UNL     1      24.387  46.828  50.261  1.00  0.00     0.202 A 
HETATM    3  N   UNL     1      25.181  45.690  50.743  1.00  0.00    -0.083 N 
HETATM    4  C   UNL     1      24.872  44.381  50.491  1.00  0.00     0.726 A 
HETATM    5  N   UNL     1      23.796  44.088  49.738  1.00  0.00    -0.192 N 
HETATM    6  N   UNL     1      26.237  45.791  51.579  1.00  0.00    -0.140 NA
HETATM    7  C   UNL     1      26.575  44.500  51.711  1.00  0.00     0.166 A 
HETATM    8  N   UNL     1      25.747  43.606  51.075  1.00  0.00    -0.046 NA
HETATM    9  C   UNL     1      22.994  45.053  49.143  1.00  0.00     0.037 A 
HETATM   10  C   UNL     1      21.879  44.534  48.269  1.00  0.00     0.070 C 
HETATM   11  H   UNL     1      23.611  43.114  49.510  1.00  0.00     0.184 HD
ENDROOT
BRANCH   1  12
HETATM   12  C   UNL     1      22.472  47.411  48.646  1.00  0.00     0.256 C 
HETATM   13  N   UNL     1      21.671  48.164  49.477  1.00  0.00    -0.323 N 
HETATM   14  H   UNL     1      21.628  47.890  50.447  1.00  0.00     0.169 HD
HETATM   15  O   UNL     1      22.593  47.498  47.430  1.00  0.00    -0.267 OA
BRANCH  13  16
HETATM   16  C   UNL     1      20.858  49.266  49.112  1.00  0.00     0.041 A 
HETATM   17  C   UNL     1      19.462  49.077  48.994  1.00  0.00    -0.035 A 
HETATM   18  C   UNL     1      18.799  47.750  49.250  1.00  0.00     0.050 C 
HETATM   19  C   UNL     1      18.644  50.167  48.641  1.00  0.00     0.009 A 
HETATM   20  C   UNL     1      19.191  51.426  48.402  1.00  0.00     0.001 A 
HETATM   21  C   UNL     1      20.561  51.612  48.520  1.00  0.00     0.002 A 
HETATM   22  C   UNL     1      21.386  50.542  48.873  1.00  0.00     0.030 A 
ENDBRANCH  13  16
ENDBRANCH   1  12
BRANCH   2  23
HETATM   23  C   UNL     1      25.287  47.877  49.620  1.00  0.00    -0.025 A 
HETATM   24  C   UNL     1      24.714  48.974  48.954  1.00  0.00     0.052 A 
HETATM   25  C   UNL     1      25.527  49.930  48.354  1.00  0.00     0.117 A 
HETATM   26  F   UNL     1      24.963  50.969  47.722  1.00  0.00    -0.206 F 
HETATM   27  C   UNL     1      26.910  49.824  48.399  1.00  0.00     0.042 A 
HETATM   28  C   UNL     1      27.494  48.745  49.060  1.00  0.00     0.004 A 
HETATM   29  C   UNL     1      26.689  47.779  49.670  1.00  0.00     0.010 A 
ENDBRANCH   2  23
BRANCH   7  30
HETATM   30  C   UNL     1      27.771  44.059  52.474  1.00  0.00     0.085 C 
BRANCH  30  31
HETATM   31  C   UNL     1      27.500  42.845  53.361  1.00  0.00     0.034 C 
BRANCH  31  32
HETATM   32  C   UNL     1      28.008  41.540  52.758  1.00  0.00     0.164 C 
BRANCH  32  33
HETATM   33  O   UNL     1      26.914  40.806  52.220  1.00  0.00    -0.401 OA
HETATM   34  H   UNL     1      26.927  40.922  51.255  1.00  0.00     0.209 HD
ENDBRANCH  32  33
ENDBRANCH  31  32
ENDBRANCH  30  31
ENDBRANCH   7  30
TORSDOF 7
ENDMDL
MODEL 6
REMARK VINA RESULT:      -7.8      3.099      4.688
REMARK  7 active torsions:
REMARK  status: ('A' for Active; 'I' for Inactive)
REMARK    1  A    between atoms: C_3  and  N_4 
REMARK       I    between atoms: N_4  and  C_5 
REMARK    2  A    between atoms: C_5  and  C_6 
REMARK    3  A    between atoms: C_7  and  C_8 
REMARK    4  A    between atoms: C_19  and  C_20 
REMARK    5  A    between atoms: C_20  and  C_21 
REMARK    6  A    between atoms: C_21  and  C_22 
REMARK    7  A    between atoms: C_22  and  O_23 
ROOT
HETATM    1  C   UNL     1      27.957  42.429  51.606  1.00  0.00     0.062 A 
HETATM    2  C   UNL     1      27.200  43.109  50.471  1.00  0.00     0.202 A 
HETATM    3  N   UNL     1      26.192  42.213  49.889  1.00  0.00    -0.083 N 
HETATM    4  C   UNL     1      26.019  40.908  50.266  1.00  0.00     0.726 A 
HETATM    5  N   UNL     1      26.789  40.395  51.244  1.00  0.00    -0.192 N 
HETATM    6  N   UNL     1      25.395  42.529  48.845  1.00  0.00    -0.140 NA
HETATM    7  C   UNL     1      24.698  41.391  48.710  1.00  0.00     0.166 A 
HETATM    8  N   UNL     1      25.069  40.369  49.550  1.00  0.00    -0.046 NA
HETATM    9  C   UNL     1      27.729  41.137  51.946  1.00  0.00     0.037 A 
HETATM   10  C   UNL     1      28.441  40.411  53.060  1.00  0.00     0.070 C 
HETATM   11  H   UNL     1      26.611  39.443  51.554  1.00  0.00     0.184 HD
ENDROOT
BRANCH   1  12
HETATM   12  C   UNL     1      28.867  43.271  52.423  1.00  0.00     0.256 C 
HETATM   13  N   UNL     1      28.444  43.414  53.726  1.00  0.00    -0.323 N 
HETATM   14  H   UNL     1      27.550  43.012  53.967  1.00  0.00     0.169 HD
HETATM   15  O   UNL     1      29.856  43.760  51.892  1.00  0.00    -0.267 OA
BRANCH  13  16
HETATM   16  C   UNL     1      29.108  44.106  54.770  1.00  0.00     0.041 A 
HETATM   17  C   UNL     1      28.561  45.320  55.244  1.00  0.00    -0.035 A 
HETATM   18  C   UNL     1      27.290  45.907  54.689  1.00  0.00     0.050 C 
HETATM   19  C   UNL     1      29.207  46.010  56.286  1.00  0.00     0.009 A 
HETATM   20  C   UNL     1      30.380  45.517  56.853  1.00  0.00     0.001 A 
HETATM   21  C   UNL     1      30.917  44.324  56.390  1.00  0.00     0.002 A 
HETATM   22  C   UNL     1      30.285  43.625  55.359  1.00  0.00     0.030 A 
ENDBRANCH  13  16
ENDBRANCH   1  12
BRANCH   2  23
HETATM   23  C   UNL     1      26.575  44.444  50.853  1.00  0.00    -0.025 A 
HETATM   24  C   UNL     1      27.015  45.624  50.229  1.00  0.00     0.052 A 
HETATM   25  C   UNL     1      26.460  46.849  50.581  1.00  0.00     0.117 A 
HETATM   26  F   UNL     1      26.893  47.964  49.976  1.00  0.00    -0.206 F 
HETATM   27  C   UNL     1      25.469  46.936  51.549  1.00  0.00     0.042 A 
HETATM   28  C   UNL     1      25.018  45.774  52.173  1.00  0.00     0.004 A 
HETATM   29  C   UNL     1      25.565  44.536  51.827  1.00  0.00     0.010 A 
ENDBRANCH   2  23
BRANCH   7  30
HETATM   30  C   UNL     1      23.588  41.244  47.734  1.00  0.00     0.085 C 
BRANCH  30  31
HETATM   31  C   UNL     1      24.049  41.356  46.282  1.00  0.00     0.034 C 
BRANCH  31  32
HETATM   32  C   UNL     1      23.518  42.602  45.581  1.00  0.00     0.164 C 
BRANCH  32  33
HETATM   33  O   UNL     1      23.893  43.760  46.320  1.00  0.00    -0.401 OA
HETATM   34  H   UNL     1      23.572  44.537  45.832  1.00  0.00     0.209 HD
ENDBRANCH  32  33
ENDBRANCH  31  32
ENDBRANCH  30  31
ENDBRANCH   7  30
TORSDOF 7
ENDMDL
MODEL 7
REMARK VINA RESULT:      -7.8      2.734      8.295
REMARK  7 active torsions:
REMARK  status: ('A' for Active; 'I' for Inactive)
REMARK    1  A    between atoms: C_3  and  N_4 
REMARK       I    between atoms: N_4  and  C_5 
REMARK    2  A    between atoms: C_5  and  C_6 
REMARK    3  A    between atoms: C_7  and  C_8 
REMARK    4  A    between atoms: C_19  and  C_20 
REMARK    5  A    between atoms: C_20  and  C_21 
REMARK    6  A    between atoms: C_21  and  C_22 
REMARK    7  A    between atoms: C_22  and  O_23 
ROOT
HETATM    1  C   UNL     1      25.690  42.366  51.052  1.00  0.00     0.062 A 
HETATM    2  C   UNL     1      26.211  43.405  52.038  1.00  0.00     0.202 A 
HETATM    3  N   UNL     1      27.566  43.073  52.498  1.00  0.00    -0.083 N 
HETATM    4  C   UNL     1      28.234  41.931  52.149  1.00  0.00     0.726 A 
HETATM    5  N   UNL     1      27.649  41.051  51.314  1.00  0.00    -0.192 N 
HETATM    6  N   UNL     1      28.267  43.792  53.402  1.00  0.00    -0.140 NA
HETATM    7  C   UNL     1      29.394  43.069  53.476  1.00  0.00     0.166 A 
HETATM    8  N   UNL     1      29.400  41.910  52.737  1.00  0.00    -0.046 NA
HETATM    9  C   UNL     1      26.407  41.261  50.731  1.00  0.00     0.037 A 
HETATM   10  C   UNL     1      25.949  40.201  49.761  1.00  0.00     0.070 C 
HETATM   11  H   UNL     1      28.179  40.236  51.017  1.00  0.00     0.184 HD
ENDROOT
BRANCH   1  12
HETATM   12  C   UNL     1      24.419  42.668  50.347  1.00  0.00     0.256 C 
HETATM   13  N   UNL     1      24.591  42.890  48.998  1.00  0.00    -0.323 N 
HETATM   14  H   UNL     1      25.538  42.902  48.650  1.00  0.00     0.169 HD
HETATM   15  O   UNL     1      23.380  42.712  50.993  1.00  0.00    -0.267 OA
BRANCH  13  16
HETATM   16  C   UNL     1      23.579  43.148  48.038  1.00  0.00     0.041 A 
HETATM   17  C   UNL     1      23.034  44.449  47.952  1.00  0.00    -0.035 A 
HETATM   18  C   UNL     1      23.490  45.579  48.835  1.00  0.00     0.050 C 
HETATM   19  C   UNL     1      22.036  44.718  46.997  1.00  0.00     0.009 A 
HETATM   20  C   UNL     1      21.576  43.722  46.139  1.00  0.00     0.001 A 
HETATM   21  C   UNL     1      22.114  42.444  46.222  1.00  0.00     0.002 A 
HETATM   22  C   UNL     1      23.108  42.162  47.162  1.00  0.00     0.030 A 
ENDBRANCH  13  16
ENDBRANCH   1  12
BRANCH   2  23
HETATM   23  C   UNL     1      26.156  44.836  51.519  1.00  0.00    -0.025 A 
HETATM   24  C   UNL     1      26.972  45.219  50.441  1.00  0.00     0.052 A 
HETATM   25  C   UNL     1      26.939  46.526  49.969  1.00  0.00     0.117 A 
HETATM   26  F   UNL     1      27.726  46.874  48.941  1.00  0.00    -0.206 F 
HETATM   27  C   UNL     1      26.106  47.476  50.545  1.00  0.00     0.042 A 
HETATM   28  C   UNL     1      25.286  47.110  51.611  1.00  0.00     0.004 A 
HETATM   29  C   UNL     1      25.307  45.799  52.094  1.00  0.00     0.010 A 
ENDBRANCH   2  23
BRANCH   7  30
HETATM   30  C   UNL     1      30.567  43.494  54.283  1.00  0.00     0.085 C 
BRANCH  30  31
HETATM   31  C   UNL     1      30.492  43.028  55.735  1.00  0.00     0.034 C 
BRANCH  31  32
HETATM   32  C   UNL     1      31.312  43.897  56.683  1.00  0.00     0.164 C 
BRANCH  32  33
HETATM   33  O   UNL     1      32.089  43.065  57.539  1.00  0.00    -0.401 OA
HETATM   34  H   UNL     1      33.019  43.331  57.442  1.00  0.00     0.209 HD
ENDBRANCH  32  33
ENDBRANCH  31  32
ENDBRANCH  30  31
ENDBRANCH   7  30
TORSDOF 7
ENDMDL
MODEL 8
REMARK VINA RESULT:      -7.6     17.548     20.470
REMARK  7 active torsions:
REMARK  status: ('A' for Active; 'I' for Inactive)
REMARK    1  A    between atoms: C_3  and  N_4 
REMARK       I    between atoms: N_4  and  C_5 
REMARK    2  A    between atoms: C_5  and  C_6 
REMARK    3  A    between atoms: C_7  and  C_8 
REMARK    4  A    between atoms: C_19  and  C_20 
REMARK    5  A    between atoms: C_20  and  C_21 
REMARK    6  A    between atoms: C_21  and  C_22 
REMARK    7  A    between atoms: C_22  and  O_23 
ROOT
HETATM    1  C   UNL     1      38.848  45.750  64.628  1.00  0.00     0.062 A 
HETATM    2  C   UNL     1      39.995  45.079  63.881  1.00  0.00     0.202 A 
HETATM    3  N   UNL     1      41.283  45.707  64.204  1.00  0.00    -0.083 N 
HETATM    4  C   UNL     1      41.417  46.807  65.007  1.00  0.00     0.726 A 
HETATM    5  N   UNL     1      40.323  47.355  65.568  1.00  0.00    -0.192 N 
HETATM    6  N   UNL     1      42.468  45.347  63.666  1.00  0.00    -0.140 NA
HETATM    7  C   UNL     1      43.291  46.218  64.268  1.00  0.00     0.166 A 
HETATM    8  N   UNL     1      42.678  47.142  65.081  1.00  0.00    -0.046 NA
HETATM    9  C   UNL     1      39.046  46.829  65.424  1.00  0.00     0.037 A 
HETATM   10  C   UNL     1      37.955  47.534  66.192  1.00  0.00     0.070 C 
HETATM   11  H   UNL     1      40.443  48.136  66.208  1.00  0.00     0.184 HD
ENDROOT
BRANCH   1  12
HETATM   12  C   UNL     1      37.514  45.102  64.560  1.00  0.00     0.256 C 
HETATM   13  N   UNL     1      37.279  44.240  65.609  1.00  0.00    -0.323 N 
HETATM   14  H   UNL     1      38.040  44.081  66.254  1.00  0.00     0.169 HD
HETATM   15  O   UNL     1      36.779  45.359  63.615  1.00  0.00    -0.267 OA
BRANCH  13  16
HETATM   16  C   UNL     1      36.092  43.510  65.867  1.00  0.00     0.041 A 
HETATM   17  C   UNL     1      35.197  43.984  66.853  1.00  0.00    -0.035 A 
HETATM   18  C   UNL     1      35.449  45.244  67.638  1.00  0.00     0.050 C 
HETATM   19  C   UNL     1      34.011  43.272  67.111  1.00  0.00     0.009 A 
HETATM   20  C   UNL     1      33.710  42.105  66.412  1.00  0.00     0.001 A 
HETATM   21  C   UNL     1      34.587  41.640  65.442  1.00  0.00     0.002 A 
HETATM   22  C   UNL     1      35.767  42.338  65.172  1.00  0.00     0.030 A 
ENDBRANCH  13  16
ENDBRANCH   1  12
BRANCH   2  23
HETATM   23  C   UNL     1      40.066  43.571  64.080  1.00  0.00    -0.025 A 
HETATM   24  C   UNL     1      39.613  42.711  63.066  1.00  0.00     0.052 A 
HETATM   25  C   UNL     1      39.662  41.333  63.244  1.00  0.00     0.117 A 
HETATM   26  F   UNL     1      39.224  40.528  62.266  1.00  0.00    -0.206 F 
HETATM   27  C   UNL     1      40.155  40.779  64.417  1.00  0.00     0.042 A 
HETATM   28  C   UNL     1      40.614  41.618  65.431  1.00  0.00     0.004 A 
HETATM   29  C   UNL     1      40.573  43.005  65.264  1.00  0.00     0.010 A 
ENDBRANCH   2  23
BRANCH   7  30
HETATM   30  C   UNL     1      44.765  46.183  64.089  1.00  0.00     0.085 C 
BRANCH  30  31
HETATM   31  C   UNL     1      45.494  47.233  64.924  1.00  0.00     0.034 C 
BRANCH  31  32
HETATM   32  C   UNL     1      47.008  47.186  64.753  1.00  0.00     0.164 C 
BRANCH  32  33
HETATM   33  O   UNL     1      47.332  46.441  63.584  1.00  0.00    -0.401 OA
HETATM   34  H   UNL     1      48.232  46.090  63.698  1.00  0.00     0.209 HD
ENDBRANCH  32  33
ENDBRANCH  31  32
ENDBRANCH  30  31
ENDBRANCH   7  30
TORSDOF 7
ENDMDL
MODEL 9
REMARK VINA RESULT:      -7.6      3.437      7.132
REMARK  7 active torsions:
REMARK  status: ('A' for Active; 'I' for Inactive)
REMARK    1  A    between atoms: C_3  and  N_4 
REMARK       I    between atoms: N_4  and  C_5 
REMARK    2  A    between atoms: C_5  and  C_6 
REMARK    3  A    between atoms: C_7  and  C_8 
REMARK    4  A    between atoms: C_19  and  C_20 
REMARK    5  A    between atoms: C_20  and  C_21 
REMARK    6  A    between atoms: C_21  and  C_22 
REMARK    7  A    between atoms: C_22  and  O_23 
ROOT
HETATM    1  C   UNL     1      27.465  41.547  51.917  1.00  0.00     0.062 A 
HETATM    2  C   UNL     1      26.747  42.785  52.441  1.00  0.00     0.202 A 
HETATM    3  N   UNL     1      27.549  43.477  53.459  1.00  0.00    -0.083 N 
HETATM    4  C   UNL     1      28.748  43.016  53.932  1.00  0.00     0.726 A 
HETATM    5  N   UNL     1      29.260  41.874  53.436  1.00  0.00    -0.192 N 
HETATM    6  N   UNL     1      27.153  44.583  54.126  1.00  0.00    -0.140 NA
HETATM    7  C   UNL     1      28.213  44.787  54.922  1.00  0.00     0.166 A 
HETATM    8  N   UNL     1      29.200  43.834  54.845  1.00  0.00    -0.046 NA
HETATM    9  C   UNL     1      28.661  41.149  52.414  1.00  0.00     0.037 A 
HETATM   10  C   UNL     1      29.423  39.938  51.935  1.00  0.00     0.070 C 
HETATM   11  H   UNL     1      30.178  41.574  53.754  1.00  0.00     0.184 HD
ENDROOT
BRANCH   1  12
HETATM   12  C   UNL     1      26.872  40.856  50.744  1.00  0.00     0.256 C 
HETATM   13  N   UNL     1      27.538  41.124  49.568  1.00  0.00    -0.323 N 
HETATM   14  H   UNL     1      28.287  41.799  49.606  1.00  0.00     0.169 HD
HETATM   15  O   UNL     1      25.879  40.159  50.908  1.00  0.00    -0.267 OA
BRANCH  13  16
HETATM   16  C   UNL     1      27.261  40.584  48.286  1.00  0.00     0.041 A 
HETATM   17  C   UNL     1      28.014  39.477  47.833  1.00  0.00    -0.035 A 
HETATM   18  C   UNL     1      29.096  38.839  48.662  1.00  0.00     0.050 C 
HETATM   19  C   UNL     1      27.741  38.928  46.566  1.00  0.00     0.009 A 
HETATM   20  C   UNL     1      26.744  39.461  45.753  1.00  0.00     0.001 A 
HETATM   21  C   UNL     1      26.003  40.547  46.199  1.00  0.00     0.002 A 
HETATM   22  C   UNL     1      26.259  41.101  47.455  1.00  0.00     0.030 A 
ENDBRANCH  13  16
ENDBRANCH   1  12
BRANCH   2  23
HETATM   23  C   UNL     1      26.306  43.755  51.353  1.00  0.00    -0.025 A 
HETATM   24  C   UNL     1      27.256  44.583  50.731  1.00  0.00     0.052 A 
HETATM   25  C   UNL     1      26.862  45.482  49.746  1.00  0.00     0.117 A 
HETATM   26  F   UNL     1      27.781  46.265  49.166  1.00  0.00    -0.206 F 
HETATM   27  C   UNL     1      25.533  45.581  49.356  1.00  0.00     0.042 A 
HETATM   28  C   UNL     1      24.580  44.761  49.959  1.00  0.00     0.004 A 
HETATM   29  C   UNL     1      24.963  43.852  50.949  1.00  0.00     0.010 A 
ENDBRANCH   2  23
BRANCH   7  30
HETATM   30  C   UNL     1      28.329  45.969  55.814  1.00  0.00     0.085 C 
BRANCH  30  31
HETATM   31  C   UNL     1      28.152  47.294  55.076  1.00  0.00     0.034 C 
BRANCH  31  32
HETATM   32  C   UNL     1      26.835  47.989  55.404  1.00  0.00     0.164 C 
BRANCH  32  33
HETATM   33  O   UNL     1      25.758  47.274  54.808  1.00  0.00    -0.401 OA
HETATM   34  H   UNL     1      24.938  47.757  55.007  1.00  0.00     0.209 HD
ENDBRANCH  32  33
ENDBRANCH  31  32
ENDBRANCH  30  31
ENDBRANCH   7  30
TORSDOF 7
ENDMDL
MODEL 10
REMARK VINA RESULT:      -7.5      2.018      2.675
REMARK  7 active torsions:
REMARK  status: ('A' for Active; 'I' for Inactive)
REMARK    1  A    between atoms: C_3  and  N_4 
REMARK       I    between atoms: N_4  and  C_5 
REMARK    2  A    between atoms: C_5  and  C_6 
REMARK    3  A    between atoms: C_7  and  C_8 
REMARK    4  A    between atoms: C_19  and  C_20 
REMARK    5  A    between atoms: C_20  and  C_21 
REMARK    6  A    between atoms: C_21  and  C_22 
REMARK    7  A    between atoms: C_22  and  O_23 
ROOT
HETATM    1  C   UNL     1      25.443  45.302  50.269  1.00  0.00     0.062 A 
HETATM    2  C   UNL     1      24.326  44.268  50.196  1.00  0.00     0.202 A 
HETATM    3  N   UNL     1      23.134  44.814  49.533  1.00  0.00    -0.083 N 
HETATM    4  C   UNL     1      23.020  46.112  49.114  1.00  0.00     0.726 A 
HETATM    5  N   UNL     1      24.054  46.956  49.285  1.00  0.00    -0.192 N 
HETATM    6  N   UNL     1      21.977  44.140  49.357  1.00  0.00    -0.140 NA
HETATM    7  C   UNL     1      21.238  45.071  48.736  1.00  0.00     0.166 A 
HETATM    8  N   UNL     1      21.837  46.299  48.589  1.00  0.00    -0.046 NA
HETATM    9  C   UNL     1      25.275  46.570  49.821  1.00  0.00     0.037 A 
HETATM   10  C   UNL     1      26.341  47.637  49.861  1.00  0.00     0.070 C 
HETATM   11  H   UNL     1      23.976  47.901  48.917  1.00  0.00     0.184 HD
ENDROOT
BRANCH   1  12
HETATM   12  C   UNL     1      26.776  44.839  50.730  1.00  0.00     0.256 C 
HETATM   13  N   UNL     1      26.827  44.613  52.089  1.00  0.00    -0.323 N 
HETATM   14  H   UNL     1      26.007  44.850  52.627  1.00  0.00     0.169 HD
HETATM   15  O   UNL     1      27.678  44.722  49.910  1.00  0.00    -0.267 OA
BRANCH  13  16
HETATM   16  C   UNL     1      27.929  44.118  52.832  1.00  0.00     0.041 A 
HETATM   17  C   UNL     1      28.231  44.707  54.081  1.00  0.00    -0.035 A 
HETATM   18  C   UNL     1      27.422  45.836  54.662  1.00  0.00     0.050 C 
HETATM   19  C   UNL     1      29.316  44.217  54.832  1.00  0.00     0.009 A 
HETATM   20  C   UNL     1      30.098  43.166  54.360  1.00  0.00     0.001 A 
HETATM   21  C   UNL     1      29.800  42.586  53.134  1.00  0.00     0.002 A 
HETATM   22  C   UNL     1      28.724  43.058  52.379  1.00  0.00     0.030 A 
ENDBRANCH  13  16
ENDBRANCH   1  12
BRANCH   2  23
HETATM   23  C   UNL     1      24.741  42.950  49.555  1.00  0.00    -0.025 A 
HETATM   24  C   UNL     1      24.606  42.777  48.167  1.00  0.00     0.052 A 
HETATM   25  C   UNL     1      24.969  41.572  47.575  1.00  0.00     0.117 A 
HETATM   26  F   UNL     1      24.832  41.424  46.250  1.00  0.00    -0.206 F 
HETATM   27  C   UNL     1      25.469  40.522  48.333  1.00  0.00     0.042 A 
HETATM   28  C   UNL     1      25.615  40.681  49.710  1.00  0.00     0.004 A 
HETATM   29  C   UNL     1      25.256  41.887  50.318  1.00  0.00     0.010 A 
ENDBRANCH   2  23
BRANCH   7  30
HETATM   30  C   UNL     1      19.871  44.796  48.222  1.00  0.00     0.085 C 
BRANCH  30  31
HETATM   31  C   UNL     1      19.131  46.059  47.787  1.00  0.00     0.034 C 
BRANCH  31  32
HETATM   32  C   UNL     1      17.617  45.936  47.911  1.00  0.00     0.164 C 
BRANCH  32  33
HETATM   33  O   UNL     1      17.164  44.826  47.142  1.00  0.00    -0.401 OA
HETATM   34  H   UNL     1      16.926  45.157  46.260  1.00  0.00     0.209 HD
ENDBRANCH  32  33
ENDBRANCH  31  32
ENDBRANCH  30  31
ENDBRANCH   7  30
TORSDOF 7
ENDMDL
