MODEL 1
REMARK VINA RESULT:      -8.9      0.000      0.000
REMARK  6 active torsions:
REMARK  status: ('A' for Active; 'I' for Inactive)
REMARK    1  A    between atoms: O_2  and  C_3 
REMARK    2  A    between atoms: C_6  and  C_7 
REMARK    3  A    between atoms: C_7  and  N_8 
REMARK       I    between atoms: N_8  and  C_9 
REMARK    4  A    between atoms: C_9  and  C_10 
REMARK    5  A    between atoms: C_10  and  O_11 
REMARK    6  A    between atoms: N_12  and  C_13 
ROOT
HETATM    1  C   UNL     1      27.384  41.015  50.930  1.00  0.00     0.256 C 
HETATM    2  N   UNL     1      26.948  41.794  49.755  1.00  0.00    -0.254 N 
HETATM    3  C   UNL     1      26.949  41.210  48.495  1.00  0.00     0.330 C 
HETATM    4  O   UNL     1      26.380  41.654  47.496  1.00  0.00    -0.246 OA
HETATM    5  N   UNL     1      27.677  40.072  48.324  1.00  0.00    -0.308 N 
HETATM    6  C   UNL     1      28.439  39.446  49.296  1.00  0.00     0.048 A 
HETATM    7  C   UNL     1      28.367  39.905  50.604  1.00  0.00     0.034 A 
HETATM    8  C   UNL     1      29.256  38.370  48.942  1.00  0.00     0.030 A 
HETATM    9  C   UNL     1      30.037  37.748  49.913  1.00  0.00     0.002 A 
HETATM   10  C   UNL     1      29.983  38.191  51.231  1.00  0.00     0.001 A 
HETATM   11  C   UNL     1      29.144  39.253  51.580  1.00  0.00     0.015 A 
HETATM   12  H   UNL     1      27.669  39.714  47.379  1.00  0.00     0.170 HD
ENDROOT
BRANCH   1  13
HETATM   13  C   UNL     1      28.032  41.971  52.019  1.00  0.00     0.279 C 
HETATM   14  N   UNL     1      27.289  42.222  53.153  1.00  0.00    -0.352 N 
HETATM   15  H   UNL     1      26.381  41.780  53.251  1.00  0.00     0.162 HD
HETATM   16  O   UNL     1      29.138  42.482  51.812  1.00  0.00    -0.268 OA
BRANCH  14  17
HETATM   17  C   UNL     1      27.850  42.893  54.303  1.00  0.00     0.161 C 
BRANCH  17  18
HETATM   18  C   UNL     1      27.431  44.335  54.418  1.00  0.00    -0.040 A 
HETATM   19  C   UNL     1      26.200  44.766  53.910  1.00  0.00     0.011 A 
HETATM   20  C   UNL     1      25.776  46.084  54.101  1.00  0.00     0.037 A 
HETATM   21  C   UNL     1      26.569  46.993  54.804  1.00  0.00     0.068 A 
HETATM   22  C   UNL     1      27.811  46.584  55.282  1.00  0.00     0.037 A 
HETATM   23  C   UNL     1      28.235  45.264  55.094  1.00  0.00     0.011 A 
BRANCH  21  24
HETATM   24  O   UNL     1      26.026  48.241  54.953  1.00  0.00    -0.356 OA
HETATM   25  C   UNL     1      26.173  48.843  56.235  1.00  0.00     0.210 C 
ENDBRANCH  21  24
ENDBRANCH  17  18
ENDBRANCH  14  17
ENDBRANCH   1  13
BRANCH   1  26
HETATM   26  O   UNL     1      26.235  40.358  51.471  1.00  0.00    -0.359 OA
HETATM   27  H   UNL     1      25.895  40.967  52.154  1.00  0.00     0.213 HD
ENDBRANCH   1  26
BRANCH   2  28
HETATM   28  C   UNL     1      26.293  43.072  49.931  1.00  0.00     0.043 A 
HETATM   29  C   UNL     1      24.970  43.186  50.389  1.00  0.00     0.031 A 
HETATM   30  C   UNL     1      24.386  44.438  50.620  1.00  0.00     0.026 A 
HETATM   31  C   UNL     1      25.114  45.599  50.389  1.00  0.00     0.034 A 
HETATM   32 CL   UNL     1      24.401  47.135  50.685  1.00  0.00    -0.084 Cl
HETATM   33  C   UNL     1      26.419  45.518  49.923  1.00  0.00     0.026 A 
HETATM   34  C   UNL     1      27.000  44.265  49.697  1.00  0.00     0.031 A 
ENDBRANCH   2  28
TORSDOF 6
ENDMDL
MODEL 2
REMARK VINA RESULT:      -8.5      2.651      4.638
REMARK  6 active torsions:
REMARK  status: ('A' for Active; 'I' for Inactive)
REMARK    1  A    between atoms: O_2  and  C_3 
REMARK    2  A    between atoms: C_6  and  C_7 
REMARK    3  A    between atoms: C_7  and  N_8 
REMARK       I    between atoms: N_8  and  C_9 
REMARK    4  A    between atoms: C_9  and  C_10 
REMARK    5  A    between atoms: C_10  and  O_11 
REMARK    6  A    between atoms: N_12  and  C_13 
ROOT
HETATM    1  C   UNL     1      25.995  43.019  50.094  1.00  0.00     0.256 C 
HETATM    2  N   UNL     1      26.784  41.922  50.688  1.00  0.00    -0.254 N 
HETATM    3  C   UNL     1      26.837  40.685  50.058  1.00  0.00     0.330 C 
HETATM    4  O   UNL     1      27.644  39.787  50.304  1.00  0.00    -0.246 OA
HETATM    5  N   UNL     1      25.890  40.411  49.119  1.00  0.00    -0.308 N 
HETATM    6  C   UNL     1      24.858  41.252  48.741  1.00  0.00     0.048 A 
HETATM    7  C   UNL     1      24.835  42.550  49.235  1.00  0.00     0.034 A 
HETATM    8  C   UNL     1      23.869  40.782  47.874  1.00  0.00     0.030 A 
HETATM    9  C   UNL     1      22.820  41.620  47.505  1.00  0.00     0.002 A 
HETATM   10  C   UNL     1      22.775  42.924  47.988  1.00  0.00     0.001 A 
HETATM   11  C   UNL     1      23.781  43.393  48.836  1.00  0.00     0.015 A 
HETATM   12  H   UNL     1      25.958  39.483  48.723  1.00  0.00     0.170 HD
ENDROOT
BRANCH   1  13
HETATM   13  C   UNL     1      25.438  43.978  51.230  1.00  0.00     0.279 C 
HETATM   14  N   UNL     1      26.076  45.189  51.395  1.00  0.00    -0.352 N 
HETATM   15  H   UNL     1      26.851  45.421  50.784  1.00  0.00     0.162 HD
HETATM   16  O   UNL     1      24.498  43.609  51.942  1.00  0.00    -0.268 OA
BRANCH  14  17
HETATM   17  C   UNL     1      25.535  46.230  52.239  1.00  0.00     0.161 C 
BRANCH  17  18
HETATM   18  C   UNL     1      26.247  46.360  53.560  1.00  0.00    -0.040 A 
HETATM   19  C   UNL     1      26.943  45.275  54.109  1.00  0.00     0.011 A 
HETATM   20  C   UNL     1      27.678  45.428  55.287  1.00  0.00     0.037 A 
HETATM   21  C   UNL     1      27.735  46.663  55.937  1.00  0.00     0.068 A 
HETATM   22  C   UNL     1      27.019  47.738  55.418  1.00  0.00     0.037 A 
HETATM   23  C   UNL     1      26.284  47.587  54.237  1.00  0.00     0.011 A 
BRANCH  21  24
HETATM   24  O   UNL     1      28.517  46.689  57.060  1.00  0.00    -0.356 OA
HETATM   25  C   UNL     1      29.727  45.940  57.004  1.00  0.00     0.210 C 
ENDBRANCH  21  24
ENDBRANCH  17  18
ENDBRANCH  14  17
ENDBRANCH   1  13
BRANCH   1  26
HETATM   26  O   UNL     1      26.853  43.747  49.211  1.00  0.00    -0.359 OA
HETATM   27  H   UNL     1      27.392  43.066  48.766  1.00  0.00     0.213 HD
ENDBRANCH   1  26
BRANCH   2  28
HETATM   28  C   UNL     1      27.694  42.189  51.780  1.00  0.00     0.043 A 
HETATM   29  C   UNL     1      27.536  41.616  53.052  1.00  0.00     0.031 A 
HETATM   30  C   UNL     1      28.473  41.834  54.070  1.00  0.00     0.026 A 
HETATM   31  C   UNL     1      29.582  42.639  53.834  1.00  0.00     0.034 A 
HETATM   32 CL   UNL     1      30.739  42.897  55.079  1.00  0.00    -0.084 Cl
HETATM   33  C   UNL     1      29.757  43.230  52.591  1.00  0.00     0.026 A 
HETATM   34  C   UNL     1      28.821  43.006  51.575  1.00  0.00     0.031 A 
ENDBRANCH   2  28
TORSDOF 6
ENDMDL
MODEL 3
REMARK VINA RESULT:      -8.4      2.856      4.363
REMARK  6 active torsions:
REMARK  status: ('A' for Active; 'I' for Inactive)
REMARK    1  A    between atoms: O_2  and  C_3 
REMARK    2  A    between atoms: C_6  and  C_7 
REMARK    3  A    between atoms: C_7  and  N_8 
REMARK       I    between atoms: N_8  and  C_9 
REMARK    4  A    between atoms: C_9  and  C_10 
REMARK    5  A    between atoms: C_10  and  O_11 
REMARK    6  A    between atoms: N_12  and  C_13 
ROOT
HETATM    1  C   UNL     1      25.160  43.109  50.678  1.00  0.00     0.256 C 
HETATM    2  N   UNL     1      24.877  44.557  50.635  1.00  0.00    -0.254 N 
HETATM    3  C   UNL     1      23.969  45.060  49.712  1.00  0.00     0.330 C 
HETATM    4  O   UNL     1      23.462  46.182  49.741  1.00  0.00    -0.246 OA
HETATM    5  N   UNL     1      23.639  44.270  48.654  1.00  0.00    -0.308 N 
HETATM    6  C   UNL     1      24.141  43.006  48.399  1.00  0.00     0.048 A 
HETATM    7  C   UNL     1      24.944  42.398  49.354  1.00  0.00     0.034 A 
HETATM    8  C   UNL     1      23.829  42.371  47.194  1.00  0.00     0.030 A 
HETATM    9  C   UNL     1      24.346  41.106  46.927  1.00  0.00     0.002 A 
HETATM   10  C   UNL     1      25.155  40.477  47.868  1.00  0.00     0.001 A 
HETATM   11  C   UNL     1      25.443  41.111  49.080  1.00  0.00     0.015 A 
HETATM   12  H   UNL     1      23.003  44.704  47.998  1.00  0.00     0.170 HD
ENDROOT
BRANCH   1  13
HETATM   13  C   UNL     1      26.649  42.849  51.163  1.00  0.00     0.279 C 
HETATM   14  N   UNL     1      26.812  42.308  52.421  1.00  0.00    -0.352 N 
HETATM   15  H   UNL     1      25.988  42.086  52.968  1.00  0.00     0.162 HD
HETATM   16  O   UNL     1      27.598  43.165  50.438  1.00  0.00    -0.268 OA
BRANCH  14  17
HETATM   17  C   UNL     1      28.093  41.828  52.887  1.00  0.00     0.161 C 
BRANCH  17  18
HETATM   18  C   UNL     1      28.807  42.804  53.785  1.00  0.00    -0.040 A 
HETATM   19  C   UNL     1      28.180  43.985  54.201  1.00  0.00     0.011 A 
HETATM   20  C   UNL     1      28.811  44.841  55.108  1.00  0.00     0.037 A 
HETATM   21  C   UNL     1      30.075  44.534  55.617  1.00  0.00     0.068 A 
HETATM   22  C   UNL     1      30.721  43.380  55.183  1.00  0.00     0.037 A 
HETATM   23  C   UNL     1      30.088  42.521  54.277  1.00  0.00     0.011 A 
BRANCH  21  24
HETATM   24  O   UNL     1      30.568  45.434  56.523  1.00  0.00    -0.356 OA
HETATM   25  C   UNL     1      29.637  45.951  57.468  1.00  0.00     0.210 C 
ENDBRANCH  21  24
ENDBRANCH  17  18
ENDBRANCH  14  17
ENDBRANCH   1  13
BRANCH   1  26
HETATM   26  O   UNL     1      24.234  42.508  51.587  1.00  0.00    -0.359 OA
HETATM   27  H   UNL     1      23.695  43.249  51.924  1.00  0.00     0.213 HD
ENDBRANCH   1  26
BRANCH   2  28
HETATM   28  C   UNL     1      25.347  45.421  51.695  1.00  0.00     0.043 A 
HETATM   29  C   UNL     1      26.156  46.543  51.453  1.00  0.00     0.031 A 
HETATM   30  C   UNL     1      26.536  47.404  52.491  1.00  0.00     0.026 A 
HETATM   31  C   UNL     1      26.118  47.151  53.793  1.00  0.00     0.034 A 
HETATM   32 CL   UNL     1      26.574  48.215  55.064  1.00  0.00    -0.084 Cl
HETATM   33  C   UNL     1      25.330  46.042  54.065  1.00  0.00     0.026 A 
HETATM   34  C   UNL     1      24.949  45.187  53.024  1.00  0.00     0.031 A 
ENDBRANCH   2  28
TORSDOF 6
ENDMDL
MODEL 4
REMARK VINA RESULT:      -8.4     11.878     13.689
REMARK  6 active torsions:
REMARK  status: ('A' for Active; 'I' for Inactive)
REMARK    1  A    between atoms: O_2  and  C_3 
REMARK    2  A    between atoms: C_6  and  C_7 
REMARK    3  A    between atoms: C_7  and  N_8 
REMARK       I    between atoms: N_8  and  C_9 
REMARK    4  A    between atoms: C_9  and  C_10 
REMARK    5  A    between atoms: C_10  and  O_11 
REMARK    6  A    between atoms: N_12  and  C_13 
ROOT
HETATM    1  C   UNL     1      28.078  48.319  40.309  1.00  0.00     0.256 C 
HETATM    2  N   UNL     1      28.044  49.442  39.351  1.00  0.00    -0.254 N 
HETATM    3  C   UNL     1      27.172  49.407  38.271  1.00  0.00     0.330 C 
HETATM    4  O   UNL     1      26.867  50.367  37.561  1.00  0.00    -0.246 OA
HETATM    5  N   UNL     1      26.637  48.203  37.926  1.00  0.00    -0.308 N 
HETATM    6  C   UNL     1      26.897  46.995  38.549  1.00  0.00     0.048 A 
HETATM    7  C   UNL     1      27.651  46.989  39.715  1.00  0.00     0.034 A 
HETATM    8  C   UNL     1      26.397  45.814  37.995  1.00  0.00     0.030 A 
HETATM    9  C   UNL     1      26.671  44.594  38.609  1.00  0.00     0.002 A 
HETATM   10  C   UNL     1      27.426  44.563  39.777  1.00  0.00     0.001 A 
HETATM   11  C   UNL     1      27.902  45.752  40.337  1.00  0.00     0.015 A 
HETATM   12  H   UNL     1      26.040  48.235  37.111  1.00  0.00     0.170 HD
ENDROOT
BRANCH   1  13
HETATM   13  C   UNL     1      29.531  48.162  40.927  1.00  0.00     0.279 C 
HETATM   14  N   UNL     1      29.764  48.773  42.142  1.00  0.00    -0.352 N 
HETATM   15  H   UNL     1      29.005  49.274  42.590  1.00  0.00     0.162 HD
HETATM   16  O   UNL     1      30.404  47.548  40.305  1.00  0.00    -0.268 OA
BRANCH  14  17
HETATM   17  C   UNL     1      30.966  48.526  42.905  1.00  0.00     0.161 C 
BRANCH  17  18
HETATM   18  C   UNL     1      32.050  49.542  42.659  1.00  0.00    -0.040 A 
HETATM   19  C   UNL     1      32.131  50.705  43.435  1.00  0.00     0.011 A 
HETATM   20  C   UNL     1      33.192  51.599  43.265  1.00  0.00     0.037 A 
HETATM   21  C   UNL     1      34.191  51.348  42.322  1.00  0.00     0.068 A 
HETATM   22  C   UNL     1      34.101  50.212  41.522  1.00  0.00     0.037 A 
HETATM   23  C   UNL     1      33.040  49.315  41.694  1.00  0.00     0.011 A 
BRANCH  21  24
HETATM   24  O   UNL     1      35.192  52.280  42.279  1.00  0.00    -0.356 OA
HETATM   25  C   UNL     1      36.233  52.132  43.239  1.00  0.00     0.210 C 
ENDBRANCH  21  24
ENDBRANCH  17  18
ENDBRANCH  14  17
ENDBRANCH   1  13
BRANCH   1  26
HETATM   26  O   UNL     1      27.129  48.596  41.342  1.00  0.00    -0.359 OA
HETATM   27  H   UNL     1      27.074  49.569  41.379  1.00  0.00     0.213 HD
ENDBRANCH   1  26
BRANCH   2  28
HETATM   28  C   UNL     1      28.728  50.680  39.657  1.00  0.00     0.043 A 
HETATM   29  C   UNL     1      28.173  51.663  40.492  1.00  0.00     0.031 A 
HETATM   30  C   UNL     1      28.889  52.819  40.829  1.00  0.00     0.026 A 
HETATM   31  C   UNL     1      30.171  53.015  40.329  1.00  0.00     0.034 A 
HETATM   32 CL   UNL     1      31.054  54.427  40.753  1.00  0.00    -0.084 Cl
HETATM   33  C   UNL     1      30.739  52.066  39.489  1.00  0.00     0.026 A 
HETATM   34  C   UNL     1      30.023  50.910  39.158  1.00  0.00     0.031 A 
ENDBRANCH   2  28
TORSDOF 6
ENDMDL
MODEL 5
REMARK VINA RESULT:      -8.3     12.083     14.248
REMARK  6 active torsions:
REMARK  status: ('A' for Active; 'I' for Inactive)
REMARK    1  A    between atoms: O_2  and  C_3 
REMARK    2  A    between atoms: C_6  and  C_7 
REMARK    3  A    between atoms: C_7  and  N_8 
REMARK       I    between atoms: N_8  and  C_9 
REMARK    4  A    between atoms: C_9  and  C_10 
REMARK    5  A    between atoms: C_10  and  O_11 
REMARK    6  A    between atoms: N_12  and  C_13 
ROOT
HETATM    1  C   UNL     1      26.712  48.868  39.101  1.00  0.00     0.256 C 
HETATM    2  N   UNL     1      27.303  48.119  40.228  1.00  0.00    -0.254 N 
HETATM    3  C   UNL     1      26.555  47.151  40.886  1.00  0.00     0.330 C 
HETATM    4  O   UNL     1      27.001  46.297  41.653  1.00  0.00    -0.246 OA
HETATM    5  N   UNL     1      25.205  47.168  40.714  1.00  0.00    -0.308 N 
HETATM    6  C   UNL     1      24.498  48.079  39.949  1.00  0.00     0.048 A 
HETATM    7  C   UNL     1      25.200  48.981  39.161  1.00  0.00     0.034 A 
HETATM    8  C   UNL     1      23.102  48.069  39.983  1.00  0.00     0.030 A 
HETATM    9  C   UNL     1      22.386  48.996  39.228  1.00  0.00     0.002 A 
HETATM   10  C   UNL     1      23.068  49.912  38.432  1.00  0.00     0.001 A 
HETATM   11  C   UNL     1      24.465  49.898  38.386  1.00  0.00     0.015 A 
HETATM   12  H   UNL     1      24.712  46.463  41.246  1.00  0.00     0.170 HD
ENDROOT
BRANCH   1  13
HETATM   13  C   UNL     1      27.334  50.326  39.019  1.00  0.00     0.279 C 
HETATM   14  N   UNL     1      27.314  51.081  40.173  1.00  0.00    -0.352 N 
HETATM   15  H   UNL     1      26.924  50.674  41.016  1.00  0.00     0.162 HD
HETATM   16  O   UNL     1      27.772  50.751  37.945  1.00  0.00    -0.268 OA
BRANCH  14  17
HETATM   17  C   UNL     1      28.036  52.328  40.284  1.00  0.00     0.161 C 
BRANCH  17  18
HETATM   18  C   UNL     1      29.458  52.156  40.749  1.00  0.00    -0.040 A 
HETATM   19  C   UNL     1      30.476  51.841  39.840  1.00  0.00     0.011 A 
HETATM   20  C   UNL     1      31.807  51.775  40.260  1.00  0.00     0.037 A 
HETATM   21  C   UNL     1      32.147  52.023  41.592  1.00  0.00     0.068 A 
HETATM   22  C   UNL     1      31.139  52.303  42.510  1.00  0.00     0.037 A 
HETATM   23  C   UNL     1      29.806  52.372  42.089  1.00  0.00     0.011 A 
BRANCH  21  24
HETATM   24  O   UNL     1      33.486  51.962  41.868  1.00  0.00    -0.356 OA
HETATM   25  C   UNL     1      33.847  51.372  43.112  1.00  0.00     0.210 C 
ENDBRANCH  21  24
ENDBRANCH  17  18
ENDBRANCH  14  17
ENDBRANCH   1  13
BRANCH   1  26
HETATM   26  O   UNL     1      26.992  48.144  37.900  1.00  0.00    -0.359 OA
HETATM   27  H   UNL     1      26.419  47.355  37.942  1.00  0.00     0.213 HD
ENDBRANCH   1  26
BRANCH   2  28
HETATM   28  C   UNL     1      28.722  48.208  40.496  1.00  0.00     0.043 A 
HETATM   29  C   UNL     1      29.231  48.655  41.726  1.00  0.00     0.031 A 
HETATM   30  C   UNL     1      30.608  48.662  41.983  1.00  0.00     0.026 A 
HETATM   31  C   UNL     1      31.500  48.228  41.009  1.00  0.00     0.034 A 
HETATM   32 CL   UNL     1      33.189  48.225  41.330  1.00  0.00    -0.084 Cl
HETATM   33  C   UNL     1      31.026  47.794  39.779  1.00  0.00     0.026 A 
HETATM   34  C   UNL     1      29.650  47.785  39.527  1.00  0.00     0.031 A 
ENDBRANCH   2  28
TORSDOF 6
ENDMDL
MODEL 6
REMARK VINA RESULT:      -8.2      3.519      6.050
REMARK  6 active torsions:
REMARK  status: ('A' for Active; 'I' for Inactive)
REMARK    1  A    between atoms: O_2  and  C_3 
REMARK    2  A    between atoms: C_6  and  C_7 
REMARK    3  A    between atoms: C_7  and  N_8 
REMARK       I    between atoms: N_8  and  C_9 
REMARK    4  A    between atoms: C_9  and  C_10 
REMARK    5  A    between atoms: C_10  and  O_11 
REMARK    6  A    between atoms: N_12  and  C_13 
ROOT
HETATM    1  C   UNL     1      26.061  43.461  50.067  1.00  0.00     0.256 C 
HETATM    2  N   UNL     1      26.474  42.398  51.004  1.00  0.00    -0.254 N 
HETATM    3  C   UNL     1      26.138  41.075  50.746  1.00  0.00     0.330 C 
HETATM    4  O   UNL     1      26.628  40.088  51.296  1.00  0.00    -0.246 OA
HETATM    5  N   UNL     1      25.148  40.838  49.842  1.00  0.00    -0.308 N 
HETATM    6  C   UNL     1      24.425  41.803  49.161  1.00  0.00     0.048 A 
HETATM    7  C   UNL     1      24.808  43.132  49.275  1.00  0.00     0.034 A 
HETATM    8  C   UNL     1      23.335  41.420  48.376  1.00  0.00     0.030 A 
HETATM    9  C   UNL     1      22.595  42.389  47.703  1.00  0.00     0.002 A 
HETATM   10  C   UNL     1      22.959  43.729  47.803  1.00  0.00     0.001 A 
HETATM   11  C   UNL     1      24.065  44.099  48.572  1.00  0.00     0.015 A 
HETATM   12  H   UNL     1      24.923  39.860  49.723  1.00  0.00     0.170 HD
ENDROOT
BRANCH   1  13
HETATM   13  C   UNL     1      25.833  44.827  50.844  1.00  0.00     0.279 C 
HETATM   14  N   UNL     1      26.593  45.907  50.445  1.00  0.00    -0.352 N 
HETATM   15  H   UNL     1      27.242  45.791  49.675  1.00  0.00     0.162 HD
HETATM   16  O   UNL     1      25.033  44.876  51.784  1.00  0.00    -0.268 OA
BRANCH  14  17
HETATM   17  C   UNL     1      26.328  47.245  50.922  1.00  0.00     0.161 C 
BRANCH  17  18
HETATM   18  C   UNL     1      25.429  48.038  50.010  1.00  0.00    -0.040 A 
HETATM   19  C   UNL     1      25.948  49.056  49.200  1.00  0.00     0.011 A 
HETATM   20  C   UNL     1      25.126  49.724  48.288  1.00  0.00     0.037 A 
HETATM   21  C   UNL     1      23.776  49.389  48.166  1.00  0.00     0.068 A 
HETATM   22  C   UNL     1      23.243  48.403  48.991  1.00  0.00     0.037 A 
HETATM   23  C   UNL     1      24.066  47.731  49.902  1.00  0.00     0.011 A 
BRANCH  21  24
HETATM   24  O   UNL     1      23.090  50.093  47.213  1.00  0.00    -0.356 OA
HETATM   25  C   UNL     1      21.819  50.603  47.601  1.00  0.00     0.210 C 
ENDBRANCH  21  24
ENDBRANCH  17  18
ENDBRANCH  14  17
ENDBRANCH   1  13
BRANCH   1  26
HETATM   26  O   UNL     1      27.097  43.614  49.093  1.00  0.00    -0.359 OA
HETATM   27  H   UNL     1      27.145  44.574  48.926  1.00  0.00     0.213 HD
ENDBRANCH   1  26
BRANCH   2  28
HETATM   28  C   UNL     1      27.427  42.684  52.054  1.00  0.00     0.043 A 
HETATM   29  C   UNL     1      27.044  42.876  53.391  1.00  0.00     0.031 A 
HETATM   30  C   UNL     1      27.995  43.079  54.399  1.00  0.00     0.026 A 
HETATM   31  C   UNL     1      29.349  43.103  54.083  1.00  0.00     0.034 A 
HETATM   32 CL   UNL     1      30.517  43.340  55.321  1.00  0.00    -0.084 Cl
HETATM   33  C   UNL     1      29.757  42.931  52.767  1.00  0.00     0.026 A 
HETATM   34  C   UNL     1      28.803  42.723  51.764  1.00  0.00     0.031 A 
ENDBRANCH   2  28
TORSDOF 6
ENDMDL
MODEL 7
REMARK VINA RESULT:      -8.1      2.252      7.063
REMARK  6 active torsions:
REMARK  status: ('A' for Active; 'I' for Inactive)
REMARK    1  A    between atoms: O_2  and  C_3 
REMARK    2  A    between atoms: C_6  and  C_7 
REMARK    3  A    between atoms: C_7  and  N_8 
REMARK       I    between atoms: N_8  and  C_9 
REMARK    4  A    between atoms: C_9  and  C_10 
REMARK    5  A    between atoms: C_10  and  O_11 
REMARK    6  A    between atoms: N_12  and  C_13 
ROOT
HETATM    1  C   UNL     1      28.842  43.415  53.033  1.00  0.00     0.256 C 
HETATM    2  N   UNL     1      27.601  44.180  52.799  1.00  0.00    -0.254 N 
HETATM    3  C   UNL     1      27.412  45.405  53.427  1.00  0.00     0.330 C 
HETATM    4  O   UNL     1      26.560  46.243  53.126  1.00  0.00    -0.246 OA
HETATM    5  N   UNL     1      28.198  45.695  54.500  1.00  0.00    -0.308 N 
HETATM    6  C   UNL     1      29.168  44.869  55.039  1.00  0.00     0.048 A 
HETATM    7  C   UNL     1      29.496  43.695  54.374  1.00  0.00     0.034 A 
HETATM    8  C   UNL     1      29.795  45.232  56.233  1.00  0.00     0.030 A 
HETATM    9  C   UNL     1      30.760  44.395  56.789  1.00  0.00     0.002 A 
HETATM   10  C   UNL     1      31.103  43.212  56.142  1.00  0.00     0.001 A 
HETATM   11  C   UNL     1      30.487  42.869  54.935  1.00  0.00     0.015 A 
HETATM   12  H   UNL     1      27.989  46.583  54.936  1.00  0.00     0.170 HD
ENDROOT
BRANCH   1  13
HETATM   13  C   UNL     1      28.563  41.857  52.913  1.00  0.00     0.279 C 
HETATM   14  N   UNL     1      29.050  41.218  51.792  1.00  0.00    -0.352 N 
HETATM   15  H   UNL     1      29.572  41.758  51.111  1.00  0.00     0.162 HD
HETATM   16  O   UNL     1      27.902  41.280  53.783  1.00  0.00    -0.268 OA
BRANCH  14  17
HETATM   17  C   UNL     1      29.051  39.778  51.672  1.00  0.00     0.161 C 
BRANCH  17  18
HETATM   18  C   UNL     1      28.726  39.294  50.283  1.00  0.00    -0.040 A 
HETATM   19  C   UNL     1      27.733  39.919  49.520  1.00  0.00     0.011 A 
HETATM   20  C   UNL     1      27.501  39.526  48.199  1.00  0.00     0.037 A 
HETATM   21  C   UNL     1      28.255  38.506  47.616  1.00  0.00     0.068 A 
HETATM   22  C   UNL     1      29.221  37.855  48.377  1.00  0.00     0.037 A 
HETATM   23  C   UNL     1      29.457  38.250  49.699  1.00  0.00     0.011 A 
BRANCH  21  24
HETATM   24  O   UNL     1      27.955  38.240  46.308  1.00  0.00    -0.356 OA
HETATM   25  C   UNL     1      27.900  39.362  45.433  1.00  0.00     0.210 C 
ENDBRANCH  21  24
ENDBRANCH  17  18
ENDBRANCH  14  17
ENDBRANCH   1  13
BRANCH   1  26
HETATM   26  O   UNL     1      29.799  43.822  52.052  1.00  0.00    -0.359 OA
HETATM   27  H   UNL     1      30.647  43.448  52.357  1.00  0.00     0.213 HD
ENDBRANCH   1  26
BRANCH   2  28
HETATM   28  C   UNL     1      26.693  43.789  51.743  1.00  0.00     0.043 A 
HETATM   29  C   UNL     1      25.400  43.305  51.998  1.00  0.00     0.031 A 
HETATM   30  C   UNL     1      24.517  43.002  50.954  1.00  0.00     0.026 A 
HETATM   31  C   UNL     1      24.917  43.171  49.633  1.00  0.00     0.034 A 
HETATM   32 CL   UNL     1      23.829  42.812  48.352  1.00  0.00    -0.084 Cl
HETATM   33  C   UNL     1      26.195  43.634  49.350  1.00  0.00     0.026 A 
HETATM   34  C   UNL     1      27.073  43.940  50.397  1.00  0.00     0.031 A 
ENDBRANCH   2  28
TORSDOF 6
ENDMDL
MODEL 8
REMARK VINA RESULT:      -8.1      2.954      7.591
REMARK  6 active torsions:
REMARK  status: ('A' for Active; 'I' for Inactive)
REMARK    1  A    between atoms: O_2  and  C_3 
REMARK    2  A    between atoms: C_6  and  C_7 
REMARK    3  A    between atoms: C_7  and  N_8 
REMARK       I    between atoms: N_8  and  C_9 
REMARK    4  A    between atoms: C_9  and  C_10 
REMARK    5  A    between atoms: C_10  and  O_11 
REMARK    6  A    between atoms: N_12  and  C_13 
ROOT
HETATM    1  C   UNL     1      24.445  44.788  50.558  1.00  0.00     0.256 C 
HETATM    2  N   UNL     1      25.475  45.455  51.379  1.00  0.00    -0.254 N 
HETATM    3  C   UNL     1      25.376  46.814  51.647  1.00  0.00     0.330 C 
HETATM    4  O   UNL     1      26.010  47.425  52.509  1.00  0.00    -0.246 OA
HETATM    5  N   UNL     1      24.544  47.555  50.865  1.00  0.00    -0.308 N 
HETATM    6  C   UNL     1      23.792  47.079  49.805  1.00  0.00     0.048 A 
HETATM    7  C   UNL     1      23.745  45.710  49.577  1.00  0.00     0.034 A 
HETATM    8  C   UNL     1      23.098  47.980  48.994  1.00  0.00     0.030 A 
HETATM    9  C   UNL     1      22.354  47.506  47.916  1.00  0.00     0.002 A 
HETATM   10  C   UNL     1      22.294  46.138  47.666  1.00  0.00     0.001 A 
HETATM   11  C   UNL     1      22.972  45.243  48.498  1.00  0.00     0.015 A 
HETATM   12  H   UNL     1      24.542  48.542  51.084  1.00  0.00     0.170 HD
ENDROOT
BRANCH   1  13
HETATM   13  C   UNL     1      25.077  43.572  49.758  1.00  0.00     0.279 C 
HETATM   14  N   UNL     1      24.682  42.304  50.130  1.00  0.00    -0.352 N 
HETATM   15  H   UNL     1      24.003  42.203  50.876  1.00  0.00     0.162 HD
HETATM   16  O   UNL     1      25.913  43.783  48.872  1.00  0.00    -0.268 OA
BRANCH  14  17
HETATM   17  C   UNL     1      25.015  41.137  49.345  1.00  0.00     0.161 C 
BRANCH  17  18
HETATM   18  C   UNL     1      26.258  40.431  49.821  1.00  0.00    -0.040 A 
HETATM   19  C   UNL     1      26.711  39.270  49.182  1.00  0.00     0.011 A 
HETATM   20  C   UNL     1      27.914  38.673  49.567  1.00  0.00     0.037 A 
HETATM   21  C   UNL     1      28.687  39.223  50.592  1.00  0.00     0.068 A 
HETATM   22  C   UNL     1      28.228  40.356  51.257  1.00  0.00     0.037 A 
HETATM   23  C   UNL     1      27.024  40.957  50.869  1.00  0.00     0.011 A 
BRANCH  21  24
HETATM   24  O   UNL     1      29.859  38.565  50.850  1.00  0.00    -0.356 OA
HETATM   25  C   UNL     1      29.758  37.162  51.074  1.00  0.00     0.210 C 
ENDBRANCH  21  24
ENDBRANCH  17  18
ENDBRANCH  14  17
ENDBRANCH   1  13
BRANCH   1  26
HETATM   26  O   UNL     1      23.420  44.319  51.438  1.00  0.00    -0.359 OA
HETATM   27  H   UNL     1      23.306  43.377  51.214  1.00  0.00     0.213 HD
ENDBRANCH   1  26
BRANCH   2  28
HETATM   28  C   UNL     1      26.448  44.669  52.106  1.00  0.00     0.043 A 
HETATM   29  C   UNL     1      27.765  44.491  51.654  1.00  0.00     0.031 A 
HETATM   30  C   UNL     1      28.706  43.785  52.414  1.00  0.00     0.026 A 
HETATM   31  C   UNL     1      28.342  43.237  53.639  1.00  0.00     0.034 A 
HETATM   32 CL   UNL     1      29.500  42.382  54.577  1.00  0.00    -0.084 Cl
HETATM   33  C   UNL     1      27.042  43.384  54.104  1.00  0.00     0.026 A 
HETATM   34  C   UNL     1      26.106  44.094  53.343  1.00  0.00     0.031 A 
ENDBRANCH   2  28
TORSDOF 6
ENDMDL
MODEL 9
REMARK VINA RESULT:      -8.0      3.363      5.644
REMARK  6 active torsions:
REMARK  status: ('A' for Active; 'I' for Inactive)
REMARK    1  A    between atoms: O_2  and  C_3 
REMARK    2  A    between atoms: C_6  and  C_7 
REMARK    3  A    between atoms: C_7  and  N_8 
REMARK       I    between atoms: N_8  and  C_9 
REMARK    4  A    between atoms: C_9  and  C_10 
REMARK    5  A    between atoms: C_10  and  O_11 
REMARK    6  A    between atoms: N_12  and  C_13 
ROOT
HETATM    1  C   UNL     1      26.003  43.344  51.793  1.00  0.00     0.256 C 
HETATM    2  N   UNL     1      25.788  42.201  50.884  1.00  0.00    -0.254 N 
HETATM    3  C   UNL     1      26.323  40.957  51.194  1.00  0.00     0.330 C 
HETATM    4  O   UNL     1      26.010  39.888  50.667  1.00  0.00    -0.246 OA
HETATM    5  N   UNL     1      27.314  40.908  52.126  1.00  0.00    -0.308 N 
HETATM    6  C   UNL     1      27.856  41.995  52.789  1.00  0.00     0.048 A 
HETATM    7  C   UNL     1      27.271  43.243  52.622  1.00  0.00     0.034 A 
HETATM    8  C   UNL     1      28.972  41.815  53.609  1.00  0.00     0.030 A 
HETATM    9  C   UNL     1      29.531  42.909  54.265  1.00  0.00     0.002 A 
HETATM   10  C   UNL     1      28.963  44.170  54.111  1.00  0.00     0.001 A 
HETATM   11  C   UNL     1      27.832  44.337  53.307  1.00  0.00     0.015 A 
HETATM   12  H   UNL     1      27.688  39.981  52.282  1.00  0.00     0.170 HD
ENDROOT
BRANCH   1  13
HETATM   13  C   UNL     1      26.032  44.704  50.975  1.00  0.00     0.279 C 
HETATM   14  N   UNL     1      25.020  45.607  51.227  1.00  0.00    -0.352 N 
HETATM   15  H   UNL     1      24.321  45.376  51.924  1.00  0.00     0.162 HD
HETATM   16  O   UNL     1      26.912  44.898  50.131  1.00  0.00    -0.268 OA
BRANCH  14  17
HETATM   17  C   UNL     1      25.054  46.957  50.713  1.00  0.00     0.161 C 
BRANCH  17  18
HETATM   18  C   UNL     1      23.969  47.242  49.707  1.00  0.00    -0.040 A 
HETATM   19  C   UNL     1      23.364  46.201  48.992  1.00  0.00     0.011 A 
HETATM   20  C   UNL     1      22.296  46.461  48.130  1.00  0.00     0.037 A 
HETATM   21  C   UNL     1      21.811  47.760  47.967  1.00  0.00     0.068 A 
HETATM   22  C   UNL     1      22.428  48.806  48.646  1.00  0.00     0.037 A 
HETATM   23  C   UNL     1      23.496  48.547  49.513  1.00  0.00     0.011 A 
BRANCH  21  24
HETATM   24  O   UNL     1      20.740  47.876  47.123  1.00  0.00    -0.356 OA
HETATM   25  C   UNL     1      19.971  49.068  47.241  1.00  0.00     0.210 C 
ENDBRANCH  21  24
ENDBRANCH  17  18
ENDBRANCH  14  17
ENDBRANCH   1  13
BRANCH   1  26
HETATM   26  O   UNL     1      24.931  43.359  52.739  1.00  0.00    -0.359 OA
HETATM   27  H   UNL     1      25.144  42.649  53.373  1.00  0.00     0.213 HD
ENDBRANCH   1  26
BRANCH   2  28
HETATM   28  C   UNL     1      24.830  42.300  49.805  1.00  0.00     0.043 A 
HETATM   29  C   UNL     1      23.461  42.520  50.028  1.00  0.00     0.031 A 
HETATM   30  C   UNL     1      22.567  42.684  48.962  1.00  0.00     0.026 A 
HETATM   31  C   UNL     1      23.028  42.623  47.652  1.00  0.00     0.034 A 
HETATM   32 CL   UNL     1      21.933  42.837  46.344  1.00  0.00    -0.084 Cl
HETATM   33  C   UNL     1      24.373  42.392  47.401  1.00  0.00     0.026 A 
HETATM   34  C   UNL     1      25.264  42.233  48.469  1.00  0.00     0.031 A 
ENDBRANCH   2  28
TORSDOF 6
ENDMDL
MODEL 10
REMARK VINA RESULT:      -7.9      5.217      8.914
REMARK  6 active torsions:
REMARK  status: ('A' for Active; 'I' for Inactive)
REMARK    1  A    between atoms: O_2  and  C_3 
REMARK    2  A    between atoms: C_6  and  C_7 
REMARK    3  A    between atoms: C_7  and  N_8 
REMARK       I    between atoms: N_8  and  C_9 
REMARK    4  A    between atoms: C_9  and  C_10 
REMARK    5  A    between atoms: C_10  and  O_11 
REMARK    6  A    between atoms: N_12  and  C_13 
ROOT
HETATM    1  C   UNL     1      21.515  47.615  48.310  1.00  0.00     0.256 C 
HETATM    2  N   UNL     1      21.066  46.219  48.482  1.00  0.00    -0.254 N 
HETATM    3  C   UNL     1      19.728  45.947  48.736  1.00  0.00     0.330 C 
HETATM    4  O   UNL     1      19.189  44.842  48.646  1.00  0.00    -0.246 OA
HETATM    5  N   UNL     1      18.943  46.972  49.168  1.00  0.00    -0.308 N 
HETATM    6  C   UNL     1      19.363  48.271  49.397  1.00  0.00     0.048 A 
HETATM    7  C   UNL     1      20.652  48.634  49.032  1.00  0.00     0.034 A 
HETATM    8  C   UNL     1      18.485  49.184  49.985  1.00  0.00     0.030 A 
HETATM    9  C   UNL     1      18.909  50.487  50.234  1.00  0.00     0.002 A 
HETATM   10  C   UNL     1      20.197  50.874  49.877  1.00  0.00     0.001 A 
HETATM   11  C   UNL     1      21.060  49.960  49.268  1.00  0.00     0.015 A 
HETATM   12  H   UNL     1      17.990  46.704  49.371  1.00  0.00     0.170 HD
ENDROOT
BRANCH   1  13
HETATM   13  C   UNL     1      23.017  47.777  48.797  1.00  0.00     0.279 C 
HETATM   14  N   UNL     1      23.314  47.331  50.068  1.00  0.00    -0.352 N 
HETATM   15  H   UNL     1      22.578  46.911  50.623  1.00  0.00     0.162 HD
HETATM   16  O   UNL     1      23.849  48.318  48.061  1.00  0.00    -0.268 OA
BRANCH  14  17
HETATM   17  C   UNL     1      24.675  47.225  50.542  1.00  0.00     0.161 C 
BRANCH  17  18
HETATM   18  C   UNL     1      25.172  45.805  50.620  1.00  0.00    -0.040 A 
HETATM   19  C   UNL     1      26.009  45.283  49.626  1.00  0.00     0.011 A 
HETATM   20  C   UNL     1      26.542  43.998  49.751  1.00  0.00     0.037 A 
HETATM   21  C   UNL     1      26.253  43.212  50.869  1.00  0.00     0.068 A 
HETATM   22  C   UNL     1      25.395  43.708  51.846  1.00  0.00     0.037 A 
HETATM   23  C   UNL     1      24.863  44.997  51.723  1.00  0.00     0.011 A 
BRANCH  21  24
HETATM   24  O   UNL     1      26.865  41.988  50.888  1.00  0.00    -0.356 OA
HETATM   25  C   UNL     1      26.075  40.881  50.465  1.00  0.00     0.210 C 
ENDBRANCH  21  24
ENDBRANCH  17  18
ENDBRANCH  14  17
ENDBRANCH   1  13
BRANCH   1  26
HETATM   26  O   UNL     1      21.408  47.942  46.922  1.00  0.00    -0.359 OA
HETATM   27  H   UNL     1      20.630  47.445  46.605  1.00  0.00     0.213 HD
ENDBRANCH   1  26
BRANCH   2  28
HETATM   28  C   UNL     1      21.951  45.124  48.149  1.00  0.00     0.043 A 
HETATM   29  C   UNL     1      22.327  44.146  49.083  1.00  0.00     0.031 A 
HETATM   30  C   UNL     1      23.127  43.057  48.714  1.00  0.00     0.026 A 
HETATM   31  C   UNL     1      23.571  42.932  47.403  1.00  0.00     0.034 A 
HETATM   32 CL   UNL     1      24.542  41.589  46.948  1.00  0.00    -0.084 Cl
HETATM   33  C   UNL     1      23.227  43.892  46.461  1.00  0.00     0.026 A 
HETATM   34  C   UNL     1      22.424  44.976  46.833  1.00  0.00     0.031 A 
ENDBRANCH   2  28
TORSDOF 6
ENDMDL
