MODEL 1
REMARK VINA RESULT:      -8.2      0.000      0.000
REMARK  6 active torsions:
REMARK  status: ('A' for Active; 'I' for Inactive)
REMARK    1  A    between atoms: C_8  and  C_9 
REMARK    2  A    between atoms: C_9  and  C_10 
REMARK       I    between atoms: C_10  and  N_11 
REMARK    3  A    between atoms: N_11  and  C_12 
REMARK    4  A    between atoms: C_12  and  C_13 
REMARK    5  A    between atoms: C_13  and  N_14 
REMARK    6  A    between atoms: C_13  and  C_20 
ROOT
HETATM    1  C   UNL     1      26.589  46.067  51.067  1.00  0.00     0.160 C 
ENDROOT
BRANCH   1   2
HETATM    2  N   UNL     1      26.544  45.403  52.365  1.00  0.00    -0.358 N 
HETATM    3  C   UNL     1      27.448  44.399  52.657  1.00  0.00     0.226 C 
HETATM    4  O   UNL     1      28.087  43.876  51.739  1.00  0.00    -0.273 OA
HETATM    5  H   UNL     1      26.194  45.950  53.145  1.00  0.00     0.162 HD
BRANCH   3   6
HETATM    6  C   UNL     1      27.546  43.933  54.115  1.00  0.00     0.111 C 
HETATM    7  C   UNL     1      26.196  43.833  54.825  1.00  0.00     0.025 C 
BRANCH   6   8
HETATM    8  C   UNL     1      28.557  44.710  54.909  1.00  0.00     0.004 A 
HETATM    9  C   UNL     1      29.785  44.237  55.351  1.00  0.00     0.033 A 
HETATM   10  C   UNL     1      30.461  42.926  55.193  1.00  0.00     0.070 C 
HETATM   11  N   UNL     1      30.364  45.262  56.044  1.00  0.00    -0.282 N 
HETATM   12  H   UNL     1      31.266  45.277  56.510  1.00  0.00     0.189 HD
HETATM   13  N   UNL     1      29.606  46.359  56.099  1.00  0.00    -0.179 NA
HETATM   14  C   UNL     1      28.497  46.040  55.426  1.00  0.00     0.060 A 
HETATM   15  C   UNL     1      27.420  47.055  55.327  1.00  0.00     0.073 C 
ENDBRANCH   6   8
ENDBRANCH   3   6
ENDBRANCH   1   2
BRANCH   1  16
HETATM   16  C   UNL     1      25.212  46.459  50.424  1.00  0.00     0.238 C 
BRANCH  16  17
HETATM   17  N   UNL     1      24.584  45.284  49.655  1.00  0.00    -0.061 N 
HETATM   18  H   UNL     1      24.174  45.703  48.792  1.00  0.00     0.280 HD
HETATM   19  C   UNL     1      23.509  44.477  50.351  1.00  0.00     0.236 C 
HETATM   20  C   UNL     1      24.262  43.300  50.928  1.00  0.00     0.029 C 
HETATM   21  C   UNL     1      25.184  42.925  49.790  1.00  0.00     0.029 C 
HETATM   22  C   UNL     1      25.612  44.253  49.187  1.00  0.00     0.236 C 
ENDBRANCH  16  17
BRANCH  16  23
HETATM   23  C   UNL     1      25.384  47.743  49.627  1.00  0.00    -0.024 A 
HETATM   24  C   UNL     1      24.283  48.444  49.100  1.00  0.00     0.033 A 
HETATM   25  C   UNL     1      24.475  49.624  48.378  1.00  0.00     0.034 A 
HETATM   26 CL   UNL     1      23.112  50.474  47.767  1.00  0.00    -0.084 Cl
HETATM   27  C   UNL     1      25.757  50.119  48.160  1.00  0.00     0.024 A 
HETATM   28  C   UNL     1      26.857  49.434  48.670  1.00  0.00     0.002 A 
HETATM   29  C   UNL     1      26.675  48.257  49.399  1.00  0.00     0.009 A 
ENDBRANCH  16  23
ENDBRANCH   1  16
TORSDOF 6
ENDMDL
MODEL 2
REMARK VINA RESULT:      -8.2      3.299      7.491
REMARK  6 active torsions:
REMARK  status: ('A' for Active; 'I' for Inactive)
REMARK    1  A    between atoms: C_8  and  C_9 
REMARK    2  A    between atoms: C_9  and  C_10 
REMARK       I    between atoms: C_10  and  N_11 
REMARK    3  A    between atoms: N_11  and  C_12 
REMARK    4  A    between atoms: C_12  and  C_13 
REMARK    5  A    between atoms: C_13  and  N_14 
REMARK    6  A    between atoms: C_13  and  C_20 
ROOT
HETATM    1  C   UNL     1      26.930  45.305  53.095  1.00  0.00     0.160 C 
ENDROOT
BRANCH   1   2
HETATM    2  N   UNL     1      25.980  45.368  51.990  1.00  0.00    -0.358 N 
HETATM    3  C   UNL     1      25.417  46.578  51.633  1.00  0.00     0.226 C 
HETATM    4  O   UNL     1      25.490  47.532  52.413  1.00  0.00    -0.273 OA
HETATM    5  H   UNL     1      26.088  44.674  51.257  1.00  0.00     0.162 HD
BRANCH   3   6
HETATM    6  C   UNL     1      24.655  46.642  50.303  1.00  0.00     0.111 C 
HETATM    7  C   UNL     1      24.895  45.438  49.393  1.00  0.00     0.025 C 
BRANCH   6   8
HETATM    8  C   UNL     1      24.840  47.950  49.587  1.00  0.00     0.004 A 
HETATM    9  C   UNL     1      23.825  48.783  49.137  1.00  0.00     0.033 A 
HETATM   10  C   UNL     1      22.348  48.683  49.214  1.00  0.00     0.070 C 
HETATM   11  N   UNL     1      24.440  49.842  48.530  1.00  0.00    -0.282 N 
HETATM   12  H   UNL     1      24.012  50.648  48.084  1.00  0.00     0.189 HD
HETATM   13  N   UNL     1      25.773  49.757  48.538  1.00  0.00    -0.179 NA
HETATM   14  C   UNL     1      26.036  48.607  49.164  1.00  0.00     0.060 A 
HETATM   15  C   UNL     1      27.454  48.199  49.314  1.00  0.00     0.073 C 
ENDBRANCH   6   8
ENDBRANCH   3   6
ENDBRANCH   1   2
BRANCH   1  16
HETATM   16  C   UNL     1      27.950  44.112  53.086  1.00  0.00     0.238 C 
BRANCH  16  17
HETATM   17  N   UNL     1      27.240  42.753  52.960  1.00  0.00    -0.061 N 
HETATM   18  H   UNL     1      26.281  42.903  53.338  1.00  0.00     0.280 HD
HETATM   19  C   UNL     1      27.854  41.565  53.671  1.00  0.00     0.236 C 
HETATM   20  C   UNL     1      28.678  40.892  52.598  1.00  0.00     0.029 C 
HETATM   21  C   UNL     1      27.750  40.945  51.405  1.00  0.00     0.029 C 
HETATM   22  C   UNL     1      27.066  42.298  51.510  1.00  0.00     0.236 C 
ENDBRANCH  16  17
BRANCH  16  23
HETATM   23  C   UNL     1      28.886  44.251  54.277  1.00  0.00    -0.024 A 
HETATM   24  C   UNL     1      28.599  45.117  55.350  1.00  0.00     0.033 A 
HETATM   25  C   UNL     1      29.477  45.216  56.432  1.00  0.00     0.034 A 
HETATM   26 CL   UNL     1      29.092  46.260  57.741  1.00  0.00    -0.084 Cl
HETATM   27  C   UNL     1      30.650  44.470  56.462  1.00  0.00     0.024 A 
HETATM   28  C   UNL     1      30.951  43.613  55.405  1.00  0.00     0.002 A 
HETATM   29  C   UNL     1      30.077  43.502  54.322  1.00  0.00     0.009 A 
ENDBRANCH  16  23
ENDBRANCH   1  16
TORSDOF 6
ENDMDL
MODEL 3
REMARK VINA RESULT:      -7.9     11.784     14.965
REMARK  6 active torsions:
REMARK  status: ('A' for Active; 'I' for Inactive)
REMARK    1  A    between atoms: C_8  and  C_9 
REMARK    2  A    between atoms: C_9  and  C_10 
REMARK       I    between atoms: C_10  and  N_11 
REMARK    3  A    between atoms: N_11  and  C_12 
REMARK    4  A    between atoms: C_12  and  C_13 
REMARK    5  A    between atoms: C_13  and  N_14 
REMARK    6  A    between atoms: C_13  and  C_20 
ROOT
HETATM    1  C   UNL     1      32.675  51.677  38.734  1.00  0.00     0.160 C 
ENDROOT
BRANCH   1   2
HETATM    2  N   UNL     1      31.376  52.311  38.931  1.00  0.00    -0.358 N 
HETATM    3  C   UNL     1      30.289  51.903  38.181  1.00  0.00     0.226 C 
HETATM    4  O   UNL     1      30.476  51.226  37.166  1.00  0.00    -0.273 OA
HETATM    5  H   UNL     1      31.186  52.681  39.857  1.00  0.00     0.162 HD
BRANCH   3   6
HETATM    6  C   UNL     1      28.902  52.392  38.616  1.00  0.00     0.111 C 
HETATM    7  C   UNL     1      28.849  53.882  38.955  1.00  0.00     0.025 C 
BRANCH   6   8
HETATM    8  C   UNL     1      28.293  51.536  39.691  1.00  0.00     0.004 A 
HETATM    9  C   UNL     1      27.300  50.583  39.508  1.00  0.00     0.033 A 
HETATM   10  C   UNL     1      26.578  50.118  38.299  1.00  0.00     0.070 C 
HETATM   11  N   UNL     1      27.035  50.066  40.744  1.00  0.00    -0.282 N 
HETATM   12  H   UNL     1      26.364  49.345  40.995  1.00  0.00     0.189 HD
HETATM   13  N   UNL     1      27.766  50.614  41.717  1.00  0.00    -0.179 NA
HETATM   14  C   UNL     1      28.528  51.521  41.099  1.00  0.00     0.060 A 
HETATM   15  C   UNL     1      29.450  52.340  41.922  1.00  0.00     0.073 C 
ENDBRANCH   6   8
ENDBRANCH   3   6
ENDBRANCH   1   2
BRANCH   1  16
HETATM   16  C   UNL     1      33.473  51.277  40.025  1.00  0.00     0.238 C 
BRANCH  16  17
HETATM   17  N   UNL     1      34.853  50.687  39.686  1.00  0.00    -0.061 N 
HETATM   18  H   UNL     1      34.679  49.983  38.938  1.00  0.00     0.280 HD
HETATM   19  C   UNL     1      35.630  50.019  40.800  1.00  0.00     0.236 C 
HETATM   20  C   UNL     1      36.554  51.108  41.295  1.00  0.00     0.029 C 
HETATM   21  C   UNL     1      37.035  51.727  40.002  1.00  0.00     0.029 C 
HETATM   22  C   UNL     1      35.818  51.716  39.093  1.00  0.00     0.236 C 
ENDBRANCH  16  17
BRANCH  16  23
HETATM   23  C   UNL     1      32.588  50.406  40.904  1.00  0.00    -0.024 A 
HETATM   24  C   UNL     1      31.727  49.435  40.360  1.00  0.00     0.033 A 
HETATM   25  C   UNL     1      30.933  48.646  41.196  1.00  0.00     0.034 A 
HETATM   26 CL   UNL     1      29.908  47.450  40.508  1.00  0.00    -0.084 Cl
HETATM   27  C   UNL     1      30.974  48.814  42.576  1.00  0.00     0.024 A 
HETATM   28  C   UNL     1      31.818  49.775  43.129  1.00  0.00     0.002 A 
HETATM   29  C   UNL     1      32.620  50.564  42.302  1.00  0.00     0.009 A 
ENDBRANCH  16  23
ENDBRANCH   1  16
TORSDOF 6
ENDMDL
MODEL 4
REMARK VINA RESULT:      -7.8      1.453      2.360
REMARK  6 active torsions:
REMARK  status: ('A' for Active; 'I' for Inactive)
REMARK    1  A    between atoms: C_8  and  C_9 
REMARK    2  A    between atoms: C_9  and  C_10 
REMARK       I    between atoms: C_10  and  N_11 
REMARK    3  A    between atoms: N_11  and  C_12 
REMARK    4  A    between atoms: C_12  and  C_13 
REMARK    5  A    between atoms: C_13  and  N_14 
REMARK    6  A    between atoms: C_13  and  C_20 
ROOT
HETATM    1  C   UNL     1      25.655  44.834  50.517  1.00  0.00     0.160 C 
ENDROOT
BRANCH   1   2
HETATM    2  N   UNL     1      25.783  44.322  51.877  1.00  0.00    -0.358 N 
HETATM    3  C   UNL     1      27.036  44.118  52.422  1.00  0.00     0.226 C 
HETATM    4  O   UNL     1      28.021  44.089  51.678  1.00  0.00    -0.273 OA
HETATM    5  H   UNL     1      25.030  44.547  52.520  1.00  0.00     0.162 HD
BRANCH   3   6
HETATM    6  C   UNL     1      27.121  43.854  53.930  1.00  0.00     0.111 C 
HETATM    7  C   UNL     1      25.761  43.802  54.627  1.00  0.00     0.025 C 
BRANCH   6   8
HETATM    8  C   UNL     1      28.089  44.766  54.628  1.00  0.00     0.004 A 
HETATM    9  C   UNL     1      27.897  46.117  54.884  1.00  0.00     0.033 A 
HETATM   10  C   UNL     1      26.768  47.033  54.594  1.00  0.00     0.070 C 
HETATM   11  N   UNL     1      29.028  46.552  55.514  1.00  0.00    -0.282 N 
HETATM   12  H   UNL     1      29.243  47.486  55.850  1.00  0.00     0.189 HD
HETATM   13  N   UNL     1      29.946  45.596  55.676  1.00  0.00    -0.179 NA
HETATM   14  C   UNL     1      29.399  44.505  55.132  1.00  0.00     0.060 A 
HETATM   15  C   UNL     1      30.194  43.253  55.125  1.00  0.00     0.073 C 
ENDBRANCH   6   8
ENDBRANCH   3   6
ENDBRANCH   1   2
BRANCH   1  16
HETATM   16  C   UNL     1      24.348  45.634  50.180  1.00  0.00     0.238 C 
BRANCH  16  17
HETATM   17  N   UNL     1      23.404  44.830  49.267  1.00  0.00    -0.061 N 
HETATM   18  H   UNL     1      22.933  45.537  48.663  1.00  0.00     0.280 HD
HETATM   19  C   UNL     1      22.341  43.977  49.924  1.00  0.00     0.236 C 
HETATM   20  C   UNL     1      22.967  42.603  49.976  1.00  0.00     0.029 C 
HETATM   21  C   UNL     1      23.603  42.492  48.608  1.00  0.00     0.029 C 
HETATM   22  C   UNL     1      24.145  43.882  48.322  1.00  0.00     0.236 C 
ENDBRANCH  16  17
BRANCH  16  23
HETATM   23  C   UNL     1      24.729  47.015  49.670  1.00  0.00    -0.024 A 
HETATM   24  C   UNL     1      26.061  47.470  49.682  1.00  0.00     0.033 A 
HETATM   25  C   UNL     1      26.378  48.742  49.200  1.00  0.00     0.034 A 
HETATM   26 CL   UNL     1      28.016  49.263  49.202  1.00  0.00    -0.084 Cl
HETATM   27  C   UNL     1      25.383  49.582  48.711  1.00  0.00     0.024 A 
HETATM   28  C   UNL     1      24.059  49.148  48.698  1.00  0.00     0.002 A 
HETATM   29  C   UNL     1      23.733  47.876  49.171  1.00  0.00     0.009 A 
ENDBRANCH  16  23
ENDBRANCH   1  16
TORSDOF 6
ENDMDL
MODEL 5
REMARK VINA RESULT:      -7.6      3.162      5.384
REMARK  6 active torsions:
REMARK  status: ('A' for Active; 'I' for Inactive)
REMARK    1  A    between atoms: C_8  and  C_9 
REMARK    2  A    between atoms: C_9  and  C_10 
REMARK       I    between atoms: C_10  and  N_11 
REMARK    3  A    between atoms: N_11  and  C_12 
REMARK    4  A    between atoms: C_12  and  C_13 
REMARK    5  A    between atoms: C_13  and  N_14 
REMARK    6  A    between atoms: C_13  and  C_20 
ROOT
HETATM    1  C   UNL     1      26.182  44.285  52.499  1.00  0.00     0.160 C 
ENDROOT
BRANCH   1   2
HETATM    2  N   UNL     1      26.927  45.175  53.383  1.00  0.00    -0.358 N 
HETATM    3  C   UNL     1      27.219  44.776  54.674  1.00  0.00     0.226 C 
HETATM    4  O   UNL     1      26.616  43.816  55.161  1.00  0.00    -0.273 OA
HETATM    5  H   UNL     1      27.573  45.820  52.941  1.00  0.00     0.162 HD
BRANCH   3   6
HETATM    6  C   UNL     1      28.234  45.614  55.462  1.00  0.00     0.111 C 
HETATM    7  C   UNL     1      28.555  46.963  54.820  1.00  0.00     0.025 C 
BRANCH   6   8
HETATM    8  C   UNL     1      29.470  44.841  55.826  1.00  0.00     0.004 A 
HETATM    9  C   UNL     1      30.259  45.048  56.949  1.00  0.00     0.033 A 
HETATM   10  C   UNL     1      30.153  46.005  58.077  1.00  0.00     0.070 C 
HETATM   11  N   UNL     1      31.281  44.145  56.871  1.00  0.00    -0.282 N 
HETATM   12  H   UNL     1      32.050  44.006  57.520  1.00  0.00     0.189 HD
HETATM   13  N   UNL     1      31.228  43.377  55.780  1.00  0.00    -0.179 NA
HETATM   14  C   UNL     1      30.141  43.794  55.125  1.00  0.00     0.060 A 
HETATM   15  C   UNL     1      29.812  43.148  53.831  1.00  0.00     0.073 C 
ENDBRANCH   6   8
ENDBRANCH   3   6
ENDBRANCH   1   2
BRANCH   1  16
HETATM   16  C   UNL     1      26.693  44.166  51.019  1.00  0.00     0.238 C 
BRANCH  16  17
HETATM   17  N   UNL     1      25.961  45.142  50.081  1.00  0.00    -0.061 N 
HETATM   18  H   UNL     1      25.719  44.585  49.234  1.00  0.00     0.280 HD
HETATM   19  C   UNL     1      26.700  46.387  49.639  1.00  0.00     0.236 C 
HETATM   20  C   UNL     1      26.229  47.445  50.610  1.00  0.00     0.029 C 
HETATM   21  C   UNL     1      24.745  47.165  50.690  1.00  0.00     0.029 C 
HETATM   22  C   UNL     1      24.637  45.650  50.655  1.00  0.00     0.236 C 
ENDBRANCH  16  17
BRANCH  16  23
HETATM   23  C   UNL     1      26.657  42.705  50.598  1.00  0.00    -0.024 A 
HETATM   24  C   UNL     1      27.708  41.819  50.901  1.00  0.00     0.033 A 
HETATM   25  C   UNL     1      27.641  40.480  50.506  1.00  0.00     0.034 A 
HETATM   26 CL   UNL     1      28.925  39.413  50.911  1.00  0.00    -0.084 Cl
HETATM   27  C   UNL     1      26.542  40.006  49.798  1.00  0.00     0.024 A 
HETATM   28  C   UNL     1      25.496  40.873  49.485  1.00  0.00     0.002 A 
HETATM   29  C   UNL     1      25.551  42.210  49.882  1.00  0.00     0.009 A 
ENDBRANCH  16  23
ENDBRANCH   1  16
TORSDOF 6
ENDMDL
MODEL 6
REMARK VINA RESULT:      -7.6      3.489      7.723
REMARK  6 active torsions:
REMARK  status: ('A' for Active; 'I' for Inactive)
REMARK    1  A    between atoms: C_8  and  C_9 
REMARK    2  A    between atoms: C_9  and  C_10 
REMARK       I    between atoms: C_10  and  N_11 
REMARK    3  A    between atoms: N_11  and  C_12 
REMARK    4  A    between atoms: C_12  and  C_13 
REMARK    5  A    between atoms: C_13  and  N_14 
REMARK    6  A    between atoms: C_13  and  C_20 
ROOT
HETATM    1  C   UNL     1      26.965  45.309  53.327  1.00  0.00     0.160 C 
ENDROOT
BRANCH   1   2
HETATM    2  N   UNL     1      26.565  45.554  51.945  1.00  0.00    -0.358 N 
HETATM    3  C   UNL     1      26.031  46.778  51.589  1.00  0.00     0.226 C 
HETATM    4  O   UNL     1      25.631  47.542  52.471  1.00  0.00    -0.273 OA
HETATM    5  H   UNL     1      27.070  45.043  51.228  1.00  0.00     0.162 HD
BRANCH   3   6
HETATM    6  C   UNL     1      25.892  47.083  50.093  1.00  0.00     0.111 C 
HETATM    7  C   UNL     1      26.652  48.331  49.642  1.00  0.00     0.025 C 
BRANCH   6   8
HETATM    8  C   UNL     1      24.464  47.080  49.626  1.00  0.00     0.004 A 
HETATM    9  C   UNL     1      23.659  45.959  49.476  1.00  0.00     0.033 A 
HETATM   10  C   UNL     1      23.907  44.516  49.715  1.00  0.00     0.070 C 
HETATM   11  N   UNL     1      22.455  46.411  49.015  1.00  0.00    -0.282 N 
HETATM   12  H   UNL     1      21.623  45.873  48.791  1.00  0.00     0.189 HD
HETATM   13  N   UNL     1      22.417  47.735  48.841  1.00  0.00    -0.179 NA
HETATM   14  C   UNL     1      23.634  48.158  49.194  1.00  0.00     0.060 A 
HETATM   15  C   UNL     1      23.931  49.607  49.085  1.00  0.00     0.073 C 
ENDBRANCH   6   8
ENDBRANCH   3   6
ENDBRANCH   1   2
BRANCH   1  16
HETATM   16  C   UNL     1      28.125  44.278  53.557  1.00  0.00     0.238 C 
BRANCH  16  17
HETATM   17  N   UNL     1      27.620  42.825  53.498  1.00  0.00    -0.061 N 
HETATM   18  H   UNL     1      26.814  42.783  54.158  1.00  0.00     0.280 HD
HETATM   19  C   UNL     1      28.592  41.723  53.860  1.00  0.00     0.236 C 
HETATM   20  C   UNL     1      29.132  41.269  52.523  1.00  0.00     0.029 C 
HETATM   21  C   UNL     1      27.882  41.231  51.673  1.00  0.00     0.029 C 
HETATM   22  C   UNL     1      27.072  42.434  52.124  1.00  0.00     0.236 C 
ENDBRANCH  16  17
BRANCH  16  23
HETATM   23  C   UNL     1      28.880  44.655  54.823  1.00  0.00    -0.024 A 
HETATM   24  C   UNL     1      30.017  43.942  55.250  1.00  0.00     0.033 A 
HETATM   25  C   UNL     1      30.692  44.319  56.413  1.00  0.00     0.034 A 
HETATM   26 CL   UNL     1      32.092  43.448  56.899  1.00  0.00    -0.084 Cl
HETATM   27  C   UNL     1      30.246  45.396  57.172  1.00  0.00     0.024 A 
HETATM   28  C   UNL     1      29.119  46.107  56.766  1.00  0.00     0.002 A 
HETATM   29  C   UNL     1      28.442  45.743  55.601  1.00  0.00     0.009 A 
ENDBRANCH  16  23
ENDBRANCH   1  16
TORSDOF 6
ENDMDL
MODEL 7
REMARK VINA RESULT:      -7.5      3.357      7.003
REMARK  6 active torsions:
REMARK  status: ('A' for Active; 'I' for Inactive)
REMARK    1  A    between atoms: C_8  and  C_9 
REMARK    2  A    between atoms: C_9  and  C_10 
REMARK       I    between atoms: C_10  and  N_11 
REMARK    3  A    between atoms: N_11  and  C_12 
REMARK    4  A    between atoms: C_12  and  C_13 
REMARK    5  A    between atoms: C_13  and  N_14 
REMARK    6  A    between atoms: C_13  and  C_20 
ROOT
HETATM    1  C   UNL     1      26.216  45.169  52.317  1.00  0.00     0.160 C 
ENDROOT
BRANCH   1   2
HETATM    2  N   UNL     1      25.295  45.692  51.313  1.00  0.00    -0.358 N 
HETATM    3  C   UNL     1      25.059  47.051  51.236  1.00  0.00     0.226 C 
HETATM    4  O   UNL     1      25.391  47.776  52.179  1.00  0.00    -0.273 OA
HETATM    5  H   UNL     1      25.206  45.158  50.455  1.00  0.00     0.162 HD
BRANCH   3   6
HETATM    6  C   UNL     1      24.316  47.574  50.001  1.00  0.00     0.111 C 
HETATM    7  C   UNL     1      23.662  46.476  49.161  1.00  0.00     0.025 C 
BRANCH   6   8
HETATM    8  C   UNL     1      25.148  48.512  49.173  1.00  0.00     0.004 A 
HETATM    9  C   UNL     1      26.520  48.430  48.981  1.00  0.00     0.033 A 
HETATM   10  C   UNL     1      27.538  47.469  49.471  1.00  0.00     0.070 C 
HETATM   11  N   UNL     1      26.859  49.486  48.184  1.00  0.00    -0.282 N 
HETATM   12  H   UNL     1      27.778  49.746  47.837  1.00  0.00     0.189 HD
HETATM   13  N   UNL     1      25.819  50.257  47.853  1.00  0.00    -0.179 NA
HETATM   14  C   UNL     1      24.771  49.688  48.457  1.00  0.00     0.060 A 
HETATM   15  C   UNL     1      23.443  50.332  48.308  1.00  0.00     0.073 C 
ENDBRANCH   6   8
ENDBRANCH   3   6
ENDBRANCH   1   2
BRANCH   1  16
HETATM   16  C   UNL     1      27.146  43.984  51.877  1.00  0.00     0.238 C 
BRANCH  16  17
HETATM   17  N   UNL     1      26.344  42.699  51.601  1.00  0.00    -0.061 N 
HETATM   18  H   UNL     1      26.406  42.138  52.478  1.00  0.00     0.280 HD
HETATM   19  C   UNL     1      26.781  41.827  50.444  1.00  0.00     0.236 C 
HETATM   20  C   UNL     1      25.887  42.267  49.307  1.00  0.00     0.029 C 
HETATM   21  C   UNL     1      24.543  42.385  49.989  1.00  0.00     0.029 C 
HETATM   22  C   UNL     1      24.856  42.959  51.361  1.00  0.00     0.236 C 
ENDBRANCH  16  17
BRANCH  16  23
HETATM   23  C   UNL     1      28.279  43.842  52.882  1.00  0.00    -0.024 A 
HETATM   24  C   UNL     1      28.329  44.615  54.058  1.00  0.00     0.033 A 
HETATM   25  C   UNL     1      29.380  44.456  54.964  1.00  0.00     0.034 A 
HETATM   26 CL   UNL     1      29.405  45.393  56.405  1.00  0.00    -0.084 Cl
HETATM   27  C   UNL     1      30.397  43.540  54.715  1.00  0.00     0.024 A 
HETATM   28  C   UNL     1      30.364  42.773  53.552  1.00  0.00     0.002 A 
HETATM   29  C   UNL     1      29.314  42.920  52.643  1.00  0.00     0.009 A 
ENDBRANCH  16  23
ENDBRANCH   1  16
TORSDOF 6
ENDMDL
MODEL 8
REMARK VINA RESULT:      -7.5      3.510      7.340
REMARK  6 active torsions:
REMARK  status: ('A' for Active; 'I' for Inactive)
REMARK    1  A    between atoms: C_8  and  C_9 
REMARK    2  A    between atoms: C_9  and  C_10 
REMARK       I    between atoms: C_10  and  N_11 
REMARK    3  A    between atoms: N_11  and  C_12 
REMARK    4  A    between atoms: C_12  and  C_13 
REMARK    5  A    between atoms: C_13  and  N_14 
REMARK    6  A    between atoms: C_13  and  C_20 
ROOT
HETATM    1  C   UNL     1      25.876  45.009  53.314  1.00  0.00     0.160 C 
ENDROOT
BRANCH   1   2
HETATM    2  N   UNL     1      25.145  45.197  52.065  1.00  0.00    -0.358 N 
HETATM    3  C   UNL     1      24.972  46.469  51.554  1.00  0.00     0.226 C 
HETATM    4  O   UNL     1      25.174  47.445  52.281  1.00  0.00    -0.273 OA
HETATM    5  H   UNL     1      25.176  44.431  51.400  1.00  0.00     0.162 HD
BRANCH   3   6
HETATM    6  C   UNL     1      24.452  46.591  50.116  1.00  0.00     0.111 C 
HETATM    7  C   UNL     1      24.933  45.475  49.187  1.00  0.00     0.025 C 
BRANCH   6   8
HETATM    8  C   UNL     1      24.669  47.958  49.531  1.00  0.00     0.004 A 
HETATM    9  C   UNL     1      25.899  48.542  49.258  1.00  0.00     0.033 A 
HETATM   10  C   UNL     1      27.290  48.055  49.423  1.00  0.00     0.070 C 
HETATM   11  N   UNL     1      25.630  49.785  48.759  1.00  0.00    -0.282 N 
HETATM   12  H   UNL     1      26.287  50.496  48.451  1.00  0.00     0.189 HD
HETATM   13  N   UNL     1      24.325  50.061  48.698  1.00  0.00    -0.179 NA
HETATM   14  C   UNL     1      23.724  48.968  49.176  1.00  0.00     0.060 A 
HETATM   15  C   UNL     1      22.244  48.966  49.269  1.00  0.00     0.073 C 
ENDBRANCH   6   8
ENDBRANCH   3   6
ENDBRANCH   1   2
BRANCH   1  16
HETATM   16  C   UNL     1      27.245  44.246  53.226  1.00  0.00     0.238 C 
BRANCH  16  17
HETATM   17  N   UNL     1      27.046  42.723  53.126  1.00  0.00    -0.061 N 
HETATM   18  H   UNL     1      26.151  42.526  53.621  1.00  0.00     0.280 HD
HETATM   19  C   UNL     1      28.121  41.829  53.708  1.00  0.00     0.236 C 
HETATM   20  C   UNL     1      28.986  41.489  52.517  1.00  0.00     0.029 C 
HETATM   21  C   UNL     1      27.956  41.209  51.445  1.00  0.00     0.029 C 
HETATM   22  C   UNL     1      26.860  42.233  51.689  1.00  0.00     0.236 C 
ENDBRANCH  16  17
BRANCH  16  23
HETATM   23  C   UNL     1      28.148  44.713  54.357  1.00  0.00    -0.024 A 
HETATM   24  C   UNL     1      29.296  43.993  54.737  1.00  0.00     0.033 A 
HETATM   25  C   UNL     1      30.108  44.454  55.776  1.00  0.00     0.034 A 
HETATM   26 CL   UNL     1      31.518  43.570  56.204  1.00  0.00    -0.084 Cl
HETATM   27  C   UNL     1      29.789  45.624  56.458  1.00  0.00     0.024 A 
HETATM   28  C   UNL     1      28.652  46.344  56.097  1.00  0.00     0.002 A 
HETATM   29  C   UNL     1      27.838  45.895  55.056  1.00  0.00     0.009 A 
ENDBRANCH  16  23
ENDBRANCH   1  16
TORSDOF 6
ENDMDL
MODEL 9
REMARK VINA RESULT:      -7.5      3.292      4.906
REMARK  6 active torsions:
REMARK  status: ('A' for Active; 'I' for Inactive)
REMARK    1  A    between atoms: C_8  and  C_9 
REMARK    2  A    between atoms: C_9  and  C_10 
REMARK       I    between atoms: C_10  and  N_11 
REMARK    3  A    between atoms: N_11  and  C_12 
REMARK    4  A    between atoms: C_12  and  C_13 
REMARK    5  A    between atoms: C_13  and  N_14 
REMARK    6  A    between atoms: C_13  and  C_20 
ROOT
HETATM    1  C   UNL     1      28.441  41.430  52.467  1.00  0.00     0.160 C 
ENDROOT
BRANCH   1   2
HETATM    2  N   UNL     1      27.642  42.097  53.490  1.00  0.00    -0.358 N 
HETATM    3  C   UNL     1      28.022  43.341  53.958  1.00  0.00     0.226 C 
HETATM    4  O   UNL     1      29.164  43.749  53.731  1.00  0.00    -0.273 OA
HETATM    5  H   UNL     1      26.651  41.879  53.509  1.00  0.00     0.162 HD
BRANCH   3   6
HETATM    6  C   UNL     1      27.012  44.117  54.812  1.00  0.00     0.111 C 
HETATM    7  C   UNL     1      25.558  43.700  54.584  1.00  0.00     0.025 C 
BRANCH   6   8
HETATM    8  C   UNL     1      27.202  45.605  54.734  1.00  0.00     0.004 A 
HETATM    9  C   UNL     1      28.006  46.369  55.569  1.00  0.00     0.033 A 
HETATM   10  C   UNL     1      28.880  46.008  56.711  1.00  0.00     0.070 C 
HETATM   11  N   UNL     1      27.866  47.663  55.156  1.00  0.00    -0.282 N 
HETATM   12  H   UNL     1      28.306  48.497  55.535  1.00  0.00     0.189 HD
HETATM   13  N   UNL     1      27.026  47.804  54.127  1.00  0.00    -0.179 NA
HETATM   14  C   UNL     1      26.601  46.565  53.864  1.00  0.00     0.060 A 
HETATM   15  C   UNL     1      25.615  46.379  52.772  1.00  0.00     0.073 C 
ENDBRANCH   6   8
ENDBRANCH   3   6
ENDBRANCH   1   2
BRANCH   1  16
HETATM   16  C   UNL     1      27.684  40.952  51.178  1.00  0.00     0.238 C 
BRANCH  16  17
HETATM   17  N   UNL     1      28.649  40.369  50.131  1.00  0.00    -0.061 N 
HETATM   18  H   UNL     1      29.547  40.883  50.262  1.00  0.00     0.280 HD
HETATM   19  C   UNL     1      28.253  40.463  48.673  1.00  0.00     0.236 C 
HETATM   20  C   UNL     1      27.616  39.122  48.388  1.00  0.00     0.029 C 
HETATM   21  C   UNL     1      28.560  38.168  49.085  1.00  0.00     0.029 C 
HETATM   22  C   UNL     1      28.963  38.889  50.360  1.00  0.00     0.236 C 
ENDBRANCH  16  17
BRANCH  16  23
HETATM   23  C   UNL     1      26.787  42.077  50.683  1.00  0.00    -0.024 A 
HETATM   24  C   UNL     1      27.296  43.354  50.381  1.00  0.00     0.033 A 
HETATM   25  C   UNL     1      26.447  44.364  49.922  1.00  0.00     0.034 A 
HETATM   26 CL   UNL     1      27.097  45.907  49.535  1.00  0.00    -0.084 Cl
HETATM   27  C   UNL     1      25.085  44.126  49.766  1.00  0.00     0.024 A 
HETATM   28  C   UNL     1      24.566  42.868  50.067  1.00  0.00     0.002 A 
HETATM   29  C   UNL     1      25.408  41.851  50.520  1.00  0.00     0.009 A 
ENDBRANCH  16  23
ENDBRANCH   1  16
TORSDOF 6
ENDMDL
MODEL 10
REMARK VINA RESULT:      -7.4      4.435      8.117
REMARK  6 active torsions:
REMARK  status: ('A' for Active; 'I' for Inactive)
REMARK    1  A    between atoms: C_8  and  C_9 
REMARK    2  A    between atoms: C_9  and  C_10 
REMARK       I    between atoms: C_10  and  N_11 
REMARK    3  A    between atoms: N_11  and  C_12 
REMARK    4  A    between atoms: C_12  and  C_13 
REMARK    5  A    between atoms: C_13  and  N_14 
REMARK    6  A    between atoms: C_13  and  C_20 
ROOT
HETATM    1  C   UNL     1      23.865  47.680  49.709  1.00  0.00     0.160 C 
ENDROOT
BRANCH   1   2
HETATM    2  N   UNL     1      22.518  48.187  49.471  1.00  0.00    -0.358 N 
HETATM    3  C   UNL     1      22.226  48.837  48.287  1.00  0.00     0.226 C 
HETATM    4  O   UNL     1      23.150  49.238  47.574  1.00  0.00    -0.273 OA
HETATM    5  H   UNL     1      21.758  47.692  49.927  1.00  0.00     0.162 HD
BRANCH   3   6
HETATM    6  C   UNL     1      20.749  49.097  47.965  1.00  0.00     0.111 C 
HETATM    7  C   UNL     1      20.495  50.424  47.249  1.00  0.00     0.025 C 
BRANCH   6   8
HETATM    8  C   UNL     1      19.851  48.904  49.154  1.00  0.00     0.004 A 
HETATM    9  C   UNL     1      19.041  47.803  49.393  1.00  0.00     0.033 A 
HETATM   10  C   UNL     1      18.816  46.549  48.633  1.00  0.00     0.070 C 
HETATM   11  N   UNL     1      18.388  48.055  50.566  1.00  0.00    -0.282 N 
HETATM   12  H   UNL     1      17.713  47.470  51.050  1.00  0.00     0.189 HD
HETATM   13  N   UNL     1      18.698  49.238  51.102  1.00  0.00    -0.179 NA
HETATM   14  C   UNL     1      19.576  49.776  50.251  1.00  0.00     0.060 A 
HETATM   15  C   UNL     1      20.104  51.129  50.551  1.00  0.00     0.073 C 
ENDBRANCH   6   8
ENDBRANCH   3   6
ENDBRANCH   1   2
BRANCH   1  16
HETATM   16  C   UNL     1      24.119  46.164  49.391  1.00  0.00     0.238 C 
BRANCH  16  17
HETATM   17  N   UNL     1      22.810  45.356  49.377  1.00  0.00    -0.061 N 
HETATM   18  H   UNL     1      22.119  45.934  49.903  1.00  0.00     0.280 HD
HETATM   19  C   UNL     1      22.829  43.968  49.982  1.00  0.00     0.236 C 
HETATM   20  C   UNL     1      23.045  43.062  48.791  1.00  0.00     0.029 C 
HETATM   21  C   UNL     1      22.119  43.667  47.760  1.00  0.00     0.029 C 
HETATM   22  C   UNL     1      22.233  45.167  47.973  1.00  0.00     0.236 C 
ENDBRANCH  16  17
BRANCH  16  23
HETATM   23  C   UNL     1      25.202  45.637  50.320  1.00  0.00    -0.024 A 
HETATM   24  C   UNL     1      25.181  45.890  51.704  1.00  0.00     0.033 A 
HETATM   25  C   UNL     1      26.188  45.384  52.531  1.00  0.00     0.034 A 
HETATM   26 CL   UNL     1      26.125  45.686  54.221  1.00  0.00    -0.084 Cl
HETATM   27  C   UNL     1      27.230  44.634  51.998  1.00  0.00     0.024 A 
HETATM   28  C   UNL     1      27.268  44.380  50.628  1.00  0.00     0.002 A 
HETATM   29  C   UNL     1      26.263  44.875  49.795  1.00  0.00     0.009 A 
ENDBRANCH  16  23
ENDBRANCH   1  16
TORSDOF 6
ENDMDL
