MODEL 1
REMARK VINA RESULT:      -8.7      0.000      0.000
REMARK  3 active torsions:
REMARK  status: ('A' for Active; 'I' for Inactive)
REMARK    1  A    between atoms: C_7  and  N_8 
REMARK    2  A    between atoms: N_8  and  C_9 
REMARK    3  A    between atoms: C_9  and  C_10 
ROOT
HETATM    1  C   UNL     1      25.514  47.032  50.282  1.00  0.00    -0.041 A 
HETATM    2  C   UNL     1      26.391  48.027  49.826  1.00  0.00     0.035 A 
HETATM    3  C   UNL     1      25.936  49.031  48.965  1.00  0.00     0.070 A 
HETATM    4 CL   UNL     1      27.068  50.216  48.421  1.00  0.00    -0.081 Cl
HETATM    5  C   UNL     1      24.592  49.077  48.578  1.00  0.00     0.123 A 
HETATM    6  C   UNL     1      23.713  48.094  49.044  1.00  0.00     0.104 A 
HETATM    7  O   UNL     1      22.405  48.019  48.646  1.00  0.00    -0.348 OA
HETATM    8  C   UNL     1      21.648  49.155  49.069  1.00  0.00     0.178 C 
HETATM    9  C   UNL     1      21.819  50.337  48.127  1.00  0.00     0.053 C 
HETATM   10  C   UNL     1      23.223  50.915  48.216  1.00  0.00     0.178 C 
HETATM   11  O   UNL     1      24.193  50.023  47.669  1.00  0.00    -0.346 OA
HETATM   12  C   UNL     1      24.172  47.073  49.879  1.00  0.00     0.048 A 
ENDROOT
BRANCH   1  13
HETATM   13  C   UNL     1      25.996  45.949  51.220  1.00  0.00     0.132 C 
BRANCH  13  14
HETATM   14  N   UNL     1      25.259  46.054  52.466  1.00  0.00    -0.272 NA
HETATM   15  H   UNL     1      24.325  46.434  52.374  1.00  0.00     0.129 HD
BRANCH  14  16
HETATM   16  C   UNL     1      25.958  46.610  53.537  1.00  0.00     0.117 A 
HETATM   17  C   UNL     1      27.082  45.970  54.100  1.00  0.00     0.040 A 
HETATM   18  C   UNL     1      27.770  44.744  53.793  1.00  0.00     0.025 A 
HETATM   19  C   UNL     1      27.688  46.616  55.167  1.00  0.00     0.112 A 
HETATM   20  C   UNL     1      28.841  44.513  54.628  1.00  0.00     0.053 A 
HETATM   21  S   UNL     1      29.028  45.760  55.782  1.00  0.00    -0.081 SA
HETATM   22  N   UNL     1      27.316  47.788  55.707  1.00  0.00    -0.234 NA
HETATM   23  C   UNL     1      26.256  48.313  55.088  1.00  0.00     0.236 A 
HETATM   24  N   UNL     1      25.571  47.798  54.055  1.00  0.00    -0.229 NA
ENDBRANCH  14  16
ENDBRANCH  13  14
ENDBRANCH   1  13
TORSDOF 3
ENDMDL
MODEL 2
REMARK VINA RESULT:      -8.4      4.272      7.402
REMARK  3 active torsions:
REMARK  status: ('A' for Active; 'I' for Inactive)
REMARK    1  A    between atoms: C_7  and  N_8 
REMARK    2  A    between atoms: N_8  and  C_9 
REMARK    3  A    between atoms: C_9  and  C_10 
ROOT
HETATM    1  C   UNL     1      25.730  45.399  52.905  1.00  0.00    -0.041 A 
HETATM    2  C   UNL     1      25.818  46.606  53.612  1.00  0.00     0.035 A 
HETATM    3  C   UNL     1      26.721  46.742  54.672  1.00  0.00     0.070 A 
HETATM    4 CL   UNL     1      26.768  48.248  55.518  1.00  0.00    -0.081 Cl
HETATM    5  C   UNL     1      27.573  45.688  55.016  1.00  0.00     0.123 A 
HETATM    6  C   UNL     1      27.498  44.487  54.302  1.00  0.00     0.104 A 
HETATM    7  O   UNL     1      28.235  43.381  54.629  1.00  0.00    -0.348 OA
HETATM    8  C   UNL     1      29.637  43.602  54.464  1.00  0.00     0.178 C 
HETATM    9  C   UNL     1      30.249  44.308  55.665  1.00  0.00     0.053 C 
HETATM   10  C   UNL     1      29.770  45.749  55.760  1.00  0.00     0.178 C 
HETATM   11  O   UNL     1      28.388  45.821  56.110  1.00  0.00    -0.346 OA
HETATM   12  C   UNL     1      26.576  44.339  53.264  1.00  0.00     0.048 A 
ENDROOT
BRANCH   1  13
HETATM   13  C   UNL     1      24.764  45.248  51.752  1.00  0.00     0.132 C 
BRANCH  13  14
HETATM   14  N   UNL     1      25.449  45.609  50.524  1.00  0.00    -0.272 NA
HETATM   15  H   UNL     1      26.459  45.556  50.572  1.00  0.00     0.129 HD
BRANCH  14  16
HETATM   16  C   UNL     1      25.004  46.777  49.905  1.00  0.00     0.117 A 
HETATM   17  C   UNL     1      25.902  47.785  49.495  1.00  0.00     0.040 A 
HETATM   18  C   UNL     1      27.334  47.909  49.557  1.00  0.00     0.025 A 
HETATM   19  C   UNL     1      25.340  48.904  48.899  1.00  0.00     0.112 A 
HETATM   20  C   UNL     1      27.788  49.096  49.025  1.00  0.00     0.053 A 
HETATM   21  S   UNL     1      26.503  50.067  48.449  1.00  0.00    -0.081 SA
HETATM   22  N   UNL     1      24.034  49.115  48.669  1.00  0.00    -0.234 NA
HETATM   23  C   UNL     1      23.279  48.094  49.079  1.00  0.00     0.236 A 
HETATM   24  N   UNL     1      23.685  46.960  49.673  1.00  0.00    -0.229 NA
ENDBRANCH  14  16
ENDBRANCH  13  14
ENDBRANCH   1  13
TORSDOF 3
ENDMDL
MODEL 3
REMARK VINA RESULT:      -8.3      4.376      7.842
REMARK  3 active torsions:
REMARK  status: ('A' for Active; 'I' for Inactive)
REMARK    1  A    between atoms: C_7  and  N_8 
REMARK    2  A    between atoms: N_8  and  C_9 
REMARK    3  A    between atoms: C_9  and  C_10 
ROOT
HETATM    1  C   UNL     1      25.774  46.194  51.695  1.00  0.00    -0.041 A 
HETATM    2  C   UNL     1      25.793  47.137  52.732  1.00  0.00     0.035 A 
HETATM    3  C   UNL     1      26.459  46.859  53.930  1.00  0.00     0.070 A 
HETATM    4 CL   UNL     1      26.429  48.054  55.178  1.00  0.00    -0.081 Cl
HETATM    5  C   UNL     1      27.145  45.652  54.096  1.00  0.00     0.123 A 
HETATM    6  C   UNL     1      27.140  44.715  53.057  1.00  0.00     0.104 A 
HETATM    7  O   UNL     1      27.715  43.478  53.169  1.00  0.00    -0.348 OA
HETATM    8  C   UNL     1      29.132  43.556  53.336  1.00  0.00     0.178 C 
HETATM    9  C   UNL     1      29.523  43.820  54.783  1.00  0.00     0.053 C 
HETATM   10  C   UNL     1      29.134  45.226  55.212  1.00  0.00     0.178 C 
HETATM   11  O   UNL     1      27.718  45.373  55.309  1.00  0.00    -0.346 OA
HETATM   12  C   UNL     1      26.450  44.978  51.871  1.00  0.00     0.048 A 
ENDROOT
BRANCH   1  13
HETATM   13  C   UNL     1      25.065  46.491  50.394  1.00  0.00     0.132 C 
BRANCH  13  14
HETATM   14  N   UNL     1      24.153  47.601  50.606  1.00  0.00    -0.272 NA
HETATM   15  H   UNL     1      23.251  47.340  50.984  1.00  0.00     0.129 HD
BRANCH  14  16
HETATM   16  C   UNL     1      24.049  48.507  49.552  1.00  0.00     0.117 A 
HETATM   17  C   UNL     1      22.803  48.831  48.974  1.00  0.00     0.040 A 
HETATM   18  C   UNL     1      21.454  48.412  49.251  1.00  0.00     0.025 A 
HETATM   19  C   UNL     1      22.827  49.737  47.926  1.00  0.00     0.112 A 
HETATM   20  C   UNL     1      20.533  48.999  48.412  1.00  0.00     0.053 A 
HETATM   21  S   UNL     1      21.277  50.054  47.291  1.00  0.00    -0.081 SA
HETATM   22  N   UNL     1      23.913  50.339  47.415  1.00  0.00    -0.234 NA
HETATM   23  C   UNL     1      25.032  49.976  48.045  1.00  0.00     0.236 A 
HETATM   24  N   UNL     1      25.157  49.110  49.064  1.00  0.00    -0.229 NA
ENDBRANCH  14  16
ENDBRANCH  13  14
ENDBRANCH   1  13
TORSDOF 3
ENDMDL
MODEL 4
REMARK VINA RESULT:      -8.3      5.531      8.486
REMARK  3 active torsions:
REMARK  status: ('A' for Active; 'I' for Inactive)
REMARK    1  A    between atoms: C_7  and  N_8 
REMARK    2  A    between atoms: N_8  and  C_9 
REMARK    3  A    between atoms: C_9  and  C_10 
ROOT
HETATM    1  C   UNL     1      27.420  44.894  54.397  1.00  0.00    -0.041 A 
HETATM    2  C   UNL     1      28.268  43.933  53.829  1.00  0.00     0.035 A 
HETATM    3  C   UNL     1      29.556  43.735  54.337  1.00  0.00     0.070 A 
HETATM    4 CL   UNL     1      30.560  42.550  53.581  1.00  0.00    -0.081 Cl
HETATM    5  C   UNL     1      30.002  44.469  55.441  1.00  0.00     0.123 A 
HETATM    6  C   UNL     1      29.153  45.418  56.019  1.00  0.00     0.104 A 
HETATM    7  O   UNL     1      29.541  46.235  57.047  1.00  0.00    -0.348 OA
HETATM    8  C   UNL     1      29.829  45.501  58.238  1.00  0.00     0.178 C 
HETATM    9  C   UNL     1      31.236  44.922  58.226  1.00  0.00     0.053 C 
HETATM   10  C   UNL     1      31.366  43.808  57.198  1.00  0.00     0.178 C 
HETATM   11  O   UNL     1      31.296  44.313  55.865  1.00  0.00    -0.346 OA
HETATM   12  C   UNL     1      27.877  45.639  55.494  1.00  0.00     0.048 A 
ENDROOT
BRANCH   1  13
HETATM   13  C   UNL     1      26.024  45.107  53.859  1.00  0.00     0.132 C 
BRANCH  13  14
HETATM   14  N   UNL     1      25.515  43.836  53.377  1.00  0.00    -0.272 NA
HETATM   15  H   UNL     1      26.062  43.029  53.654  1.00  0.00     0.129 HD
BRANCH  14  16
HETATM   16  C   UNL     1      25.157  43.800  52.029  1.00  0.00     0.117 A 
HETATM   17  C   UNL     1      25.774  42.912  51.122  1.00  0.00     0.040 A 
HETATM   18  C   UNL     1      26.794  41.908  51.272  1.00  0.00     0.025 A 
HETATM   19  C   UNL     1      25.340  42.976  49.807  1.00  0.00     0.112 A 
HETATM   20  C   UNL     1      27.091  41.273  50.086  1.00  0.00     0.053 A 
HETATM   21  S   UNL     1      26.152  41.874  48.790  1.00  0.00    -0.081 SA
HETATM   22  N   UNL     1      24.391  43.790  49.318  1.00  0.00    -0.234 NA
HETATM   23  C   UNL     1      23.864  44.572  50.262  1.00  0.00     0.236 A 
HETATM   24  N   UNL     1      24.189  44.621  51.564  1.00  0.00    -0.229 NA
ENDBRANCH  14  16
ENDBRANCH  13  14
ENDBRANCH   1  13
TORSDOF 3
ENDMDL
MODEL 5
REMARK VINA RESULT:      -8.3      4.874      8.116
REMARK  3 active torsions:
REMARK  status: ('A' for Active; 'I' for Inactive)
REMARK    1  A    between atoms: C_7  and  N_8 
REMARK    2  A    between atoms: N_8  and  C_9 
REMARK    3  A    between atoms: C_9  and  C_10 
ROOT
HETATM    1  C   UNL     1      26.832  44.337  54.260  1.00  0.00    -0.041 A 
HETATM    2  C   UNL     1      27.882  43.530  53.801  1.00  0.00     0.035 A 
HETATM    3  C   UNL     1      29.181  43.711  54.288  1.00  0.00     0.070 A 
HETATM    4 CL   UNL     1      30.436  42.699  53.669  1.00  0.00    -0.081 Cl
HETATM    5  C   UNL     1      29.441  44.676  55.267  1.00  0.00     0.123 A 
HETATM    6  C   UNL     1      28.393  45.472  55.738  1.00  0.00     0.104 A 
HETATM    7  O   UNL     1      28.578  46.493  56.631  1.00  0.00    -0.348 OA
HETATM    8  C   UNL     1      29.030  46.021  57.901  1.00  0.00     0.178 C 
HETATM    9  C   UNL     1      30.534  45.790  57.922  1.00  0.00     0.053 C 
HETATM   10  C   UNL     1      30.922  44.604  57.052  1.00  0.00     0.178 C 
HETATM   11  O   UNL     1      30.736  44.887  55.666  1.00  0.00    -0.346 OA
HETATM   12  C   UNL     1      27.101  45.314  55.230  1.00  0.00     0.048 A 
ENDROOT
BRANCH   1  13
HETATM   13  C   UNL     1      25.425  44.140  53.744  1.00  0.00     0.132 C 
BRANCH  13  14
HETATM   14  N   UNL     1      25.495  43.510  52.438  1.00  0.00    -0.272 NA
HETATM   15  H   UNL     1      26.429  43.261  52.139  1.00  0.00     0.129 HD
BRANCH  14  16
HETATM   16  C   UNL     1      24.758  44.130  51.429  1.00  0.00     0.117 A 
HETATM   17  C   UNL     1      25.054  45.439  50.993  1.00  0.00     0.040 A 
HETATM   18  C   UNL     1      26.058  46.397  51.374  1.00  0.00     0.025 A 
HETATM   19  C   UNL     1      24.247  45.951  49.989  1.00  0.00     0.112 A 
HETATM   20  C   UNL     1      25.965  47.574  50.665  1.00  0.00     0.053 A 
HETATM   21  S   UNL     1      24.678  47.539  49.540  1.00  0.00    -0.081 SA
HETATM   22  N   UNL     1      23.222  45.323  49.391  1.00  0.00    -0.234 NA
HETATM   23  C   UNL     1      23.041  44.089  49.866  1.00  0.00     0.236 A 
HETATM   24  N   UNL     1      23.739  43.472  50.832  1.00  0.00    -0.229 NA
ENDBRANCH  14  16
ENDBRANCH  13  14
ENDBRANCH   1  13
TORSDOF 3
ENDMDL
MODEL 6
REMARK VINA RESULT:      -8.0      2.478      3.531
REMARK  3 active torsions:
REMARK  status: ('A' for Active; 'I' for Inactive)
REMARK    1  A    between atoms: C_7  and  N_8 
REMARK    2  A    between atoms: N_8  and  C_9 
REMARK    3  A    between atoms: C_9  and  C_10 
ROOT
HETATM    1  C   UNL     1      25.321  47.099  50.099  1.00  0.00    -0.041 A 
HETATM    2  C   UNL     1      26.210  48.092  49.663  1.00  0.00     0.035 A 
HETATM    3  C   UNL     1      25.763  49.130  48.838  1.00  0.00     0.070 A 
HETATM    4 CL   UNL     1      26.910  50.312  48.317  1.00  0.00    -0.081 Cl
HETATM    5  C   UNL     1      24.417  49.210  48.467  1.00  0.00     0.123 A 
HETATM    6  C   UNL     1      23.525  48.230  48.913  1.00  0.00     0.104 A 
HETATM    7  O   UNL     1      22.212  48.188  48.529  1.00  0.00    -0.348 OA
HETATM    8  C   UNL     1      21.480  49.324  48.994  1.00  0.00     0.178 C 
HETATM    9  C   UNL     1      21.661  50.531  48.086  1.00  0.00     0.053 C 
HETATM   10  C   UNL     1      23.076  51.082  48.177  1.00  0.00     0.178 C 
HETATM   11  O   UNL     1      24.025  50.190  47.593  1.00  0.00    -0.346 OA
HETATM   12  C   UNL     1      23.975  47.176  49.712  1.00  0.00     0.048 A 
ENDROOT
BRANCH   1  13
HETATM   13  C   UNL     1      25.794  45.981  50.998  1.00  0.00     0.132 C 
BRANCH  13  14
HETATM   14  N   UNL     1      27.072  45.499  50.504  1.00  0.00    -0.272 NA
HETATM   15  H   UNL     1      27.368  45.911  49.628  1.00  0.00     0.129 HD
BRANCH  14  16
HETATM   16  C   UNL     1      27.246  44.115  50.529  1.00  0.00     0.117 A 
HETATM   17  C   UNL     1      27.735  43.451  51.673  1.00  0.00     0.040 A 
HETATM   18  C   UNL     1      28.132  43.908  52.979  1.00  0.00     0.025 A 
HETATM   19  C   UNL     1      27.874  42.075  51.574  1.00  0.00     0.112 A 
HETATM   20  C   UNL     1      28.555  42.881  53.794  1.00  0.00     0.053 A 
HETATM   21  S   UNL     1      28.479  41.368  53.003  1.00  0.00    -0.081 SA
HETATM   22  N   UNL     1      27.583  41.318  50.504  1.00  0.00    -0.234 NA
HETATM   23  C   UNL     1      27.113  42.043  49.487  1.00  0.00     0.236 A 
HETATM   24  N   UNL     1      26.933  43.373  49.442  1.00  0.00    -0.229 NA
ENDBRANCH  14  16
ENDBRANCH  13  14
ENDBRANCH   1  13
TORSDOF 3
ENDMDL
MODEL 7
REMARK VINA RESULT:      -8.0      6.149      8.345
REMARK  3 active torsions:
REMARK  status: ('A' for Active; 'I' for Inactive)
REMARK    1  A    between atoms: C_7  and  N_8 
REMARK    2  A    between atoms: N_8  and  C_9 
REMARK    3  A    between atoms: C_9  and  C_10 
ROOT
HETATM    1  C   UNL     1      28.564  42.469  53.482  1.00  0.00    -0.041 A 
HETATM    2  C   UNL     1      29.580  42.726  54.412  1.00  0.00     0.035 A 
HETATM    3  C   UNL     1      29.726  44.002  54.968  1.00  0.00     0.070 A 
HETATM    4 CL   UNL     1      31.010  44.262  56.094  1.00  0.00    -0.081 Cl
HETATM    5  C   UNL     1      28.836  45.027  54.629  1.00  0.00     0.123 A 
HETATM    6  C   UNL     1      27.812  44.769  53.713  1.00  0.00     0.104 A 
HETATM    7  O   UNL     1      26.953  45.737  53.265  1.00  0.00    -0.348 OA
HETATM    8  C   UNL     1      26.131  46.252  54.314  1.00  0.00     0.178 C 
HETATM    9  C   UNL     1      26.846  47.324  55.124  1.00  0.00     0.053 C 
HETATM   10  C   UNL     1      27.976  46.729  55.951  1.00  0.00     0.178 C 
HETATM   11  O   UNL     1      29.053  46.287  55.126  1.00  0.00    -0.346 OA
HETATM   12  C   UNL     1      27.684  43.504  53.134  1.00  0.00     0.048 A 
ENDROOT
BRANCH   1  13
HETATM   13  C   UNL     1      28.395  41.091  52.885  1.00  0.00     0.132 C 
BRANCH  13  14
HETATM   14  N   UNL     1      28.948  41.097  51.542  1.00  0.00    -0.272 NA
HETATM   15  H   UNL     1      29.212  42.012  51.199  1.00  0.00     0.129 HD
BRANCH  14  16
HETATM   16  C   UNL     1      28.242  40.355  50.595  1.00  0.00     0.117 A 
HETATM   17  C   UNL     1      27.135  40.894  49.906  1.00  0.00     0.040 A 
HETATM   18  C   UNL     1      26.489  42.180  49.940  1.00  0.00     0.025 A 
HETATM   19  C   UNL     1      26.509  40.057  48.995  1.00  0.00     0.112 A 
HETATM   20  C   UNL     1      25.417  42.258  49.078  1.00  0.00     0.053 A 
HETATM   21  S   UNL     1      25.180  40.796  48.225  1.00  0.00    -0.081 SA
HETATM   22  N   UNL     1      26.858  38.794  48.701  1.00  0.00    -0.234 NA
HETATM   23  C   UNL     1      27.925  38.392  49.394  1.00  0.00     0.236 A 
HETATM   24  N   UNL     1      28.622  39.089  50.307  1.00  0.00    -0.229 NA
ENDBRANCH  14  16
ENDBRANCH  13  14
ENDBRANCH   1  13
TORSDOF 3
ENDMDL
MODEL 8
REMARK VINA RESULT:      -8.0      5.574      8.056
REMARK  3 active torsions:
REMARK  status: ('A' for Active; 'I' for Inactive)
REMARK    1  A    between atoms: C_7  and  N_8 
REMARK    2  A    between atoms: N_8  and  C_9 
REMARK    3  A    between atoms: C_9  and  C_10 
ROOT
HETATM    1  C   UNL     1      26.230  44.943  52.998  1.00  0.00    -0.041 A 
HETATM    2  C   UNL     1      26.225  46.171  53.676  1.00  0.00     0.035 A 
HETATM    3  C   UNL     1      27.087  46.387  54.756  1.00  0.00     0.070 A 
HETATM    4 CL   UNL     1      27.019  47.913  55.563  1.00  0.00    -0.081 Cl
HETATM    5  C   UNL     1      27.989  45.394  55.152  1.00  0.00     0.123 A 
HETATM    6  C   UNL     1      28.006  44.174  54.468  1.00  0.00     0.104 A 
HETATM    7  O   UNL     1      28.798  43.122  54.844  1.00  0.00    -0.348 OA
HETATM    8  C   UNL     1      30.189  43.423  54.713  1.00  0.00     0.178 C 
HETATM    9  C   UNL     1      30.722  44.194  55.912  1.00  0.00     0.053 C 
HETATM   10  C   UNL     1      30.156  45.605  55.956  1.00  0.00     0.178 C 
HETATM   11  O   UNL     1      28.763  45.602  56.265  1.00  0.00    -0.346 OA
HETATM   12  C   UNL     1      27.126  43.945  53.409  1.00  0.00     0.048 A 
ENDROOT
BRANCH   1  13
HETATM   13  C   UNL     1      25.309  44.706  51.824  1.00  0.00     0.132 C 
BRANCH  13  14
HETATM   14  N   UNL     1      24.661  43.418  51.996  1.00  0.00    -0.272 NA
HETATM   15  H   UNL     1      25.038  42.853  52.747  1.00  0.00     0.129 HD
BRANCH  14  16
HETATM   16  C   UNL     1      24.456  42.684  50.828  1.00  0.00     0.117 A 
HETATM   17  C   UNL     1      25.400  41.741  50.371  1.00  0.00     0.040 A 
HETATM   18  C   UNL     1      26.666  41.290  50.885  1.00  0.00     0.025 A 
HETATM   19  C   UNL     1      25.088  41.080  49.193  1.00  0.00     0.112 A 
HETATM   20  C   UNL     1      27.253  40.334  50.086  1.00  0.00     0.053 A 
HETATM   21  S   UNL     1      26.293  39.970  48.719  1.00  0.00    -0.081 SA
HETATM   22  N   UNL     1      23.979  41.244  48.454  1.00  0.00    -0.234 NA
HETATM   23  C   UNL     1      23.149  42.144  48.986  1.00  0.00     0.236 A 
HETATM   24  N   UNL     1      23.324  42.859  50.109  1.00  0.00    -0.229 NA
ENDBRANCH  14  16
ENDBRANCH  13  14
ENDBRANCH   1  13
TORSDOF 3
ENDMDL
MODEL 9
REMARK VINA RESULT:      -7.8      4.358      7.288
REMARK  3 active torsions:
REMARK  status: ('A' for Active; 'I' for Inactive)
REMARK    1  A    between atoms: C_7  and  N_8 
REMARK    2  A    between atoms: N_8  and  C_9 
REMARK    3  A    between atoms: C_9  and  C_10 
ROOT
HETATM    1  C   UNL     1      25.207  44.377  50.124  1.00  0.00    -0.041 A 
HETATM    2  C   UNL     1      25.735  43.270  49.445  1.00  0.00     0.035 A 
HETATM    3  C   UNL     1      26.816  42.561  49.980  1.00  0.00     0.070 A 
HETATM    4 CL   UNL     1      27.435  41.218  49.087  1.00  0.00    -0.081 Cl
HETATM    5  C   UNL     1      27.360  42.925  51.216  1.00  0.00     0.123 A 
HETATM    6  C   UNL     1      26.825  44.020  51.902  1.00  0.00     0.104 A 
HETATM    7  O   UNL     1      27.352  44.493  53.074  1.00  0.00    -0.348 OA
HETATM    8  C   UNL     1      27.241  43.542  54.136  1.00  0.00     0.178 C 
HETATM    9  C   UNL     1      28.361  42.513  54.100  1.00  0.00     0.053 C 
HETATM   10  C   UNL     1      28.217  41.583  52.904  1.00  0.00     0.178 C 
HETATM   11  O   UNL     1      28.470  42.264  51.676  1.00  0.00    -0.346 OA
HETATM   12  C   UNL     1      25.766  44.748  51.355  1.00  0.00     0.048 A 
ENDROOT
BRANCH   1  13
HETATM   13  C   UNL     1      24.033  45.142  49.557  1.00  0.00     0.132 C 
BRANCH  13  14
HETATM   14  N   UNL     1      23.923  46.408  50.259  1.00  0.00    -0.272 NA
HETATM   15  H   UNL     1      23.163  46.456  50.926  1.00  0.00     0.129 HD
BRANCH  14  16
HETATM   16  C   UNL     1      24.007  47.550  49.463  1.00  0.00     0.117 A 
HETATM   17  C   UNL     1      25.229  48.230  49.269  1.00  0.00     0.040 A 
HETATM   18  C   UNL     1      26.568  47.995  49.740  1.00  0.00     0.025 A 
HETATM   19  C   UNL     1      25.184  49.357  48.464  1.00  0.00     0.112 A 
HETATM   20  C   UNL     1      27.462  48.941  49.289  1.00  0.00     0.053 A 
HETATM   21  S   UNL     1      26.705  50.112  48.301  1.00  0.00    -0.081 SA
HETATM   22  N   UNL     1      24.101  49.857  47.849  1.00  0.00    -0.234 NA
HETATM   23  C   UNL     1      23.008  49.129  48.084  1.00  0.00     0.236 A 
HETATM   24  N   UNL     1      22.904  48.026  48.843  1.00  0.00    -0.229 NA
ENDBRANCH  14  16
ENDBRANCH  13  14
ENDBRANCH   1  13
TORSDOF 3
ENDMDL
MODEL 10
REMARK VINA RESULT:      -7.6      4.683      8.034
REMARK  3 active torsions:
REMARK  status: ('A' for Active; 'I' for Inactive)
REMARK    1  A    between atoms: C_7  and  N_8 
REMARK    2  A    between atoms: N_8  and  C_9 
REMARK    3  A    between atoms: C_9  and  C_10 
ROOT
HETATM    1  C   UNL     1      26.915  44.926  52.752  1.00  0.00    -0.041 A 
HETATM    2  C   UNL     1      26.777  46.106  53.497  1.00  0.00     0.035 A 
HETATM    3  C   UNL     1      27.471  46.270  54.700  1.00  0.00     0.070 A 
HETATM    4 CL   UNL     1      27.243  47.737  55.582  1.00  0.00    -0.081 Cl
HETATM    5  C   UNL     1      28.340  45.273  55.157  1.00  0.00     0.123 A 
HETATM    6  C   UNL     1      28.491  44.102  54.409  1.00  0.00     0.104 A 
HETATM    7  O   UNL     1      29.256  43.046  54.827  1.00  0.00    -0.348 OA
HETATM    8  C   UNL     1      30.641  43.386  54.913  1.00  0.00     0.178 C 
HETATM    9  C   UNL     1      30.976  44.088  56.221  1.00  0.00     0.053 C 
HETATM   10  C   UNL     1      30.365  45.480  56.272  1.00  0.00     0.178 C 
HETATM   11  O   UNL     1      28.943  45.426  56.379  1.00  0.00    -0.346 OA
HETATM   12  C   UNL     1      27.776  43.924  53.222  1.00  0.00     0.048 A 
ENDROOT
BRANCH   1  13
HETATM   13  C   UNL     1      26.176  44.746  51.446  1.00  0.00     0.132 C 
BRANCH  13  14
HETATM   14  N   UNL     1      24.818  45.231  51.613  1.00  0.00    -0.272 NA
HETATM   15  H   UNL     1      24.138  44.516  51.840  1.00  0.00     0.129 HD
BRANCH  14  16
HETATM   16  C   UNL     1      24.362  46.105  50.626  1.00  0.00     0.117 A 
HETATM   17  C   UNL     1      23.497  45.675  49.597  1.00  0.00     0.040 A 
HETATM   18  C   UNL     1      22.889  44.406  49.293  1.00  0.00     0.025 A 
HETATM   19  C   UNL     1      23.120  46.632  48.669  1.00  0.00     0.112 A 
HETATM   20  C   UNL     1      22.101  44.453  48.164  1.00  0.00     0.053 A 
HETATM   21  S   UNL     1      22.084  46.013  47.464  1.00  0.00    -0.081 SA
HETATM   22  N   UNL     1      23.491  47.923  48.657  1.00  0.00    -0.234 NA
HETATM   23  C   UNL     1      24.293  48.225  49.680  1.00  0.00     0.236 A 
HETATM   24  N   UNL     1      24.740  47.403  50.644  1.00  0.00    -0.229 NA
ENDBRANCH  14  16
ENDBRANCH  13  14
ENDBRANCH   1  13
TORSDOF 3
ENDMDL
