MODEL 1
REMARK VINA RESULT:      -9.6      0.000      0.000
REMARK  4 active torsions:
REMARK  status: ('A' for Active; 'I' for Inactive)
REMARK    1  A    between atoms: C_2  and  C_3 
REMARK    2  A    between atoms: C_4  and  C_5 
REMARK       I    between atoms: C_5  and  N_6 
REMARK    3  A    between atoms: N_6  and  C_7 
REMARK    4  A    between atoms: C_14  and  C_15 
REMARK       I    between atoms: C_15  and  N_16 
ROOT
HETATM    1  C   UNL     1      24.996  46.296  51.040  1.00  0.00     0.035 A 
HETATM    2  C   UNL     1      24.731  47.471  50.323  1.00  0.00     0.046 A 
HETATM    3  C   UNL     1      23.781  47.453  49.277  1.00  0.00     0.030 A 
HETATM    4  C   UNL     1      23.126  46.263  48.988  1.00  0.00     0.063 A 
HETATM    5  N   UNL     1      22.290  46.553  47.947  1.00  0.00    -0.277 N 
HETATM    6  H   UNL     1      21.657  45.918  47.473  1.00  0.00     0.189 HD
HETATM    7  N   UNL     1      22.341  47.829  47.529  1.00  0.00    -0.168 NA
HETATM    8  C   UNL     1      23.260  48.399  48.343  1.00  0.00     0.156 A 
HETATM    9  C   UNL     1      23.358  45.076  49.684  1.00  0.00     0.034 A 
HETATM   10  C   UNL     1      24.307  45.120  50.713  1.00  0.00     0.032 A 
ENDROOT
BRANCH   1  11
HETATM   11  N   UNL     1      25.945  46.206  52.083  1.00  0.00    -0.324 N 
HETATM   12  C   UNL     1      26.039  47.009  53.202  1.00  0.00     0.245 C 
HETATM   13  O   UNL     1      25.289  47.918  53.528  1.00  0.00    -0.268 OA
HETATM   14  H   UNL     1      26.641  45.483  51.974  1.00  0.00     0.169 HD
BRANCH  12  15
HETATM   15  C   UNL     1      27.228  46.663  54.034  1.00  0.00     0.075 C 
HETATM   16  C   UNL     1      27.686  45.401  54.044  1.00  0.00     0.017 C 
BRANCH  16  17
HETATM   17  C   UNL     1      28.833  44.941  54.838  1.00  0.00    -0.036 A 
HETATM   18  C   UNL     1      29.313  45.654  55.947  1.00  0.00     0.013 A 
HETATM   19  C   UNL     1      30.379  45.158  56.703  1.00  0.00     0.024 A 
HETATM   20  C   UNL     1      30.965  43.941  56.362  1.00  0.00     0.034 A 
HETATM   21  C   UNL     1      30.491  43.215  55.273  1.00  0.00     0.024 A 
HETATM   22 CL   UNL     1      32.273  43.330  57.298  1.00  0.00    -0.084 Cl
HETATM   23  C   UNL     1      29.424  43.711  54.518  1.00  0.00     0.013 A 
ENDBRANCH  16  17
ENDBRANCH  12  15
ENDBRANCH   1  11
BRANCH   8  24
HETATM   24  C   UNL     1      23.615  49.818  48.207  1.00  0.00     0.270 C 
HETATM   25  N   UNL     1      23.088  50.621  49.181  1.00  0.00    -0.365 N 
HETATM   26  H   UNL     1      22.510  50.199  49.898  1.00  0.00     0.159 HD
HETATM   27  H   UNL     1      23.277  51.611  49.167  1.00  0.00     0.159 HD
HETATM   28  O   UNL     1      24.319  50.282  47.316  1.00  0.00    -0.266 OA
ENDBRANCH   8  24
TORSDOF 4
ENDMDL
MODEL 2
REMARK VINA RESULT:      -9.1      1.786      2.611
REMARK  4 active torsions:
REMARK  status: ('A' for Active; 'I' for Inactive)
REMARK    1  A    between atoms: C_2  and  C_3 
REMARK    2  A    between atoms: C_4  and  C_5 
REMARK       I    between atoms: C_5  and  N_6 
REMARK    3  A    between atoms: N_6  and  C_7 
REMARK    4  A    between atoms: C_14  and  C_15 
REMARK       I    between atoms: C_15  and  N_16 
ROOT
HETATM    1  C   UNL     1      25.857  47.342  50.299  1.00  0.00     0.035 A 
HETATM    2  C   UNL     1      24.489  47.313  49.995  1.00  0.00     0.046 A 
HETATM    3  C   UNL     1      23.947  48.279  49.118  1.00  0.00     0.030 A 
HETATM    4  C   UNL     1      24.792  49.237  48.572  1.00  0.00     0.063 A 
HETATM    5  N   UNL     1      23.994  50.017  47.784  1.00  0.00    -0.277 N 
HETATM    6  H   UNL     1      24.274  50.819  47.230  1.00  0.00     0.189 HD
HETATM    7  N   UNL     1      22.701  49.655  47.767  1.00  0.00    -0.168 NA
HETATM    8  C   UNL     1      22.655  48.580  48.588  1.00  0.00     0.156 A 
HETATM    9  C   UNL     1      26.159  49.293  48.845  1.00  0.00     0.034 A 
HETATM   10  C   UNL     1      26.671  48.327  49.721  1.00  0.00     0.032 A 
ENDROOT
BRANCH   1  11
HETATM   11  N   UNL     1      26.487  46.438  51.184  1.00  0.00    -0.324 N 
HETATM   12  C   UNL     1      25.880  45.546  52.044  1.00  0.00     0.245 C 
HETATM   13  O   UNL     1      24.682  45.333  52.167  1.00  0.00    -0.268 OA
HETATM   14  H   UNL     1      27.497  46.476  51.195  1.00  0.00     0.169 HD
BRANCH  12  15
HETATM   15  C   UNL     1      26.876  44.822  52.886  1.00  0.00     0.075 C 
HETATM   16  C   UNL     1      27.693  45.517  53.692  1.00  0.00     0.017 C 
BRANCH  16  17
HETATM   17  C   UNL     1      28.723  44.914  54.549  1.00  0.00    -0.036 A 
HETATM   18  C   UNL     1      29.275  43.652  54.284  1.00  0.00     0.013 A 
HETATM   19  C   UNL     1      30.286  43.133  55.099  1.00  0.00     0.024 A 
HETATM   20  C   UNL     1      30.760  43.878  56.176  1.00  0.00     0.034 A 
HETATM   21  C   UNL     1      30.233  45.138  56.444  1.00  0.00     0.024 A 
HETATM   22 CL   UNL     1      32.008  43.241  57.173  1.00  0.00    -0.084 Cl
HETATM   23  C   UNL     1      29.222  45.657  55.628  1.00  0.00     0.013 A 
ENDBRANCH  16  17
ENDBRANCH  12  15
ENDBRANCH   1  11
BRANCH   8  24
HETATM   24  C   UNL     1      21.392  47.877  48.847  1.00  0.00     0.270 C 
HETATM   25  N   UNL     1      20.535  48.553  49.672  1.00  0.00    -0.365 N 
HETATM   26  H   UNL     1      20.821  49.454  50.035  1.00  0.00     0.159 HD
HETATM   27  H   UNL     1      19.644  48.145  49.908  1.00  0.00     0.159 HD
HETATM   28  O   UNL     1      21.093  46.781  48.384  1.00  0.00    -0.266 OA
ENDBRANCH   8  24
TORSDOF 4
ENDMDL
MODEL 3
REMARK VINA RESULT:      -8.8      4.773      9.456
REMARK  4 active torsions:
REMARK  status: ('A' for Active; 'I' for Inactive)
REMARK    1  A    between atoms: C_2  and  C_3 
REMARK    2  A    between atoms: C_4  and  C_5 
REMARK       I    between atoms: C_5  and  N_6 
REMARK    3  A    between atoms: N_6  and  C_7 
REMARK    4  A    between atoms: C_14  and  C_15 
REMARK       I    between atoms: C_15  and  N_16 
ROOT
HETATM    1  C   UNL     1      28.528  44.572  53.631  1.00  0.00     0.035 A 
HETATM    2  C   UNL     1      28.809  45.125  54.888  1.00  0.00     0.046 A 
HETATM    3  C   UNL     1      29.815  44.549  55.695  1.00  0.00     0.030 A 
HETATM    4  C   UNL     1      30.508  43.444  55.216  1.00  0.00     0.063 A 
HETATM    5  N   UNL     1      31.395  43.117  56.203  1.00  0.00    -0.277 N 
HETATM    6  H   UNL     1      32.065  42.356  56.198  1.00  0.00     0.189 HD
HETATM    7  N   UNL     1      31.343  43.910  57.286  1.00  0.00    -0.168 NA
HETATM    8  C   UNL     1      30.370  44.801  56.987  1.00  0.00     0.156 A 
HETATM    9  C   UNL     1      30.261  42.871  53.968  1.00  0.00     0.034 A 
HETATM   10  C   UNL     1      29.256  43.458  53.189  1.00  0.00     0.032 A 
ENDROOT
BRANCH   1  11
HETATM   11  N   UNL     1      27.525  45.058  52.762  1.00  0.00    -0.324 N 
HETATM   12  C   UNL     1      26.583  44.321  52.072  1.00  0.00     0.245 C 
HETATM   13  O   UNL     1      26.407  43.112  52.121  1.00  0.00    -0.268 OA
HETATM   14  H   UNL     1      27.522  46.059  52.622  1.00  0.00     0.169 HD
BRANCH  12  15
HETATM   15  C   UNL     1      25.748  45.181  51.184  1.00  0.00     0.075 C 
HETATM   16  C   UNL     1      26.141  46.436  50.916  1.00  0.00     0.017 C 
BRANCH  16  17
HETATM   17  C   UNL     1      25.392  47.378  50.074  1.00  0.00    -0.036 A 
HETATM   18  C   UNL     1      24.004  47.283  49.892  1.00  0.00     0.013 A 
HETATM   19  C   UNL     1      23.322  48.227  49.118  1.00  0.00     0.024 A 
HETATM   20  C   UNL     1      24.022  49.278  48.530  1.00  0.00     0.034 A 
HETATM   21  C   UNL     1      25.397  49.395  48.713  1.00  0.00     0.024 A 
HETATM   22 CL   UNL     1      23.180  50.441  47.584  1.00  0.00    -0.084 Cl
HETATM   23  C   UNL     1      26.078  48.451  49.487  1.00  0.00     0.013 A 
ENDBRANCH  16  17
ENDBRANCH  12  15
ENDBRANCH   1  11
BRANCH   8  24
HETATM   24  C   UNL     1      29.995  45.860  57.934  1.00  0.00     0.270 C 
HETATM   25  N   UNL     1      31.056  46.427  58.587  1.00  0.00    -0.365 N 
HETATM   26  H   UNL     1      31.989  46.089  58.382  1.00  0.00     0.159 HD
HETATM   27  H   UNL     1      30.894  47.160  59.258  1.00  0.00     0.159 HD
HETATM   28  O   UNL     1      28.847  46.233  58.150  1.00  0.00    -0.266 OA
ENDBRANCH   8  24
TORSDOF 4
ENDMDL
MODEL 4
REMARK VINA RESULT:      -8.8      1.420      1.510
REMARK  4 active torsions:
REMARK  status: ('A' for Active; 'I' for Inactive)
REMARK    1  A    between atoms: C_2  and  C_3 
REMARK    2  A    between atoms: C_4  and  C_5 
REMARK       I    between atoms: C_5  and  N_6 
REMARK    3  A    between atoms: N_6  and  C_7 
REMARK    4  A    between atoms: C_14  and  C_15 
REMARK       I    between atoms: C_15  and  N_16 
ROOT
HETATM    1  C   UNL     1      24.650  45.980  50.004  1.00  0.00     0.035 A 
HETATM    2  C   UNL     1      24.176  47.299  50.026  1.00  0.00     0.046 A 
HETATM    3  C   UNL     1      23.135  47.682  49.151  1.00  0.00     0.030 A 
HETATM    4  C   UNL     1      22.601  46.733  48.289  1.00  0.00     0.063 A 
HETATM    5  N   UNL     1      21.635  47.390  47.580  1.00  0.00    -0.277 N 
HETATM    6  H   UNL     1      21.038  47.007  46.856  1.00  0.00     0.189 HD
HETATM    7  N   UNL     1      21.491  48.686  47.902  1.00  0.00    -0.168 NA
HETATM    8  C   UNL     1      22.412  48.883  48.874  1.00  0.00     0.156 A 
HETATM    9  C   UNL     1      23.042  45.410  48.244  1.00  0.00     0.034 A 
HETATM   10  C   UNL     1      24.078  45.057  49.118  1.00  0.00     0.032 A 
ENDROOT
BRANCH   1  11
HETATM   11  N   UNL     1      25.703  45.508  50.819  1.00  0.00    -0.324 N 
HETATM   12  C   UNL     1      25.597  44.836  52.020  1.00  0.00     0.245 C 
HETATM   13  O   UNL     1      24.572  44.478  52.582  1.00  0.00    -0.268 OA
HETATM   14  H   UNL     1      26.635  45.711  50.485  1.00  0.00     0.169 HD
BRANCH  12  15
HETATM   15  C   UNL     1      26.933  44.578  52.631  1.00  0.00     0.075 C 
HETATM   16  C   UNL     1      27.096  44.721  53.956  1.00  0.00     0.017 C 
BRANCH  16  17
HETATM   17  C   UNL     1      28.366  44.514  54.663  1.00  0.00    -0.036 A 
HETATM   18  C   UNL     1      28.867  45.437  55.593  1.00  0.00     0.013 A 
HETATM   19  C   UNL     1      30.059  45.181  56.278  1.00  0.00     0.024 A 
HETATM   20  C   UNL     1      30.751  43.994  56.046  1.00  0.00     0.034 A 
HETATM   21  C   UNL     1      30.260  43.061  55.138  1.00  0.00     0.024 A 
HETATM   22 CL   UNL     1      32.213  43.678  56.895  1.00  0.00    -0.084 Cl
HETATM   23  C   UNL     1      29.067  43.318  54.453  1.00  0.00     0.013 A 
ENDBRANCH  16  17
ENDBRANCH  12  15
ENDBRANCH   1  11
BRANCH   8  24
HETATM   24  C   UNL     1      22.580  50.199  49.504  1.00  0.00     0.270 C 
HETATM   25  N   UNL     1      21.530  50.577  50.296  1.00  0.00    -0.365 N 
HETATM   26  H   UNL     1      20.740  49.950  50.386  1.00  0.00     0.159 HD
HETATM   27  H   UNL     1      21.556  51.468  50.767  1.00  0.00     0.159 HD
HETATM   28  O   UNL     1      23.558  50.925  49.361  1.00  0.00    -0.266 OA
ENDBRANCH   8  24
TORSDOF 4
ENDMDL
MODEL 5
REMARK VINA RESULT:      -8.4      1.961      2.852
REMARK  4 active torsions:
REMARK  status: ('A' for Active; 'I' for Inactive)
REMARK    1  A    between atoms: C_2  and  C_3 
REMARK    2  A    between atoms: C_4  and  C_5 
REMARK       I    between atoms: C_5  and  N_6 
REMARK    3  A    between atoms: N_6  and  C_7 
REMARK    4  A    between atoms: C_14  and  C_15 
REMARK       I    between atoms: C_15  and  N_16 
ROOT
HETATM    1  C   UNL     1      25.116  46.135  50.509  1.00  0.00     0.035 A 
HETATM    2  C   UNL     1      24.107  45.510  49.763  1.00  0.00     0.046 A 
HETATM    3  C   UNL     1      23.300  46.281  48.896  1.00  0.00     0.030 A 
HETATM    4  C   UNL     1      23.533  47.647  48.802  1.00  0.00     0.063 A 
HETATM    5  N   UNL     1      22.611  48.112  47.907  1.00  0.00    -0.277 N 
HETATM    6  H   UNL     1      22.486  49.068  47.595  1.00  0.00     0.189 HD
HETATM    7  N   UNL     1      21.794  47.169  47.408  1.00  0.00    -0.168 NA
HETATM    8  C   UNL     1      22.208  46.030  48.010  1.00  0.00     0.156 A 
HETATM    9  C   UNL     1      24.532  48.302  49.523  1.00  0.00     0.034 A 
HETATM   10  C   UNL     1      25.315  47.516  50.378  1.00  0.00     0.032 A 
ENDROOT
BRANCH   1  11
HETATM   11  N   UNL     1      25.956  45.457  51.421  1.00  0.00    -0.324 N 
HETATM   12  C   UNL     1      25.574  44.728  52.530  1.00  0.00     0.245 C 
HETATM   13  O   UNL     1      24.435  44.489  52.904  1.00  0.00    -0.268 OA
HETATM   14  H   UNL     1      26.946  45.542  51.243  1.00  0.00     0.169 HD
BRANCH  12  15
HETATM   15  C   UNL     1      26.752  44.234  53.300  1.00  0.00     0.075 C 
HETATM   16  C   UNL     1      27.528  45.108  53.959  1.00  0.00     0.017 C 
BRANCH  16  17
HETATM   17  C   UNL     1      28.722  44.740  54.732  1.00  0.00    -0.036 A 
HETATM   18  C   UNL     1      29.229  45.548  55.760  1.00  0.00     0.013 A 
HETATM   19  C   UNL     1      30.342  45.139  56.502  1.00  0.00     0.024 A 
HETATM   20  C   UNL     1      30.947  43.915  56.228  1.00  0.00     0.034 A 
HETATM   21  C   UNL     1      30.447  43.095  55.220  1.00  0.00     0.024 A 
HETATM   22 CL   UNL     1      32.311  43.411  57.146  1.00  0.00    -0.084 Cl
HETATM   23  C   UNL     1      29.333  43.504  54.479  1.00  0.00     0.013 A 
ENDBRANCH  16  17
ENDBRANCH  12  15
ENDBRANCH   1  11
BRANCH   8  24
HETATM   24  C   UNL     1      21.555  44.744  47.731  1.00  0.00     0.270 C 
HETATM   25  N   UNL     1      22.343  43.853  47.055  1.00  0.00    -0.365 N 
HETATM   26  H   UNL     1      23.284  44.132  46.802  1.00  0.00     0.159 HD
HETATM   27  H   UNL     1      21.977  42.945  46.817  1.00  0.00     0.159 HD
HETATM   28  O   UNL     1      20.409  44.455  48.057  1.00  0.00    -0.266 OA
ENDBRANCH   8  24
TORSDOF 4
ENDMDL
MODEL 6
REMARK VINA RESULT:      -8.3      2.567      3.700
REMARK  4 active torsions:
REMARK  status: ('A' for Active; 'I' for Inactive)
REMARK    1  A    between atoms: C_2  and  C_3 
REMARK    2  A    between atoms: C_4  and  C_5 
REMARK       I    between atoms: C_5  and  N_6 
REMARK    3  A    between atoms: N_6  and  C_7 
REMARK    4  A    between atoms: C_14  and  C_15 
REMARK       I    between atoms: C_15  and  N_16 
ROOT
HETATM    1  C   UNL     1      24.370  48.094  49.293  1.00  0.00     0.035 A 
HETATM    2  C   UNL     1      23.003  47.787  49.340  1.00  0.00     0.046 A 
HETATM    3  C   UNL     1      22.067  48.680  48.773  1.00  0.00     0.030 A 
HETATM    4  C   UNL     1      22.529  49.846  48.176  1.00  0.00     0.063 A 
HETATM    5  N   UNL     1      21.411  50.494  47.733  1.00  0.00    -0.277 N 
HETATM    6  H   UNL     1      21.369  51.383  47.247  1.00  0.00     0.189 HD
HETATM    7  N   UNL     1      20.257  49.856  47.989  1.00  0.00    -0.168 NA
HETATM    8  C   UNL     1      20.646  48.731  48.633  1.00  0.00     0.156 A 
HETATM    9  C   UNL     1      23.881  50.181  48.103  1.00  0.00     0.034 A 
HETATM   10  C   UNL     1      24.789  49.281  48.676  1.00  0.00     0.032 A 
ENDROOT
BRANCH   1  11
HETATM   11  N   UNL     1      25.380  47.280  49.854  1.00  0.00    -0.324 N 
HETATM   12  C   UNL     1      25.540  45.917  49.701  1.00  0.00     0.245 C 
HETATM   13  O   UNL     1      24.867  45.164  49.011  1.00  0.00    -0.268 OA
HETATM   14  H   UNL     1      26.040  47.758  50.450  1.00  0.00     0.169 HD
BRANCH  12  15
HETATM   15  C   UNL     1      26.673  45.397  50.520  1.00  0.00     0.075 C 
HETATM   16  C   UNL     1      26.464  45.057  51.801  1.00  0.00     0.017 C 
BRANCH  16  17
HETATM   17  C   UNL     1      27.505  44.554  52.707  1.00  0.00    -0.036 A 
HETATM   18  C   UNL     1      28.482  43.637  52.292  1.00  0.00     0.013 A 
HETATM   19  C   UNL     1      29.484  43.217  53.173  1.00  0.00     0.024 A 
HETATM   20  C   UNL     1      29.521  43.720  54.471  1.00  0.00     0.034 A 
HETATM   21  C   UNL     1      28.567  44.641  54.895  1.00  0.00     0.024 A 
HETATM   22 CL   UNL     1      30.757  43.207  55.551  1.00  0.00    -0.084 Cl
HETATM   23  C   UNL     1      27.566  45.061  54.012  1.00  0.00     0.013 A 
ENDBRANCH  16  17
ENDBRANCH  12  15
ENDBRANCH   1  11
BRANCH   8  24
HETATM   24  C   UNL     1      19.661  47.743  49.096  1.00  0.00     0.270 C 
HETATM   25  N   UNL     1      19.305  47.884  50.409  1.00  0.00    -0.365 N 
HETATM   26  H   UNL     1      19.730  48.628  50.950  1.00  0.00     0.159 HD
HETATM   27  H   UNL     1      18.637  47.249  50.815  1.00  0.00     0.159 HD
HETATM   28  O   UNL     1      19.178  46.857  48.400  1.00  0.00    -0.266 OA
ENDBRANCH   8  24
TORSDOF 4
ENDMDL
MODEL 7
REMARK VINA RESULT:      -8.2      4.688      9.700
REMARK  4 active torsions:
REMARK  status: ('A' for Active; 'I' for Inactive)
REMARK    1  A    between atoms: C_2  and  C_3 
REMARK    2  A    between atoms: C_4  and  C_5 
REMARK       I    between atoms: C_5  and  N_6 
REMARK    3  A    between atoms: N_6  and  C_7 
REMARK    4  A    between atoms: C_14  and  C_15 
REMARK       I    between atoms: C_15  and  N_16 
ROOT
HETATM    1  C   UNL     1      26.232  46.382  52.880  1.00  0.00     0.035 A 
HETATM    2  C   UNL     1      26.915  45.158  52.879  1.00  0.00     0.046 A 
HETATM    3  C   UNL     1      27.901  44.907  53.860  1.00  0.00     0.030 A 
HETATM    4  C   UNL     1      28.166  45.886  54.809  1.00  0.00     0.063 A 
HETATM    5  N   UNL     1      29.149  45.365  55.603  1.00  0.00    -0.277 N 
HETATM    6  H   UNL     1      29.591  45.806  56.401  1.00  0.00     0.189 HD
HETATM    7  N   UNL     1      29.551  44.131  55.255  1.00  0.00    -0.168 NA
HETATM    8  C   UNL     1      28.788  43.833  54.178  1.00  0.00     0.156 A 
HETATM    9  C   UNL     1      27.501  47.112  54.846  1.00  0.00     0.034 A 
HETATM   10  C   UNL     1      26.532  47.338  53.861  1.00  0.00     0.032 A 
ENDROOT
BRANCH   1  11
HETATM   11  N   UNL     1      25.251  46.738  51.928  1.00  0.00    -0.324 N 
HETATM   12  C   UNL     1      25.454  47.125  50.618  1.00  0.00     0.245 C 
HETATM   13  O   UNL     1      26.519  47.186  50.020  1.00  0.00    -0.268 OA
HETATM   14  H   UNL     1      24.298  46.725  52.263  1.00  0.00     0.169 HD
BRANCH  12  15
HETATM   15  C   UNL     1      24.177  47.509  49.949  1.00  0.00     0.075 C 
HETATM   16  C   UNL     1      23.986  48.781  49.565  1.00  0.00     0.017 C 
BRANCH  16  17
HETATM   17  C   UNL     1      22.765  49.277  48.917  1.00  0.00    -0.036 A 
HETATM   18  C   UNL     1      21.861  48.425  48.265  1.00  0.00     0.013 A 
HETATM   19  C   UNL     1      20.687  48.932  47.700  1.00  0.00     0.024 A 
HETATM   20  C   UNL     1      20.404  50.292  47.793  1.00  0.00     0.034 A 
HETATM   21  C   UNL     1      21.282  51.149  48.449  1.00  0.00     0.024 A 
HETATM   22 CL   UNL     1      18.956  50.913  47.102  1.00  0.00    -0.084 Cl
HETATM   23  C   UNL     1      22.456  50.641  49.015  1.00  0.00     0.013 A 
ENDBRANCH  16  17
ENDBRANCH  12  15
ENDBRANCH   1  11
BRANCH   8  24
HETATM   24  C   UNL     1      28.925  42.546  53.483  1.00  0.00     0.270 C 
HETATM   25  N   UNL     1      30.166  42.330  52.949  1.00  0.00    -0.365 N 
HETATM   26  H   UNL     1      30.875  43.045  53.062  1.00  0.00     0.159 HD
HETATM   27  H   UNL     1      30.352  41.474  52.451  1.00  0.00     0.159 HD
HETATM   28  O   UNL     1      28.033  41.712  53.371  1.00  0.00    -0.266 OA
ENDBRANCH   8  24
TORSDOF 4
ENDMDL
MODEL 8
REMARK VINA RESULT:      -8.2      6.449      7.779
REMARK  4 active torsions:
REMARK  status: ('A' for Active; 'I' for Inactive)
REMARK    1  A    between atoms: C_2  and  C_3 
REMARK    2  A    between atoms: C_4  and  C_5 
REMARK       I    between atoms: C_5  and  N_6 
REMARK    3  A    between atoms: N_6  and  C_7 
REMARK    4  A    between atoms: C_14  and  C_15 
REMARK       I    between atoms: C_15  and  N_16 
ROOT
HETATM    1  C   UNL     1      28.735  39.435  50.653  1.00  0.00     0.035 A 
HETATM    2  C   UNL     1      27.653  39.431  49.762  1.00  0.00     0.046 A 
HETATM    3  C   UNL     1      27.689  38.594  48.624  1.00  0.00     0.030 A 
HETATM    4  C   UNL     1      28.802  37.788  48.420  1.00  0.00     0.063 A 
HETATM    5  N   UNL     1      28.551  37.111  47.260  1.00  0.00    -0.277 N 
HETATM    6  H   UNL     1      29.151  36.432  46.803  1.00  0.00     0.189 HD
HETATM    7  N   UNL     1      27.373  37.404  46.686  1.00  0.00    -0.168 NA
HETATM    8  C   UNL     1      26.827  38.321  47.518  1.00  0.00     0.156 A 
HETATM    9  C   UNL     1      29.893  37.760  49.289  1.00  0.00     0.034 A 
HETATM   10  C   UNL     1      29.834  38.602  50.407  1.00  0.00     0.032 A 
ENDROOT
BRANCH   1  11
HETATM   11  N   UNL     1      28.805  40.254  51.803  1.00  0.00    -0.324 N 
HETATM   12  C   UNL     1      28.335  41.545  51.943  1.00  0.00     0.245 C 
HETATM   13  O   UNL     1      27.723  42.205  51.115  1.00  0.00    -0.268 OA
HETATM   14  H   UNL     1      29.275  39.845  52.598  1.00  0.00     0.169 HD
BRANCH  12  15
HETATM   15  C   UNL     1      28.673  42.116  53.279  1.00  0.00     0.075 C 
HETATM   16  C   UNL     1      29.204  43.346  53.359  1.00  0.00     0.017 C 
BRANCH  16  17
HETATM   17  C   UNL     1      29.594  44.001  54.614  1.00  0.00    -0.036 A 
HETATM   18  C   UNL     1      28.912  45.116  55.123  1.00  0.00     0.013 A 
HETATM   19  C   UNL     1      29.288  45.683  56.345  1.00  0.00     0.024 A 
HETATM   20  C   UNL     1      30.340  45.130  57.071  1.00  0.00     0.034 A 
HETATM   21  C   UNL     1      31.017  44.015  56.588  1.00  0.00     0.024 A 
HETATM   22 CL   UNL     1      30.796  45.825  58.578  1.00  0.00    -0.084 Cl
HETATM   23  C   UNL     1      30.641  43.448  55.366  1.00  0.00     0.013 A 
ENDBRANCH  16  17
ENDBRANCH  12  15
ENDBRANCH   1  11
BRANCH   8  24
HETATM   24  C   UNL     1      25.510  38.909  47.239  1.00  0.00     0.270 C 
HETATM   25  N   UNL     1      24.528  37.989  46.990  1.00  0.00    -0.365 N 
HETATM   26  H   UNL     1      24.768  37.005  47.013  1.00  0.00     0.159 HD
HETATM   27  H   UNL     1      23.592  38.302  46.785  1.00  0.00     0.159 HD
HETATM   28  O   UNL     1      25.270  40.112  47.221  1.00  0.00    -0.266 OA
ENDBRANCH   8  24
TORSDOF 4
ENDMDL
MODEL 9
REMARK VINA RESULT:      -8.1      5.949      9.994
REMARK  4 active torsions:
REMARK  status: ('A' for Active; 'I' for Inactive)
REMARK    1  A    between atoms: C_2  and  C_3 
REMARK    2  A    between atoms: C_4  and  C_5 
REMARK       I    between atoms: C_5  and  N_6 
REMARK    3  A    between atoms: N_6  and  C_7 
REMARK    4  A    between atoms: C_14  and  C_15 
REMARK       I    between atoms: C_15  and  N_16 
ROOT
HETATM    1  C   UNL     1      24.437  47.981  49.349  1.00  0.00     0.035 A 
HETATM    2  C   UNL     1      24.205  46.610  49.525  1.00  0.00     0.046 A 
HETATM    3  C   UNL     1      25.296  45.739  49.744  1.00  0.00     0.030 A 
HETATM    4  C   UNL     1      26.579  46.269  49.783  1.00  0.00     0.063 A 
HETATM    5  N   UNL     1      27.406  45.203  50.001  1.00  0.00    -0.277 N 
HETATM    6  H   UNL     1      28.416  45.217  50.085  1.00  0.00     0.189 HD
HETATM    7  N   UNL     1      26.776  44.021  50.106  1.00  0.00    -0.168 NA
HETATM    8  C   UNL     1      25.469  44.336  49.949  1.00  0.00     0.156 A 
HETATM    9  C   UNL     1      26.848  47.629  49.619  1.00  0.00     0.034 A 
HETATM   10  C   UNL     1      25.749  48.470  49.401  1.00  0.00     0.032 A 
ENDROOT
BRANCH   1  11
HETATM   11  N   UNL     1      23.417  48.927  49.099  1.00  0.00    -0.324 N 
HETATM   12  C   UNL     1      23.411  49.920  48.141  1.00  0.00     0.245 C 
HETATM   13  O   UNL     1      24.265  50.138  47.294  1.00  0.00    -0.268 OA
HETATM   14  H   UNL     1      22.617  48.873  49.714  1.00  0.00     0.169 HD
BRANCH  12  15
HETATM   15  C   UNL     1      22.197  50.781  48.242  1.00  0.00     0.075 C 
HETATM   16  C   UNL     1      21.129  50.343  48.927  1.00  0.00     0.017 C 
BRANCH  16  17
HETATM   17  C   UNL     1      19.875  51.093  49.077  1.00  0.00    -0.036 A 
HETATM   18  C   UNL     1      19.600  52.251  48.336  1.00  0.00     0.013 A 
HETATM   19  C   UNL     1      18.374  52.911  48.475  1.00  0.00     0.024 A 
HETATM   20  C   UNL     1      17.412  52.408  49.348  1.00  0.00     0.034 A 
HETATM   21  C   UNL     1      17.663  51.251  50.080  1.00  0.00     0.024 A 
HETATM   22 CL   UNL     1      15.903  53.217  49.513  1.00  0.00    -0.084 Cl
HETATM   23  C   UNL     1      18.889  50.592  49.939  1.00  0.00     0.013 A 
ENDBRANCH  16  17
ENDBRANCH  12  15
ENDBRANCH   1  11
BRANCH   8  24
HETATM   24  C   UNL     1      24.429  43.299  49.996  1.00  0.00     0.270 C 
HETATM   25  N   UNL     1      24.143  42.740  48.780  1.00  0.00    -0.365 N 
HETATM   26  H   UNL     1      24.646  43.069  47.964  1.00  0.00     0.159 HD
HETATM   27  H   UNL     1      23.439  42.022  48.715  1.00  0.00     0.159 HD
HETATM   28  O   UNL     1      23.845  42.939  51.012  1.00  0.00    -0.266 OA
ENDBRANCH   8  24
TORSDOF 4
ENDMDL
MODEL 10
REMARK VINA RESULT:      -7.8      4.241      6.349
REMARK  4 active torsions:
REMARK  status: ('A' for Active; 'I' for Inactive)
REMARK    1  A    between atoms: C_2  and  C_3 
REMARK    2  A    between atoms: C_4  and  C_5 
REMARK       I    between atoms: C_5  and  N_6 
REMARK    3  A    between atoms: N_6  and  C_7 
REMARK    4  A    between atoms: C_14  and  C_15 
REMARK       I    between atoms: C_15  and  N_16 
ROOT
HETATM    1  C   UNL     1      20.934  49.687  49.241  1.00  0.00     0.035 A 
HETATM    2  C   UNL     1      19.809  48.922  48.900  1.00  0.00     0.046 A 
HETATM    3  C   UNL     1      18.573  49.565  48.663  1.00  0.00     0.030 A 
HETATM    4  C   UNL     1      18.506  50.948  48.770  1.00  0.00     0.063 A 
HETATM    5  N   UNL     1      17.207  51.271  48.494  1.00  0.00    -0.277 N 
HETATM    6  H   UNL     1      16.794  52.196  48.481  1.00  0.00     0.189 HD
HETATM    7  N   UNL     1      16.418  50.219  48.216  1.00  0.00    -0.168 NA
HETATM    8  C   UNL     1      17.249  49.156  48.316  1.00  0.00     0.156 A 
HETATM    9  C   UNL     1      19.605  51.742  49.100  1.00  0.00     0.034 A 
HETATM   10  C   UNL     1      20.817  51.080  49.334  1.00  0.00     0.032 A 
ENDROOT
BRANCH   1  11
HETATM   11  N   UNL     1      22.204  49.136  49.523  1.00  0.00    -0.324 N 
HETATM   12  C   UNL     1      23.291  49.060  48.676  1.00  0.00     0.245 C 
HETATM   13  O   UNL     1      23.377  49.499  47.538  1.00  0.00    -0.268 OA
HETATM   14  H   UNL     1      22.308  48.736  50.445  1.00  0.00     0.169 HD
BRANCH  12  15
HETATM   15  C   UNL     1      24.431  48.329  49.301  1.00  0.00     0.075 C 
HETATM   16  C   UNL     1      24.232  47.105  49.816  1.00  0.00     0.017 C 
BRANCH  16  17
HETATM   17  C   UNL     1      25.272  46.302  50.473  1.00  0.00    -0.036 A 
HETATM   18  C   UNL     1      25.368  46.192  51.867  1.00  0.00     0.013 A 
HETATM   19  C   UNL     1      26.346  45.381  52.452  1.00  0.00     0.024 A 
HETATM   20  C   UNL     1      27.226  44.665  51.644  1.00  0.00     0.034 A 
HETATM   21  C   UNL     1      27.136  44.752  50.258  1.00  0.00     0.024 A 
HETATM   22 CL   UNL     1      28.424  43.663  52.365  1.00  0.00    -0.084 Cl
HETATM   23  C   UNL     1      26.157  45.563  49.674  1.00  0.00     0.013 A 
ENDBRANCH  16  17
ENDBRANCH  12  15
ENDBRANCH   1  11
BRANCH   8  24
HETATM   24  C   UNL     1      16.763  47.789  48.084  1.00  0.00     0.270 C 
HETATM   25  N   UNL     1      16.636  47.041  49.223  1.00  0.00    -0.365 N 
HETATM   26  H   UNL     1      16.879  47.464  50.111  1.00  0.00     0.159 HD
HETATM   27  H   UNL     1      16.312  46.089  49.161  1.00  0.00     0.159 HD
HETATM   28  O   UNL     1      16.484  47.322  46.986  1.00  0.00    -0.266 OA
ENDBRANCH   8  24
TORSDOF 4
ENDMDL
