MODEL 1
REMARK VINA RESULT:      -8.6      0.000      0.000
REMARK  6 active torsions:
REMARK  status: ('A' for Active; 'I' for Inactive)
REMARK    1  A    between atoms: C_6  and  O_7 
REMARK    2  A    between atoms: C_8  and  C_9 
REMARK    3  A    between atoms: C_9  and  N_10 
REMARK    4  A    between atoms: N_10  and  C_12 
REMARK    5  A    between atoms: C_12  and  C_13 
REMARK    6  A    between atoms: C_12  and  C_16 
REMARK       I    between atoms: C_13  and  N_14 
ROOT
HETATM    1  N   UNL     1      26.130  46.027  51.933  1.00  0.00    -0.054 N 
HETATM    2  H   UNL     1      27.150  46.170  51.872  1.00  0.00     0.281 HD
HETATM    3  C   UNL     1      25.559  47.164  52.729  1.00  0.00     0.271 C 
ENDROOT
BRANCH   1   4
HETATM    4  C   UNL     1      26.019  44.709  52.672  1.00  0.00     0.277 C 
BRANCH   4   5
HETATM    5  C   UNL     1      27.280  44.364  53.424  1.00  0.00     0.001 A 
HETATM    6  C   UNL     1      28.063  43.269  53.052  1.00  0.00     0.074 A 
HETATM    7  C   UNL     1      29.240  42.960  53.728  1.00  0.00     0.044 A 
HETATM    8  C   UNL     1      29.670  43.759  54.799  1.00  0.00    -0.053 A 
HETATM    9  C   UNL     1      28.885  44.858  55.201  1.00  0.00    -0.055 A 
HETATM   10  C   UNL     1      30.956  43.417  55.504  1.00  0.00     0.049 C 
HETATM   11  C   UNL     1      29.314  45.759  56.330  1.00  0.00     0.049 C 
HETATM   12  C   UNL     1      27.698  45.150  54.508  1.00  0.00     0.019 A 
BRANCH   6  13
HETATM   13  O   UNL     1      27.670  42.533  51.967  1.00  0.00    -0.360 OA
HETATM   14  H   UNL     1      28.398  42.559  51.313  1.00  0.00     0.217 HD
ENDBRANCH   6  13
ENDBRANCH   4   5
ENDBRANCH   1   4
BRANCH   1  15
HETATM   15  C   UNL     1      25.609  46.007  50.491  1.00  0.00     0.312 C 
BRANCH  15  16
HETATM   16  C   UNL     1      26.148  44.829  49.632  1.00  0.00     0.251 C 
HETATM   17  N   UNL     1      25.241  44.158  48.859  1.00  0.00    -0.368 N 
HETATM   18  H   UNL     1      24.316  44.511  48.634  1.00  0.00     0.159 HD
HETATM   19  H   UNL     1      25.595  43.413  48.266  1.00  0.00     0.159 HD
HETATM   20  O   UNL     1      27.320  44.460  49.659  1.00  0.00    -0.271 OA
ENDBRANCH  15  16
BRANCH  15  21
HETATM   21  C   UNL     1      25.723  47.366  49.815  1.00  0.00    -0.016 A 
HETATM   22  C   UNL     1      26.995  47.942  49.645  1.00  0.00     0.052 A 
HETATM   23  C   UNL     1      27.129  49.183  49.030  1.00  0.00     0.117 A 
HETATM   24  F   UNL     1      28.351  49.711  48.885  1.00  0.00    -0.206 F 
HETATM   25  C   UNL     1      26.021  49.876  48.568  1.00  0.00     0.042 A 
HETATM   26  C   UNL     1      24.754  49.316  48.717  1.00  0.00     0.004 A 
HETATM   27  C   UNL     1      24.604  48.067  49.330  1.00  0.00     0.010 A 
ENDBRANCH  15  21
ENDBRANCH   1  15
TORSDOF 6
ENDMDL
MODEL 2
REMARK VINA RESULT:      -8.2      1.469      2.250
REMARK  6 active torsions:
REMARK  status: ('A' for Active; 'I' for Inactive)
REMARK    1  A    between atoms: C_6  and  O_7 
REMARK    2  A    between atoms: C_8  and  C_9 
REMARK    3  A    between atoms: C_9  and  N_10 
REMARK    4  A    between atoms: N_10  and  C_12 
REMARK    5  A    between atoms: C_12  and  C_13 
REMARK    6  A    between atoms: C_12  and  C_16 
REMARK       I    between atoms: C_13  and  N_14 
ROOT
HETATM    1  N   UNL     1      26.123  46.433  51.879  1.00  0.00    -0.054 N 
HETATM    2  H   UNL     1      27.133  46.640  51.915  1.00  0.00     0.281 HD
HETATM    3  C   UNL     1      25.409  47.527  52.618  1.00  0.00     0.271 C 
ENDROOT
BRANCH   1   4
HETATM    4  C   UNL     1      26.026  45.106  52.604  1.00  0.00     0.277 C 
BRANCH   4   5
HETATM    5  C   UNL     1      27.276  44.785  53.385  1.00  0.00     0.001 A 
HETATM    6  C   UNL     1      27.552  45.423  54.596  1.00  0.00     0.074 A 
HETATM    7  C   UNL     1      28.693  45.114  55.331  1.00  0.00     0.044 A 
HETATM    8  C   UNL     1      29.587  44.136  54.868  1.00  0.00    -0.053 A 
HETATM    9  C   UNL     1      29.335  43.492  53.640  1.00  0.00    -0.055 A 
HETATM   10  C   UNL     1      30.805  43.803  55.690  1.00  0.00     0.049 C 
HETATM   11  C   UNL     1      30.253  42.421  53.112  1.00  0.00     0.049 C 
HETATM   12  C   UNL     1      28.180  43.823  52.912  1.00  0.00     0.019 A 
BRANCH   6  13
HETATM   13  O   UNL     1      26.643  46.330  55.070  1.00  0.00    -0.360 OA
HETATM   14  H   UNL     1      26.530  46.160  56.027  1.00  0.00     0.217 HD
ENDBRANCH   6  13
ENDBRANCH   4   5
ENDBRANCH   1   4
BRANCH   1  15
HETATM   15  C   UNL     1      25.742  46.389  50.394  1.00  0.00     0.312 C 
BRANCH  15  16
HETATM   16  C   UNL     1      26.263  45.136  49.636  1.00  0.00     0.251 C 
HETATM   17  N   UNL     1      25.332  44.371  48.988  1.00  0.00    -0.368 N 
HETATM   18  H   UNL     1      24.389  44.683  48.778  1.00  0.00     0.159 HD
HETATM   19  H   UNL     1      25.671  43.573  48.459  1.00  0.00     0.159 HD
HETATM   20  O   UNL     1      27.442  44.792  49.639  1.00  0.00    -0.271 OA
ENDBRANCH  15  16
BRANCH  15  21
HETATM   21  C   UNL     1      26.031  47.704  49.683  1.00  0.00    -0.016 A 
HETATM   22  C   UNL     1      24.963  48.436  49.136  1.00  0.00     0.052 A 
HETATM   23  C   UNL     1      25.198  49.642  48.481  1.00  0.00     0.117 A 
HETATM   24  F   UNL     1      24.163  50.317  47.965  1.00  0.00    -0.206 F 
HETATM   25  C   UNL     1      26.482  50.150  48.357  1.00  0.00     0.042 A 
HETATM   26  C   UNL     1      27.551  49.444  48.903  1.00  0.00     0.004 A 
HETATM   27  C   UNL     1      27.330  48.233  49.567  1.00  0.00     0.010 A 
ENDBRANCH  15  21
ENDBRANCH   1  15
TORSDOF 6
ENDMDL
MODEL 3
REMARK VINA RESULT:      -8.2      2.436      3.946
REMARK  6 active torsions:
REMARK  status: ('A' for Active; 'I' for Inactive)
REMARK    1  A    between atoms: C_6  and  O_7 
REMARK    2  A    between atoms: C_8  and  C_9 
REMARK    3  A    between atoms: C_9  and  N_10 
REMARK    4  A    between atoms: N_10  and  C_12 
REMARK    5  A    between atoms: C_12  and  C_13 
REMARK    6  A    between atoms: C_12  and  C_16 
REMARK       I    between atoms: C_13  and  N_14 
ROOT
HETATM    1  N   UNL     1      27.667  42.745  53.417  1.00  0.00    -0.054 N 
HETATM    2  H   UNL     1      27.141  43.281  54.124  1.00  0.00     0.281 HD
HETATM    3  C   UNL     1      27.963  41.394  54.001  1.00  0.00     0.271 C 
ENDROOT
BRANCH   1   4
HETATM    4  C   UNL     1      28.924  43.570  53.234  1.00  0.00     0.277 C 
BRANCH   4   5
HETATM    5  C   UNL     1      29.420  44.157  54.532  1.00  0.00     0.001 A 
HETATM    6  C   UNL     1      28.830  45.300  55.076  1.00  0.00     0.074 A 
HETATM    7  C   UNL     1      29.269  45.834  56.285  1.00  0.00     0.044 A 
HETATM    8  C   UNL     1      30.314  45.217  56.990  1.00  0.00    -0.053 A 
HETATM    9  C   UNL     1      30.934  44.072  56.449  1.00  0.00    -0.055 A 
HETATM   10  C   UNL     1      30.760  45.800  58.306  1.00  0.00     0.049 C 
HETATM   11  C   UNL     1      32.044  43.362  57.178  1.00  0.00     0.049 C 
HETATM   12  C   UNL     1      30.478  43.554  55.225  1.00  0.00     0.019 A 
BRANCH   6  13
HETATM   13  O   UNL     1      27.770  45.859  54.413  1.00  0.00    -0.360 OA
HETATM   14  H   UNL     1      28.120  46.278  53.600  1.00  0.00     0.217 HD
ENDBRANCH   6  13
ENDBRANCH   4   5
ENDBRANCH   1   4
BRANCH   1  15
HETATM   15  C   UNL     1      26.763  42.658  52.181  1.00  0.00     0.312 C 
BRANCH  15  16
HETATM   16  C   UNL     1      27.112  41.493  51.213  1.00  0.00     0.251 C 
HETATM   17  N   UNL     1      26.186  40.495  51.082  1.00  0.00    -0.368 N 
HETATM   18  H   UNL     1      25.220  40.576  51.381  1.00  0.00     0.159 HD
HETATM   19  H   UNL     1      26.393  39.751  50.422  1.00  0.00     0.159 HD
HETATM   20  O   UNL     1      28.183  41.416  50.616  1.00  0.00    -0.271 OA
ENDBRANCH  15  16
BRANCH  15  21
HETATM   21  C   UNL     1      26.594  44.004  51.490  1.00  0.00    -0.016 A 
HETATM   22  C   UNL     1      25.789  44.987  52.093  1.00  0.00     0.052 A 
HETATM   23  C   UNL     1      25.617  46.227  51.484  1.00  0.00     0.117 A 
HETATM   24  F   UNL     1      24.841  47.142  52.076  1.00  0.00    -0.206 F 
HETATM   25  C   UNL     1      26.236  46.523  50.279  1.00  0.00     0.042 A 
HETATM   26  C   UNL     1      27.048  45.566  49.674  1.00  0.00     0.004 A 
HETATM   27  C   UNL     1      27.232  44.318  50.276  1.00  0.00     0.010 A 
ENDBRANCH  15  21
ENDBRANCH   1  15
TORSDOF 6
ENDMDL
MODEL 4
REMARK VINA RESULT:      -8.0     11.203     12.636
REMARK  6 active torsions:
REMARK  status: ('A' for Active; 'I' for Inactive)
REMARK    1  A    between atoms: C_6  and  O_7 
REMARK    2  A    between atoms: C_8  and  C_9 
REMARK    3  A    between atoms: C_9  and  N_10 
REMARK    4  A    between atoms: N_10  and  C_12 
REMARK    5  A    between atoms: C_12  and  C_13 
REMARK    6  A    between atoms: C_12  and  C_16 
REMARK       I    between atoms: C_13  and  N_14 
ROOT
HETATM    1  N   UNL     1      29.941  49.143  41.466  1.00  0.00    -0.054 N 
HETATM    2  H   UNL     1      29.966  49.981  42.065  1.00  0.00     0.281 HD
HETATM    3  C   UNL     1      28.819  48.272  41.950  1.00  0.00     0.271 C 
ENDROOT
BRANCH   1   4
HETATM    4  C   UNL     1      31.295  48.510  41.713  1.00  0.00     0.277 C 
BRANCH   4   5
HETATM    5  C   UNL     1      32.293  49.491  42.276  1.00  0.00     0.001 A 
HETATM    6  C   UNL     1      33.595  49.560  41.776  1.00  0.00     0.074 A 
HETATM    7  C   UNL     1      34.514  50.479  42.276  1.00  0.00     0.044 A 
HETATM    8  C   UNL     1      34.138  51.369  43.294  1.00  0.00    -0.053 A 
HETATM    9  C   UNL     1      32.833  51.305  43.824  1.00  0.00    -0.055 A 
HETATM   10  C   UNL     1      35.142  52.368  43.807  1.00  0.00     0.049 C 
HETATM   11  C   UNL     1      32.375  52.253  44.901  1.00  0.00     0.049 C 
HETATM   12  C   UNL     1      31.924  50.366  43.308  1.00  0.00     0.019 A 
BRANCH   6  13
HETATM   13  O   UNL     1      33.934  48.730  40.741  1.00  0.00    -0.360 OA
HETATM   14  H   UNL     1      34.725  49.109  40.307  1.00  0.00     0.217 HD
ENDBRANCH   6  13
ENDBRANCH   4   5
ENDBRANCH   1   4
BRANCH   1  15
HETATM   15  C   UNL     1      29.712  49.643  40.033  1.00  0.00     0.312 C 
BRANCH  15  16
HETATM   16  C   UNL     1      30.678  49.032  38.980  1.00  0.00     0.251 C 
HETATM   17  N   UNL     1      31.785  49.765  38.654  1.00  0.00    -0.368 N 
HETATM   18  H   UNL     1      32.131  50.545  39.205  1.00  0.00     0.159 HD
HETATM   19  H   UNL     1      32.440  49.353  37.996  1.00  0.00     0.159 HD
HETATM   20  O   UNL     1      30.462  47.965  38.411  1.00  0.00    -0.271 OA
ENDBRANCH  15  16
BRANCH  15  21
HETATM   21  C   UNL     1      29.598  51.159  39.960  1.00  0.00    -0.016 A 
HETATM   22  C   UNL     1      29.028  51.749  38.818  1.00  0.00     0.052 A 
HETATM   23  C   UNL     1      28.910  53.132  38.724  1.00  0.00     0.117 A 
HETATM   24  F   UNL     1      28.369  53.668  37.623  1.00  0.00    -0.206 F 
HETATM   25  C   UNL     1      29.345  53.958  39.749  1.00  0.00     0.042 A 
HETATM   26  C   UNL     1      29.902  53.391  40.894  1.00  0.00     0.004 A 
HETATM   27  C   UNL     1      30.022  52.002  41.003  1.00  0.00     0.010 A 
ENDBRANCH  15  21
ENDBRANCH   1  15
TORSDOF 6
ENDMDL
MODEL 5
REMARK VINA RESULT:      -7.9      4.154      5.766
REMARK  6 active torsions:
REMARK  status: ('A' for Active; 'I' for Inactive)
REMARK    1  A    between atoms: C_6  and  O_7 
REMARK    2  A    between atoms: C_8  and  C_9 
REMARK    3  A    between atoms: C_9  and  N_10 
REMARK    4  A    between atoms: N_10  and  C_12 
REMARK    5  A    between atoms: C_12  and  C_13 
REMARK    6  A    between atoms: C_12  and  C_16 
REMARK       I    between atoms: C_13  and  N_14 
ROOT
HETATM    1  N   UNL     1      27.958  42.573  52.922  1.00  0.00    -0.054 N 
HETATM    2  H   UNL     1      27.432  43.145  53.600  1.00  0.00     0.281 HD
HETATM    3  C   UNL     1      27.946  41.156  53.416  1.00  0.00     0.271 C 
ENDROOT
BRANCH   1   4
HETATM    4  C   UNL     1      29.346  43.178  52.975  1.00  0.00     0.277 C 
BRANCH   4   5
HETATM    5  C   UNL     1      29.626  43.857  54.293  1.00  0.00     0.001 A 
HETATM    6  C   UNL     1      28.858  44.942  54.721  1.00  0.00     0.074 A 
HETATM    7  C   UNL     1      29.098  45.557  55.947  1.00  0.00     0.044 A 
HETATM    8  C   UNL     1      30.119  45.084  56.786  1.00  0.00    -0.053 A 
HETATM    9  C   UNL     1      30.916  44.001  56.365  1.00  0.00    -0.055 A 
HETATM   10  C   UNL     1      30.348  45.753  58.117  1.00  0.00     0.049 C 
HETATM   11  C   UNL     1      32.009  43.443  57.239  1.00  0.00     0.049 C 
HETATM   12  C   UNL     1      30.660  43.398  55.122  1.00  0.00     0.019 A 
BRANCH   6  13
HETATM   13  O   UNL     1      27.825  45.356  53.925  1.00  0.00    -0.360 OA
HETATM   14  H   UNL     1      27.094  45.637  54.513  1.00  0.00     0.217 HD
ENDBRANCH   6  13
ENDBRANCH   4   5
ENDBRANCH   1   4
BRANCH   1  15
HETATM   15  C   UNL     1      27.236  42.726  51.576  1.00  0.00     0.312 C 
BRANCH  15  16
HETATM   16  C   UNL     1      25.849  43.420  51.670  1.00  0.00     0.251 C 
HETATM   17  N   UNL     1      25.342  43.630  52.923  1.00  0.00    -0.368 N 
HETATM   18  H   UNL     1      25.894  43.578  53.773  1.00  0.00     0.159 HD
HETATM   19  H   UNL     1      24.454  44.118  52.990  1.00  0.00     0.159 HD
HETATM   20  O   UNL     1      25.189  43.735  50.682  1.00  0.00    -0.271 OA
ENDBRANCH  15  16
BRANCH  15  21
HETATM   21  C   UNL     1      27.226  41.432  50.775  1.00  0.00    -0.016 A 
HETATM   22  C   UNL     1      28.377  41.062  50.057  1.00  0.00     0.052 A 
HETATM   23  C   UNL     1      28.396  39.884  49.315  1.00  0.00     0.117 A 
HETATM   24  F   UNL     1      29.503  39.557  48.637  1.00  0.00    -0.206 F 
HETATM   25  C   UNL     1      27.290  39.049  49.270  1.00  0.00     0.042 A 
HETATM   26  C   UNL     1      26.145  39.394  49.985  1.00  0.00     0.004 A 
HETATM   27  C   UNL     1      26.113  40.572  50.738  1.00  0.00     0.010 A 
ENDBRANCH  15  21
ENDBRANCH   1  15
TORSDOF 6
ENDMDL
MODEL 6
REMARK VINA RESULT:      -7.7     11.028     12.681
REMARK  6 active torsions:
REMARK  status: ('A' for Active; 'I' for Inactive)
REMARK    1  A    between atoms: C_6  and  O_7 
REMARK    2  A    between atoms: C_8  and  C_9 
REMARK    3  A    between atoms: C_9  and  N_10 
REMARK    4  A    between atoms: N_10  and  C_12 
REMARK    5  A    between atoms: C_12  and  C_13 
REMARK    6  A    between atoms: C_12  and  C_16 
REMARK       I    between atoms: C_13  and  N_14 
ROOT
HETATM    1  N   UNL     1      27.161  48.847  40.305  1.00  0.00    -0.054 N 
HETATM    2  H   UNL     1      27.375  49.052  41.293  1.00  0.00     0.281 HD
HETATM    3  C   UNL     1      26.116  47.770  40.283  1.00  0.00     0.271 C 
ENDROOT
BRANCH   1   4
HETATM    4  C   UNL     1      28.489  48.357  39.767  1.00  0.00     0.277 C 
BRANCH   4   5
HETATM    5  C   UNL     1      29.663  48.954  40.502  1.00  0.00     0.001 A 
HETATM    6  C   UNL     1      29.773  48.846  41.890  1.00  0.00     0.074 A 
HETATM    7  C   UNL     1      30.866  49.376  42.571  1.00  0.00     0.044 A 
HETATM    8  C   UNL     1      31.891  50.024  41.865  1.00  0.00    -0.053 A 
HETATM    9  C   UNL     1      31.791  50.158  40.465  1.00  0.00    -0.055 A 
HETATM   10  C   UNL     1      33.074  50.572  42.620  1.00  0.00     0.049 C 
HETATM   11  C   UNL     1      32.875  50.825  39.660  1.00  0.00     0.049 C 
HETATM   12  C   UNL     1      30.677  49.620  39.799  1.00  0.00     0.019 A 
BRANCH   6  13
HETATM   13  O   UNL     1      28.800  48.158  42.564  1.00  0.00    -0.360 OA
HETATM   14  H   UNL     1      28.124  48.807  42.847  1.00  0.00     0.217 HD
ENDBRANCH   6  13
ENDBRANCH   4   5
ENDBRANCH   1   4
BRANCH   1  15
HETATM   15  C   UNL     1      26.657  50.159  39.690  1.00  0.00     0.312 C 
BRANCH  15  16
HETATM   16  C   UNL     1      26.086  50.013  38.251  1.00  0.00     0.251 C 
HETATM   17  N   UNL     1      24.794  50.416  38.052  1.00  0.00    -0.368 N 
HETATM   18  H   UNL     1      24.276  51.000  38.700  1.00  0.00     0.159 HD
HETATM   19  H   UNL     1      24.429  50.359  37.106  1.00  0.00     0.159 HD
HETATM   20  O   UNL     1      26.723  49.518  37.325  1.00  0.00    -0.271 OA
ENDBRANCH  15  16
BRANCH  15  21
HETATM   21  C   UNL     1      27.659  51.294  39.844  1.00  0.00    -0.016 A 
HETATM   22  C   UNL     1      28.094  51.653  41.132  1.00  0.00     0.052 A 
HETATM   23  C   UNL     1      29.011  52.687  41.303  1.00  0.00     0.117 A 
HETATM   24  F   UNL     1      29.405  53.011  42.540  1.00  0.00    -0.206 F 
HETATM   25  C   UNL     1      29.517  53.380  40.215  1.00  0.00     0.042 A 
HETATM   26  C   UNL     1      29.106  53.031  38.930  1.00  0.00     0.004 A 
HETATM   27  C   UNL     1      28.189  51.991  38.744  1.00  0.00     0.010 A 
ENDBRANCH  15  21
ENDBRANCH   1  15
TORSDOF 6
ENDMDL
MODEL 7
REMARK VINA RESULT:      -7.6      3.094      4.863
REMARK  6 active torsions:
REMARK  status: ('A' for Active; 'I' for Inactive)
REMARK    1  A    between atoms: C_6  and  O_7 
REMARK    2  A    between atoms: C_8  and  C_9 
REMARK    3  A    between atoms: C_9  and  N_10 
REMARK    4  A    between atoms: N_10  and  C_12 
REMARK    5  A    between atoms: C_12  and  C_13 
REMARK    6  A    between atoms: C_12  and  C_16 
REMARK       I    between atoms: C_13  and  N_14 
ROOT
HETATM    1  N   UNL     1      26.347  45.132  51.361  1.00  0.00    -0.054 N 
HETATM    2  H   UNL     1      27.335  44.850  51.447  1.00  0.00     0.281 HD
HETATM    3  C   UNL     1      26.320  46.536  50.832  1.00  0.00     0.271 C 
ENDROOT
BRANCH   1   4
HETATM    4  C   UNL     1      25.848  45.057  52.789  1.00  0.00     0.277 C 
BRANCH   4   5
HETATM    5  C   UNL     1      26.952  45.264  53.795  1.00  0.00     0.001 A 
HETATM    6  C   UNL     1      26.933  46.351  54.671  1.00  0.00     0.074 A 
HETATM    7  C   UNL     1      27.938  46.535  55.617  1.00  0.00     0.044 A 
HETATM    8  C   UNL     1      28.992  45.614  55.714  1.00  0.00    -0.053 A 
HETATM    9  C   UNL     1      29.039  44.519  54.827  1.00  0.00    -0.055 A 
HETATM   10  C   UNL     1      30.059  45.821  56.757  1.00  0.00     0.049 C 
HETATM   11  C   UNL     1      30.138  43.491  54.906  1.00  0.00     0.049 C 
HETATM   12  C   UNL     1      28.017  44.355  53.877  1.00  0.00     0.019 A 
BRANCH   6  13
HETATM   13  O   UNL     1      25.868  47.210  54.611  1.00  0.00    -0.360 OA
HETATM   14  H   UNL     1      25.306  46.930  53.860  1.00  0.00     0.217 HD
ENDBRANCH   6  13
ENDBRANCH   4   5
ENDBRANCH   1   4
BRANCH   1  15
HETATM   15  C   UNL     1      25.696  44.135  50.393  1.00  0.00     0.312 C 
BRANCH  15  16
HETATM   16  C   UNL     1      24.206  43.820  50.705  1.00  0.00     0.251 C 
HETATM   17  N   UNL     1      23.287  44.777  50.375  1.00  0.00    -0.368 N 
HETATM   18  H   UNL     1      23.476  45.553  49.749  1.00  0.00     0.159 HD
HETATM   19  H   UNL     1      22.308  44.560  50.541  1.00  0.00     0.159 HD
HETATM   20  O   UNL     1      23.842  42.789  51.266  1.00  0.00    -0.271 OA
ENDBRANCH  15  16
BRANCH  15  21
HETATM   21  C   UNL     1      26.555  42.898  50.173  1.00  0.00    -0.016 A 
HETATM   22  C   UNL     1      27.303  42.382  51.246  1.00  0.00     0.052 A 
HETATM   23  C   UNL     1      28.096  41.252  51.073  1.00  0.00     0.117 A 
HETATM   24  F   UNL     1      28.802  40.785  52.110  1.00  0.00    -0.206 F 
HETATM   25  C   UNL     1      28.166  40.608  49.848  1.00  0.00     0.042 A 
HETATM   26  C   UNL     1      27.422  41.097  48.776  1.00  0.00     0.004 A 
HETATM   27  C   UNL     1      26.617  42.229  48.936  1.00  0.00     0.010 A 
ENDBRANCH  15  21
ENDBRANCH   1  15
TORSDOF 6
ENDMDL
MODEL 8
REMARK VINA RESULT:      -7.4     12.367     13.814
REMARK  6 active torsions:
REMARK  status: ('A' for Active; 'I' for Inactive)
REMARK    1  A    between atoms: C_6  and  O_7 
REMARK    2  A    between atoms: C_8  and  C_9 
REMARK    3  A    between atoms: C_9  and  N_10 
REMARK    4  A    between atoms: N_10  and  C_12 
REMARK    5  A    between atoms: C_12  and  C_13 
REMARK    6  A    between atoms: C_12  and  C_16 
REMARK       I    between atoms: C_13  and  N_14 
ROOT
HETATM    1  N   UNL     1      29.072  48.881  40.244  1.00  0.00    -0.054 N 
HETATM    2  H   UNL     1      29.753  48.942  41.017  1.00  0.00     0.281 HD
HETATM    3  C   UNL     1      28.314  47.596  40.407  1.00  0.00     0.271 C 
ENDROOT
BRANCH   1   4
HETATM    4  C   UNL     1      29.957  48.863  39.015  1.00  0.00     0.277 C 
BRANCH   4   5
HETATM    5  C   UNL     1      31.161  49.760  39.161  1.00  0.00     0.001 A 
HETATM    6  C   UNL     1      31.369  50.833  38.292  1.00  0.00     0.074 A 
HETATM    7  C   UNL     1      32.467  51.677  38.436  1.00  0.00     0.044 A 
HETATM    8  C   UNL     1      33.386  51.468  39.477  1.00  0.00    -0.053 A 
HETATM    9  C   UNL     1      33.202  50.381  40.355  1.00  0.00    -0.055 A 
HETATM   10  C   UNL     1      34.556  52.405  39.626  1.00  0.00     0.049 C 
HETATM   11  C   UNL     1      34.148  50.128  41.500  1.00  0.00     0.049 C 
HETATM   12  C   UNL     1      32.090  49.538  40.188  1.00  0.00     0.019 A 
BRANCH   6  13
HETATM   13  O   UNL     1      30.435  51.066  37.318  1.00  0.00    -0.360 OA
HETATM   14  H   UNL     1      30.874  51.571  36.604  1.00  0.00     0.217 HD
ENDBRANCH   6  13
ENDBRANCH   4   5
ENDBRANCH   1   4
BRANCH   1  15
HETATM   15  C   UNL     1      28.164  50.112  40.372  1.00  0.00     0.312 C 
BRANCH  15  16
HETATM   16  C   UNL     1      27.160  50.290  39.198  1.00  0.00     0.251 C 
HETATM   17  N   UNL     1      25.831  50.324  39.517  1.00  0.00    -0.368 N 
HETATM   18  H   UNL     1      25.477  50.470  40.456  1.00  0.00     0.159 HD
HETATM   19  H   UNL     1      25.174  50.480  38.758  1.00  0.00     0.159 HD
HETATM   20  O   UNL     1      27.509  50.354  38.021  1.00  0.00    -0.271 OA
ENDBRANCH  15  16
BRANCH  15  21
HETATM   21  C   UNL     1      28.943  51.373  40.715  1.00  0.00    -0.016 A 
HETATM   22  C   UNL     1      28.759  52.526  39.931  1.00  0.00     0.052 A 
HETATM   23  C   UNL     1      29.458  53.694  40.223  1.00  0.00     0.117 A 
HETATM   24  F   UNL     1      29.269  54.776  39.458  1.00  0.00    -0.206 F 
HETATM   25  C   UNL     1      30.343  53.751  41.288  1.00  0.00     0.042 A 
HETATM   26  C   UNL     1      30.528  52.622  42.084  1.00  0.00     0.004 A 
HETATM   27  C   UNL     1      29.830  51.443  41.805  1.00  0.00     0.010 A 
ENDBRANCH  15  21
ENDBRANCH   1  15
TORSDOF 6
ENDMDL
MODEL 9
REMARK VINA RESULT:      -7.4     11.434     13.376
REMARK  6 active torsions:
REMARK  status: ('A' for Active; 'I' for Inactive)
REMARK    1  A    between atoms: C_6  and  O_7 
REMARK    2  A    between atoms: C_8  and  C_9 
REMARK    3  A    between atoms: C_9  and  N_10 
REMARK    4  A    between atoms: N_10  and  C_12 
REMARK    5  A    between atoms: C_12  and  C_13 
REMARK    6  A    between atoms: C_12  and  C_16 
REMARK       I    between atoms: C_13  and  N_14 
ROOT
HETATM    1  N   UNL     1      29.366  51.944  39.201  1.00  0.00    -0.054 N 
HETATM    2  H   UNL     1      30.235  51.476  38.902  1.00  0.00     0.281 HD
HETATM    3  C   UNL     1      28.855  52.740  38.035  1.00  0.00     0.271 C 
ENDROOT
BRANCH   1   4
HETATM    4  C   UNL     1      29.836  52.836  40.331  1.00  0.00     0.277 C 
BRANCH   4   5
HETATM    5  C   UNL     1      31.129  52.357  40.942  1.00  0.00     0.001 A 
HETATM    6  C   UNL     1      32.233  52.053  40.143  1.00  0.00     0.074 A 
HETATM    7  C   UNL     1      33.436  51.632  40.703  1.00  0.00     0.044 A 
HETATM    8  C   UNL     1      33.564  51.517  42.096  1.00  0.00    -0.053 A 
HETATM    9  C   UNL     1      32.456  51.804  42.919  1.00  0.00    -0.055 A 
HETATM   10  C   UNL     1      34.880  51.079  42.682  1.00  0.00     0.049 C 
HETATM   11  C   UNL     1      32.550  51.717  44.420  1.00  0.00     0.049 C 
HETATM   12  C   UNL     1      31.250  52.222  42.332  1.00  0.00     0.019 A 
BRANCH   6  13
HETATM   13  O   UNL     1      32.118  52.227  38.790  1.00  0.00    -0.360 OA
HETATM   14  H   UNL     1      31.170  52.142  38.561  1.00  0.00     0.217 HD
ENDBRANCH   6  13
ENDBRANCH   4   5
ENDBRANCH   1   4
BRANCH   1  15
HETATM   15  C   UNL     1      28.395  50.831  39.614  1.00  0.00     0.312 C 
BRANCH  15  16
HETATM   16  C   UNL     1      27.795  51.001  41.038  1.00  0.00     0.251 C 
HETATM   17  N   UNL     1      26.835  51.963  41.196  1.00  0.00    -0.368 N 
HETATM   18  H   UNL     1      26.337  52.399  40.428  1.00  0.00     0.159 HD
HETATM   19  H   UNL     1      26.412  52.052  42.116  1.00  0.00     0.159 HD
HETATM   20  O   UNL     1      28.176  50.352  42.009  1.00  0.00    -0.271 OA
ENDBRANCH  15  16
BRANCH  15  21
HETATM   21  C   UNL     1      28.956  49.442  39.344  1.00  0.00    -0.016 A 
HETATM   22  C   UNL     1      30.227  49.108  39.844  1.00  0.00     0.052 A 
HETATM   23  C   UNL     1      30.765  47.845  39.612  1.00  0.00     0.117 A 
HETATM   24  F   UNL     1      31.979  47.554  40.096  1.00  0.00    -0.206 F 
HETATM   25  C   UNL     1      30.065  46.891  38.891  1.00  0.00     0.042 A 
HETATM   26  C   UNL     1      28.799  47.200  38.398  1.00  0.00     0.004 A 
HETATM   27  C   UNL     1      28.244  48.463  38.627  1.00  0.00     0.010 A 
ENDBRANCH  15  21
ENDBRANCH   1  15
TORSDOF 6
ENDMDL
MODEL 10
REMARK VINA RESULT:      -7.4      3.208      7.051
REMARK  6 active torsions:
REMARK  status: ('A' for Active; 'I' for Inactive)
REMARK    1  A    between atoms: C_6  and  O_7 
REMARK    2  A    between atoms: C_8  and  C_9 
REMARK    3  A    between atoms: C_9  and  N_10 
REMARK    4  A    between atoms: N_10  and  C_12 
REMARK    5  A    between atoms: C_12  and  C_13 
REMARK    6  A    between atoms: C_12  and  C_16 
REMARK       I    between atoms: C_13  and  N_14 
ROOT
HETATM    1  N   UNL     1      26.672  43.969  53.496  1.00  0.00    -0.054 N 
HETATM    2  H   UNL     1      26.135  43.379  52.843  1.00  0.00     0.281 HD
HETATM    3  C   UNL     1      26.170  43.683  54.882  1.00  0.00     0.271 C 
ENDROOT
BRANCH   1   4
HETATM    4  C   UNL     1      26.323  45.373  53.048  1.00  0.00     0.277 C 
BRANCH   4   5
HETATM    5  C   UNL     1      25.384  45.383  51.868  1.00  0.00     0.001 A 
HETATM    6  C   UNL     1      25.193  46.540  51.109  1.00  0.00     0.074 A 
HETATM    7  C   UNL     1      24.345  46.548  50.005  1.00  0.00     0.044 A 
HETATM    8  C   UNL     1      23.671  45.377  49.625  1.00  0.00    -0.053 A 
HETATM    9  C   UNL     1      23.837  44.204  50.387  1.00  0.00    -0.055 A 
HETATM   10  C   UNL     1      22.773  45.404  48.415  1.00  0.00     0.049 C 
HETATM   11  C   UNL     1      23.152  42.917  50.007  1.00  0.00     0.049 C 
HETATM   12  C   UNL     1      24.693  44.219  51.501  1.00  0.00     0.019 A 
BRANCH   6  13
HETATM   13  O   UNL     1      25.903  47.660  51.450  1.00  0.00    -0.360 OA
HETATM   14  H   UNL     1      26.607  47.384  52.072  1.00  0.00     0.217 HD
ENDBRANCH   6  13
ENDBRANCH   4   5
ENDBRANCH   1   4
BRANCH   1  15
HETATM   15  C   UNL     1      28.145  43.580  53.320  1.00  0.00     0.312 C 
BRANCH  15  16
HETATM   16  C   UNL     1      28.375  42.078  52.989  1.00  0.00     0.251 C 
HETATM   17  N   UNL     1      29.177  41.795  51.918  1.00  0.00    -0.368 N 
HETATM   18  H   UNL     1      29.799  42.467  51.481  1.00  0.00     0.159 HD
HETATM   19  H   UNL     1      29.362  40.815  51.721  1.00  0.00     0.159 HD
HETATM   20  O   UNL     1      27.839  41.165  53.611  1.00  0.00    -0.271 OA
ENDBRANCH  15  16
BRANCH  15  21
HETATM   21  C   UNL     1      29.022  44.103  54.449  1.00  0.00    -0.016 A 
HETATM   22  C   UNL     1      30.029  43.275  54.976  1.00  0.00     0.052 A 
HETATM   23  C   UNL     1      30.845  43.728  56.008  1.00  0.00     0.117 A 
HETATM   24  F   UNL     1      31.793  42.917  56.494  1.00  0.00    -0.206 F 
HETATM   25  C   UNL     1      30.690  45.001  56.536  1.00  0.00     0.042 A 
HETATM   26  C   UNL     1      29.706  45.840  56.018  1.00  0.00     0.004 A 
HETATM   27  C   UNL     1      28.881  45.399  54.979  1.00  0.00     0.010 A 
ENDBRANCH  15  21
ENDBRANCH   1  15
TORSDOF 6
ENDMDL
