MODEL 1
REMARK VINA RESULT:      -8.1      0.000      0.000
REMARK  6 active torsions:
REMARK  status: ('A' for Active; 'I' for Inactive)
REMARK    1  A    between atoms: C_2  and  C_3 
REMARK    2  A    between atoms: C_3  and  O_4 
REMARK    3  A    between atoms: O_4  and  C_5 
REMARK    4  A    between atoms: C_9  and  C_10 
REMARK       I    between atoms: C_10  and  N_11 
REMARK    5  A    between atoms: N_11  and  C_12 
REMARK    6  A    between atoms: C_25  and  O_26 
ROOT
HETATM    1  C   UNL     1      25.507  44.679  52.272  1.00  0.00     0.256 C 
HETATM    2  N   UNL     1      26.880  44.797  52.120  1.00  0.00    -0.323 N 
HETATM    3  O   UNL     1      24.930  44.204  53.244  1.00  0.00    -0.267 OA
HETATM    4  H   UNL     1      27.221  45.125  51.225  1.00  0.00     0.169 HD
ENDROOT
BRANCH   1   5
HETATM    5  C   UNL     1      24.679  45.150  51.124  1.00  0.00     0.036 A 
HETATM    6  C   UNL     1      24.806  46.485  50.721  1.00  0.00     0.044 A 
HETATM    7  C   UNL     1      24.045  46.981  49.656  1.00  0.00     0.071 A 
HETATM    8  C   UNL     1      23.135  46.149  48.987  1.00  0.00     0.123 A 
HETATM    9 CL   UNL     1      24.325  48.621  49.192  1.00  0.00    -0.081 Cl
HETATM   10  C   UNL     1      23.085  44.790  49.337  1.00  0.00     0.104 A 
HETATM   11  C   UNL     1      23.828  44.299  50.415  1.00  0.00     0.056 A 
BRANCH   8  12
HETATM   12  O   UNL     1      22.325  46.577  47.967  1.00  0.00    -0.346 OA
BRANCH  12  13
HETATM   13  C   UNL     1      20.970  46.818  48.372  1.00  0.00     0.179 C 
BRANCH  13  14
HETATM   14  C   UNL     1      20.797  48.255  48.890  1.00  0.00     0.002 C 
HETATM   15  C   UNL     1      19.449  48.443  49.584  1.00  0.00     0.011 C 
HETATM   16  C   UNL     1      20.966  49.284  47.773  1.00  0.00     0.011 C 
ENDBRANCH  13  14
ENDBRANCH  12  13
ENDBRANCH   8  12
BRANCH  10  17
HETATM   17  O   UNL     1      22.284  43.863  48.719  1.00  0.00    -0.353 OA
HETATM   18  C   UNL     1      22.850  42.550  48.733  1.00  0.00     0.210 C 
ENDBRANCH  10  17
ENDBRANCH   1   5
BRANCH   2  19
HETATM   19  C   UNL     1      27.872  44.440  53.059  1.00  0.00     0.035 A 
HETATM   20  C   UNL     1      28.212  45.229  54.161  1.00  0.00     0.039 A 
HETATM   21  C   UNL     1      29.200  44.784  55.028  1.00  0.00    -0.022 A 
HETATM   22  C   UNL     1      29.858  43.570  54.819  1.00  0.00    -0.025 A 
HETATM   23  C   UNL     1      29.685  45.439  56.275  1.00  0.00     0.274 C 
HETATM   24  C   UNL     1      30.841  43.320  55.911  1.00  0.00     0.273 C 
HETATM   25  C   UNL     1      29.537  42.771  53.736  1.00  0.00     0.012 A 
HETATM   26  N   UNL     1      30.930  44.647  56.656  1.00  0.00    -0.067 N 
HETATM   27  H   UNL     1      31.719  45.154  56.237  1.00  0.00     0.280 HD
HETATM   28  C   UNL     1      31.162  44.526  58.118  1.00  0.00     0.270 C 
HETATM   29  C   UNL     1      28.542  43.216  52.856  1.00  0.00     0.030 A 
ENDBRANCH   2  19
TORSDOF 6
ENDMDL
MODEL 2
REMARK VINA RESULT:      -7.9      2.261      3.219
REMARK  6 active torsions:
REMARK  status: ('A' for Active; 'I' for Inactive)
REMARK    1  A    between atoms: C_2  and  C_3 
REMARK    2  A    between atoms: C_3  and  O_4 
REMARK    3  A    between atoms: O_4  and  C_5 
REMARK    4  A    between atoms: C_9  and  C_10 
REMARK       I    between atoms: C_10  and  N_11 
REMARK    5  A    between atoms: N_11  and  C_12 
REMARK    6  A    between atoms: C_25  and  O_26 
ROOT
HETATM    1  C   UNL     1      24.763  47.607  50.287  1.00  0.00     0.256 C 
HETATM    2  N   UNL     1      24.625  46.716  51.340  1.00  0.00    -0.323 N 
HETATM    3  O   UNL     1      25.789  48.204  49.981  1.00  0.00    -0.267 OA
HETATM    4  H   UNL     1      23.695  46.366  51.532  1.00  0.00     0.169 HD
ENDROOT
BRANCH   1   5
HETATM    5  C   UNL     1      23.531  47.870  49.488  1.00  0.00     0.036 A 
HETATM    6  C   UNL     1      23.084  49.191  49.376  1.00  0.00     0.044 A 
HETATM    7  C   UNL     1      21.928  49.492  48.647  1.00  0.00     0.071 A 
HETATM    8  C   UNL     1      21.195  48.469  48.027  1.00  0.00     0.123 A 
HETATM    9 CL   UNL     1      21.500  51.160  48.511  1.00  0.00    -0.081 Cl
HETATM   10  C   UNL     1      21.703  47.160  48.067  1.00  0.00     0.104 A 
HETATM   11  C   UNL     1      22.845  46.856  48.814  1.00  0.00     0.056 A 
BRANCH   8  12
HETATM   12  O   UNL     1      20.030  48.683  47.336  1.00  0.00    -0.346 OA
BRANCH  12  13
HETATM   13  C   UNL     1      18.942  49.116  48.165  1.00  0.00     0.179 C 
BRANCH  13  14
HETATM   14  C   UNL     1      18.547  48.022  49.170  1.00  0.00     0.002 C 
HETATM   15  C   UNL     1      17.152  47.470  48.880  1.00  0.00     0.011 C 
HETATM   16  C   UNL     1      18.629  48.522  50.612  1.00  0.00     0.011 C 
ENDBRANCH  13  14
ENDBRANCH  12  13
ENDBRANCH   8  12
BRANCH  10  17
HETATM   17  O   UNL     1      21.113  46.085  47.451  1.00  0.00    -0.353 OA
HETATM   18  C   UNL     1      20.625  45.117  48.383  1.00  0.00     0.210 C 
ENDBRANCH  10  17
ENDBRANCH   1   5
BRANCH   2  19
HETATM   19  C   UNL     1      25.635  46.290  52.229  1.00  0.00     0.035 A 
HETATM   20  C   UNL     1      26.027  47.016  53.358  1.00  0.00     0.039 A 
HETATM   21  C   UNL     1      27.029  46.505  54.172  1.00  0.00    -0.022 A 
HETATM   22  C   UNL     1      27.649  45.288  53.885  1.00  0.00    -0.025 A 
HETATM   23  C   UNL     1      27.566  47.088  55.433  1.00  0.00     0.274 C 
HETATM   24  C   UNL     1      28.658  44.962  54.933  1.00  0.00     0.273 C 
HETATM   25  C   UNL     1      27.277  44.551  52.775  1.00  0.00     0.012 A 
HETATM   26  N   UNL     1      28.801  46.248  55.738  1.00  0.00    -0.067 N 
HETATM   27  H   UNL     1      29.590  46.756  55.320  1.00  0.00     0.280 HD
HETATM   28  C   UNL     1      29.073  46.051  57.185  1.00  0.00     0.270 C 
HETATM   29  C   UNL     1      26.267  45.061  51.948  1.00  0.00     0.030 A 
ENDBRANCH   2  19
TORSDOF 6
ENDMDL
MODEL 3
REMARK VINA RESULT:      -7.9      2.075      3.134
REMARK  6 active torsions:
REMARK  status: ('A' for Active; 'I' for Inactive)
REMARK    1  A    between atoms: C_2  and  C_3 
REMARK    2  A    between atoms: C_3  and  O_4 
REMARK    3  A    between atoms: O_4  and  C_5 
REMARK    4  A    between atoms: C_9  and  C_10 
REMARK       I    between atoms: C_10  and  N_11 
REMARK    5  A    between atoms: N_11  and  C_12 
REMARK    6  A    between atoms: C_25  and  O_26 
ROOT
HETATM    1  C   UNL     1      25.499  47.251  50.362  1.00  0.00     0.256 C 
HETATM    2  N   UNL     1      25.226  46.834  51.655  1.00  0.00    -0.323 N 
HETATM    3  O   UNL     1      26.613  47.354  49.860  1.00  0.00    -0.267 OA
HETATM    4  H   UNL     1      24.263  46.885  51.965  1.00  0.00     0.169 HD
ENDROOT
BRANCH   1   5
HETATM    5  C   UNL     1      24.317  47.634  49.535  1.00  0.00     0.036 A 
HETATM    6  C   UNL     1      24.228  48.954  49.079  1.00  0.00     0.044 A 
HETATM    7  C   UNL     1      23.136  49.368  48.308  1.00  0.00     0.071 A 
HETATM    8  C   UNL     1      22.108  48.466  47.993  1.00  0.00     0.123 A 
HETATM    9 CL   UNL     1      23.154  50.997  47.736  1.00  0.00    -0.081 Cl
HETATM   10  C   UNL     1      22.253  47.123  48.376  1.00  0.00     0.104 A 
HETATM   11  C   UNL     1      23.333  46.714  49.164  1.00  0.00     0.056 A 
BRANCH   8  12
HETATM   12  O   UNL     1      20.988  48.812  47.283  1.00  0.00    -0.346 OA
BRANCH  12  13
HETATM   13  C   UNL     1      19.944  49.373  48.093  1.00  0.00     0.179 C 
BRANCH  13  14
HETATM   14  C   UNL     1      19.532  50.760  47.577  1.00  0.00     0.002 C 
HETATM   15  C   UNL     1      19.854  51.856  48.593  1.00  0.00     0.011 C 
HETATM   16  C   UNL     1      18.051  50.808  47.199  1.00  0.00     0.011 C 
ENDBRANCH  13  14
ENDBRANCH  12  13
ENDBRANCH   8  12
BRANCH  10  17
HETATM   17  O   UNL     1      21.350  46.134  48.076  1.00  0.00    -0.353 OA
HETATM   18  C   UNL     1      21.619  44.914  48.772  1.00  0.00     0.210 C 
ENDBRANCH  10  17
ENDBRANCH   1   5
BRANCH   2  19
HETATM   19  C   UNL     1      26.159  46.407  52.624  1.00  0.00     0.035 A 
HETATM   20  C   UNL     1      26.873  45.209  52.534  1.00  0.00     0.039 A 
HETATM   21  C   UNL     1      27.772  44.885  53.540  1.00  0.00    -0.022 A 
HETATM   22  C   UNL     1      27.974  45.728  54.635  1.00  0.00    -0.025 A 
HETATM   23  C   UNL     1      28.659  43.690  53.624  1.00  0.00     0.274 C 
HETATM   24  C   UNL     1      29.012  45.159  55.542  1.00  0.00     0.273 C 
HETATM   25  C   UNL     1      27.281  46.920  54.744  1.00  0.00     0.012 A 
HETATM   26  N   UNL     1      29.215  43.734  55.042  1.00  0.00    -0.067 N 
HETATM   27  H   UNL     1      28.588  43.145  55.603  1.00  0.00     0.280 HD
HETATM   28  C   UNL     1      30.602  43.217  55.177  1.00  0.00     0.270 C 
HETATM   29  C   UNL     1      26.370  47.253  53.733  1.00  0.00     0.030 A 
ENDBRANCH   2  19
TORSDOF 6
ENDMDL
MODEL 4
REMARK VINA RESULT:      -7.7      3.341      9.814
REMARK  6 active torsions:
REMARK  status: ('A' for Active; 'I' for Inactive)
REMARK    1  A    between atoms: C_2  and  C_3 
REMARK    2  A    between atoms: C_3  and  O_4 
REMARK    3  A    between atoms: O_4  and  C_5 
REMARK    4  A    between atoms: C_9  and  C_10 
REMARK       I    between atoms: C_10  and  N_11 
REMARK    5  A    between atoms: N_11  and  C_12 
REMARK    6  A    between atoms: C_25  and  O_26 
ROOT
HETATM    1  C   UNL     1      23.504  46.925  49.226  1.00  0.00     0.256 C 
HETATM    2  N   UNL     1      23.156  48.155  49.762  1.00  0.00    -0.323 N 
HETATM    3  O   UNL     1      22.953  46.371  48.281  1.00  0.00    -0.267 OA
HETATM    4  H   UNL     1      23.641  48.449  50.601  1.00  0.00     0.169 HD
ENDROOT
BRANCH   1   5
HETATM    5  C   UNL     1      24.635  46.217  49.893  1.00  0.00     0.036 A 
HETATM    6  C   UNL     1      24.988  46.609  51.190  1.00  0.00     0.044 A 
HETATM    7  C   UNL     1      26.047  45.984  51.858  1.00  0.00     0.071 A 
HETATM    8  C   UNL     1      26.778  44.964  51.230  1.00  0.00     0.123 A 
HETATM    9 CL   UNL     1      26.359  46.492  53.479  1.00  0.00    -0.081 Cl
HETATM   10  C   UNL     1      26.356  44.515  49.968  1.00  0.00     0.104 A 
HETATM   11  C   UNL     1      25.312  45.154  49.291  1.00  0.00     0.056 A 
BRANCH   8  12
HETATM   12  O   UNL     1      27.855  44.340  51.805  1.00  0.00    -0.346 OA
BRANCH  12  13
HETATM   13  C   UNL     1      27.495  43.247  52.662  1.00  0.00     0.179 C 
BRANCH  13  14
HETATM   14  C   UNL     1      28.743  42.488  53.140  1.00  0.00     0.002 C 
HETATM   15  C   UNL     1      28.446  41.006  53.367  1.00  0.00     0.011 C 
HETATM   16  C   UNL     1      29.335  43.109  54.405  1.00  0.00     0.011 C 
ENDBRANCH  13  14
ENDBRANCH  12  13
ENDBRANCH   8  12
BRANCH  10  17
HETATM   17  O   UNL     1      26.947  43.487  49.278  1.00  0.00    -0.353 OA
HETATM   18  C   UNL     1      26.079  42.362  49.115  1.00  0.00     0.210 C 
ENDBRANCH  10  17
ENDBRANCH   1   5
BRANCH   2  19
HETATM   19  C   UNL     1      22.140  49.023  49.307  1.00  0.00     0.035 A 
HETATM   20  C   UNL     1      20.793  48.659  49.223  1.00  0.00     0.039 A 
HETATM   21  C   UNL     1      19.872  49.592  48.766  1.00  0.00    -0.022 A 
HETATM   22  C   UNL     1      20.264  50.877  48.390  1.00  0.00    -0.025 A 
HETATM   23  C   UNL     1      18.396  49.431  48.638  1.00  0.00     0.274 C 
HETATM   24  C   UNL     1      19.078  51.679  47.973  1.00  0.00     0.273 C 
HETATM   25  C   UNL     1      21.591  51.261  48.466  1.00  0.00     0.012 A 
HETATM   26  N   UNL     1      17.952  50.660  47.853  1.00  0.00    -0.067 N 
HETATM   27  H   UNL     1      17.938  50.368  46.869  1.00  0.00     0.280 HD
HETATM   28  C   UNL     1      16.606  51.172  48.218  1.00  0.00     0.270 C 
HETATM   29  C   UNL     1      22.527  50.324  48.924  1.00  0.00     0.030 A 
ENDBRANCH   2  19
TORSDOF 6
ENDMDL
MODEL 5
REMARK VINA RESULT:      -7.5      3.941     10.409
REMARK  6 active torsions:
REMARK  status: ('A' for Active; 'I' for Inactive)
REMARK    1  A    between atoms: C_2  and  C_3 
REMARK    2  A    between atoms: C_3  and  O_4 
REMARK    3  A    between atoms: O_4  and  C_5 
REMARK    4  A    between atoms: C_9  and  C_10 
REMARK       I    between atoms: C_10  and  N_11 
REMARK    5  A    between atoms: N_11  and  C_12 
REMARK    6  A    between atoms: C_25  and  O_26 
ROOT
HETATM    1  C   UNL     1      22.126  48.157  48.601  1.00  0.00     0.256 C 
HETATM    2  N   UNL     1      21.138  48.323  49.559  1.00  0.00    -0.323 N 
HETATM    3  O   UNL     1      22.056  48.508  47.428  1.00  0.00    -0.267 OA
HETATM    4  H   UNL     1      21.296  47.902  50.466  1.00  0.00     0.169 HD
ENDROOT
BRANCH   1   5
HETATM    5  C   UNL     1      23.365  47.460  49.054  1.00  0.00     0.036 A 
HETATM    6  C   UNL     1      23.376  46.060  49.047  1.00  0.00     0.044 A 
HETATM    7  C   UNL     1      24.509  45.356  49.471  1.00  0.00     0.071 A 
HETATM    8  C   UNL     1      25.645  46.046  49.921  1.00  0.00     0.123 A 
HETATM    9 CL   UNL     1      24.448  43.634  49.358  1.00  0.00    -0.081 Cl
HETATM   10  C   UNL     1      25.657  47.448  49.835  1.00  0.00     0.104 A 
HETATM   11  C   UNL     1      24.517  48.152  49.433  1.00  0.00     0.056 A 
BRANCH   8  12
HETATM   12  O   UNL     1      26.772  45.423  50.393  1.00  0.00    -0.346 OA
BRANCH  12  13
HETATM   13  C   UNL     1      26.677  45.031  51.770  1.00  0.00     0.179 C 
BRANCH  13  14
HETATM   14  C   UNL     1      27.661  43.895  52.088  1.00  0.00     0.002 C 
HETATM   15  C   UNL     1      27.034  42.523  51.841  1.00  0.00     0.011 C 
HETATM   16  C   UNL     1      28.189  43.986  53.519  1.00  0.00     0.011 C 
ENDBRANCH  13  14
ENDBRANCH  12  13
ENDBRANCH   8  12
BRANCH  10  17
HETATM   17  O   UNL     1      26.726  48.233  50.185  1.00  0.00    -0.353 OA
HETATM   18  C   UNL     1      27.364  48.830  49.054  1.00  0.00     0.210 C 
ENDBRANCH  10  17
ENDBRANCH   1   5
BRANCH   2  19
HETATM   19  C   UNL     1      19.889  48.959  49.389  1.00  0.00     0.035 A 
HETATM   20  C   UNL     1      19.621  50.262  49.817  1.00  0.00     0.039 A 
HETATM   21  C   UNL     1      18.360  50.797  49.597  1.00  0.00    -0.022 A 
HETATM   22  C   UNL     1      17.359  50.061  48.961  1.00  0.00    -0.025 A 
HETATM   23  C   UNL     1      17.876  52.166  49.931  1.00  0.00     0.274 C 
HETATM   24  C   UNL     1      16.121  50.880  48.823  1.00  0.00     0.273 C 
HETATM   25  C   UNL     1      17.601  48.770  48.526  1.00  0.00     0.012 A 
HETATM   26  N   UNL     1      16.371  52.099  49.704  1.00  0.00    -0.067 N 
HETATM   27  H   UNL     1      15.964  51.873  50.620  1.00  0.00     0.280 HD
HETATM   28  C   UNL     1      15.763  53.361  49.210  1.00  0.00     0.270 C 
HETATM   29  C   UNL     1      18.872  48.223  48.747  1.00  0.00     0.030 A 
ENDBRANCH   2  19
TORSDOF 6
ENDMDL
MODEL 6
REMARK VINA RESULT:      -7.4      2.239      3.552
REMARK  6 active torsions:
REMARK  status: ('A' for Active; 'I' for Inactive)
REMARK    1  A    between atoms: C_2  and  C_3 
REMARK    2  A    between atoms: C_3  and  O_4 
REMARK    3  A    between atoms: O_4  and  C_5 
REMARK    4  A    between atoms: C_9  and  C_10 
REMARK       I    between atoms: C_10  and  N_11 
REMARK    5  A    between atoms: N_11  and  C_12 
REMARK    6  A    between atoms: C_25  and  O_26 
ROOT
HETATM    1  C   UNL     1      25.564  47.315  50.893  1.00  0.00     0.256 C 
HETATM    2  N   UNL     1      25.370  46.677  52.108  1.00  0.00    -0.323 N 
HETATM    3  O   UNL     1      26.596  47.868  50.528  1.00  0.00    -0.267 OA
HETATM    4  H   UNL     1      24.436  46.344  52.313  1.00  0.00     0.169 HD
ENDROOT
BRANCH   1   5
HETATM    5  C   UNL     1      24.388  47.345  49.976  1.00  0.00     0.036 A 
HETATM    6  C   UNL     1      23.803  46.127  49.610  1.00  0.00     0.044 A 
HETATM    7  C   UNL     1      22.703  46.098  48.744  1.00  0.00     0.071 A 
HETATM    8  C   UNL     1      22.181  47.291  48.221  1.00  0.00     0.123 A 
HETATM    9 CL   UNL     1      22.012  44.552  48.409  1.00  0.00    -0.081 Cl
HETATM   10  C   UNL     1      22.715  48.510  48.669  1.00  0.00     0.104 A 
HETATM   11  C   UNL     1      23.827  48.539  49.516  1.00  0.00     0.056 A 
BRANCH   8  12
HETATM   12  O   UNL     1      21.137  47.336  47.334  1.00  0.00    -0.346 OA
BRANCH  12  13
HETATM   13  C   UNL     1      19.872  47.618  47.949  1.00  0.00     0.179 C 
BRANCH  13  14
HETATM   14  C   UNL     1      18.883  48.205  46.930  1.00  0.00     0.002 C 
HETATM   15  C   UNL     1      19.085  47.603  45.540  1.00  0.00     0.011 C 
HETATM   16  C   UNL     1      18.974  49.730  46.865  1.00  0.00     0.011 C 
ENDBRANCH  13  14
ENDBRANCH  12  13
ENDBRANCH   8  12
BRANCH  10  17
HETATM   17  O   UNL     1      22.254  49.743  48.280  1.00  0.00    -0.353 OA
HETATM   18  C   UNL     1      23.290  50.727  48.228  1.00  0.00     0.210 C 
ENDBRANCH  10  17
ENDBRANCH   1   5
BRANCH   2  19
HETATM   19  C   UNL     1      26.322  46.501  53.136  1.00  0.00     0.035 A 
HETATM   20  C   UNL     1      27.159  45.386  53.230  1.00  0.00     0.039 A 
HETATM   21  C   UNL     1      28.065  45.312  54.279  1.00  0.00    -0.022 A 
HETATM   22  C   UNL     1      28.155  46.324  55.236  1.00  0.00    -0.025 A 
HETATM   23  C   UNL     1      29.070  44.244  54.545  1.00  0.00     0.274 C 
HETATM   24  C   UNL     1      29.226  46.010  56.223  1.00  0.00     0.273 C 
HETATM   25  C   UNL     1      27.338  47.439  55.162  1.00  0.00     0.012 A 
HETATM   26  N   UNL     1      29.588  44.556  55.944  1.00  0.00    -0.067 N 
HETATM   27  H   UNL     1      29.014  43.994  56.583  1.00  0.00     0.280 HD
HETATM   28  C   UNL     1      31.018  44.217  56.163  1.00  0.00     0.270 C 
HETATM   29  C   UNL     1      26.419  47.519  54.107  1.00  0.00     0.030 A 
ENDBRANCH   2  19
TORSDOF 6
ENDMDL
MODEL 7
REMARK VINA RESULT:      -7.2     17.606     19.971
REMARK  6 active torsions:
REMARK  status: ('A' for Active; 'I' for Inactive)
REMARK    1  A    between atoms: C_2  and  C_3 
REMARK    2  A    between atoms: C_3  and  O_4 
REMARK    3  A    between atoms: O_4  and  C_5 
REMARK    4  A    between atoms: C_9  and  C_10 
REMARK       I    between atoms: C_10  and  N_11 
REMARK    5  A    between atoms: N_11  and  C_12 
REMARK    6  A    between atoms: C_25  and  O_26 
ROOT
HETATM    1  C   UNL     1      39.269  39.902  64.033  1.00  0.00     0.256 C 
HETATM    2  N   UNL     1      39.911  39.496  65.192  1.00  0.00    -0.323 N 
HETATM    3  O   UNL     1      39.337  39.347  62.941  1.00  0.00    -0.267 OA
HETATM    4  H   UNL     1      39.838  40.102  65.999  1.00  0.00     0.169 HD
ENDROOT
BRANCH   1   5
HETATM    5  C   UNL     1      38.452  41.146  64.139  1.00  0.00     0.036 A 
HETATM    6  C   UNL     1      38.770  42.220  63.300  1.00  0.00     0.044 A 
HETATM    7  C   UNL     1      38.042  43.414  63.367  1.00  0.00     0.071 A 
HETATM    8  C   UNL     1      36.990  43.552  64.285  1.00  0.00     0.123 A 
HETATM    9 CL   UNL     1      38.467  44.653  62.242  1.00  0.00    -0.081 Cl
HETATM   10  C   UNL     1      36.620  42.438  65.055  1.00  0.00     0.104 A 
HETATM   11  C   UNL     1      37.361  41.253  65.005  1.00  0.00     0.056 A 
BRANCH   8  12
HETATM   12  O   UNL     1      36.264  44.706  64.437  1.00  0.00    -0.346 OA
BRANCH  12  13
HETATM   13  C   UNL     1      36.943  45.715  65.197  1.00  0.00     0.179 C 
BRANCH  13  14
HETATM   14  C   UNL     1      36.185  47.051  65.140  1.00  0.00     0.002 C 
HETATM   15  C   UNL     1      36.970  48.110  64.367  1.00  0.00     0.011 C 
HETATM   16  C   UNL     1      35.837  47.565  66.537  1.00  0.00     0.011 C 
ENDBRANCH  13  14
ENDBRANCH  12  13
ENDBRANCH   8  12
BRANCH  10  17
HETATM   17  O   UNL     1      35.573  42.427  65.943  1.00  0.00    -0.353 OA
HETATM   18  C   UNL     1      34.461  41.661  65.473  1.00  0.00     0.210 C 
ENDBRANCH  10  17
ENDBRANCH   1   5
BRANCH   2  19
HETATM   19  C   UNL     1      40.724  38.353  65.356  1.00  0.00     0.035 A 
HETATM   20  C   UNL     1      41.973  38.201  64.750  1.00  0.00     0.039 A 
HETATM   21  C   UNL     1      42.696  37.039  64.982  1.00  0.00    -0.022 A 
HETATM   22  C   UNL     1      42.200  36.025  65.803  1.00  0.00    -0.025 A 
HETATM   23  C   UNL     1      44.053  36.690  64.475  1.00  0.00     0.274 C 
HETATM   24  C   UNL     1      43.186  34.912  65.906  1.00  0.00     0.273 C 
HETATM   25  C   UNL     1      40.966  36.154  66.416  1.00  0.00     0.012 A 
HETATM   26  N   UNL     1      44.218  35.216  64.827  1.00  0.00    -0.067 N 
HETATM   27  H   UNL     1      43.916  34.698  63.993  1.00  0.00     0.280 HD
HETATM   28  C   UNL     1      45.608  34.813  65.161  1.00  0.00     0.270 C 
HETATM   29  C   UNL     1      40.230  37.324  66.185  1.00  0.00     0.030 A 
ENDBRANCH   2  19
TORSDOF 6
ENDMDL
MODEL 8
REMARK VINA RESULT:      -7.2     18.646     20.721
REMARK  6 active torsions:
REMARK  status: ('A' for Active; 'I' for Inactive)
REMARK    1  A    between atoms: C_2  and  C_3 
REMARK    2  A    between atoms: C_3  and  O_4 
REMARK    3  A    between atoms: O_4  and  C_5 
REMARK    4  A    between atoms: C_9  and  C_10 
REMARK       I    between atoms: C_10  and  N_11 
REMARK    5  A    between atoms: N_11  and  C_12 
REMARK    6  A    between atoms: C_25  and  O_26 
ROOT
HETATM    1  C   UNL     1      39.658  48.147  65.900  1.00  0.00     0.256 C 
HETATM    2  N   UNL     1      38.396  48.720  65.927  1.00  0.00    -0.323 N 
HETATM    3  O   UNL     1      40.658  48.586  66.457  1.00  0.00    -0.267 OA
HETATM    4  H   UNL     1      37.683  48.297  65.345  1.00  0.00     0.169 HD
ENDROOT
BRANCH   1   5
HETATM    5  C   UNL     1      39.794  46.901  65.090  1.00  0.00     0.036 A 
HETATM    6  C   UNL     1      38.626  46.240  64.692  1.00  0.00     0.044 A 
HETATM    7  C   UNL     1      38.698  45.063  63.939  1.00  0.00     0.071 A 
HETATM    8  C   UNL     1      39.943  44.523  63.584  1.00  0.00     0.123 A 
HETATM    9 CL   UNL     1      37.200  44.362  63.439  1.00  0.00    -0.081 Cl
HETATM   10  C   UNL     1      41.104  45.243  63.908  1.00  0.00     0.104 A 
HETATM   11  C   UNL     1      41.034  46.408  64.679  1.00  0.00     0.056 A 
BRANCH   8  12
HETATM   12  O   UNL     1      40.089  43.350  62.888  1.00  0.00    -0.346 OA
BRANCH  12  13
HETATM   13  C   UNL     1      40.163  42.189  63.728  1.00  0.00     0.179 C 
BRANCH  13  14
HETATM   14  C   UNL     1      39.000  41.226  63.440  1.00  0.00     0.002 C 
HETATM   15  C   UNL     1      38.142  40.993  64.683  1.00  0.00     0.011 C 
HETATM   16  C   UNL     1      39.495  39.892  62.880  1.00  0.00     0.011 C 
ENDBRANCH  13  14
ENDBRANCH  12  13
ENDBRANCH   8  12
BRANCH  10  17
HETATM   17  O   UNL     1      42.374  44.853  63.565  1.00  0.00    -0.353 OA
HETATM   18  C   UNL     1      43.367  45.802  63.962  1.00  0.00     0.210 C 
ENDBRANCH  10  17
ENDBRANCH   1   5
BRANCH   2  19
HETATM   19  C   UNL     1      38.006  49.882  66.626  1.00  0.00     0.035 A 
HETATM   20  C   UNL     1      38.168  51.176  66.125  1.00  0.00     0.039 A 
HETATM   21  C   UNL     1      37.745  52.253  66.893  1.00  0.00    -0.022 A 
HETATM   22  C   UNL     1      37.166  52.067  68.149  1.00  0.00    -0.025 A 
HETATM   23  C   UNL     1      37.783  53.699  66.538  1.00  0.00     0.274 C 
HETATM   24  C   UNL     1      36.775  53.379  68.738  1.00  0.00     0.273 C 
HETATM   25  C   UNL     1      36.993  50.795  68.666  1.00  0.00     0.012 A 
HETATM   26  N   UNL     1      37.441  54.414  67.839  1.00  0.00    -0.067 N 
HETATM   27  H   UNL     1      38.343  54.632  68.280  1.00  0.00     0.280 HD
HETATM   28  C   UNL     1      36.676  55.676  67.668  1.00  0.00     0.270 C 
HETATM   29  C   UNL     1      37.420  49.704  67.897  1.00  0.00     0.030 A 
ENDBRANCH   2  19
TORSDOF 6
ENDMDL
MODEL 9
REMARK VINA RESULT:      -7.2     18.035     20.414
REMARK  6 active torsions:
REMARK  status: ('A' for Active; 'I' for Inactive)
REMARK    1  A    between atoms: C_2  and  C_3 
REMARK    2  A    between atoms: C_3  and  O_4 
REMARK    3  A    between atoms: O_4  and  C_5 
REMARK    4  A    between atoms: C_9  and  C_10 
REMARK       I    between atoms: C_10  and  N_11 
REMARK    5  A    between atoms: N_11  and  C_12 
REMARK    6  A    between atoms: C_25  and  O_26 
ROOT
HETATM    1  C   UNL     1      39.383  48.300  65.790  1.00  0.00     0.256 C 
HETATM    2  N   UNL     1      38.123  48.850  65.966  1.00  0.00    -0.323 N 
HETATM    3  O   UNL     1      40.439  48.784  66.182  1.00  0.00    -0.267 OA
HETATM    4  H   UNL     1      37.347  48.387  65.509  1.00  0.00     0.169 HD
ENDROOT
BRANCH   1   5
HETATM    5  C   UNL     1      39.436  47.020  65.026  1.00  0.00     0.036 A 
HETATM    6  C   UNL     1      40.691  46.519  64.661  1.00  0.00     0.044 A 
HETATM    7  C   UNL     1      40.798  45.328  63.935  1.00  0.00     0.071 A 
HETATM    8  C   UNL     1      39.645  44.625  63.552  1.00  0.00     0.123 A 
HETATM    9 CL   UNL     1      42.392  44.759  63.594  1.00  0.00    -0.081 Cl
HETATM   10  C   UNL     1      38.398  45.086  64.004  1.00  0.00     0.104 A 
HETATM   11  C   UNL     1      38.289  46.288  64.710  1.00  0.00     0.056 A 
BRANCH   8  12
HETATM   12  O   UNL     1      39.671  43.478  62.802  1.00  0.00    -0.346 OA
BRANCH  12  13
HETATM   13  C   UNL     1      39.981  42.302  63.563  1.00  0.00     0.179 C 
BRANCH  13  14
HETATM   14  C   UNL     1      38.903  41.223  63.373  1.00  0.00     0.002 C 
HETATM   15  C   UNL     1      38.151  40.944  64.674  1.00  0.00     0.011 C 
HETATM   16  C   UNL     1      39.490  39.927  62.813  1.00  0.00     0.011 C 
ENDBRANCH  13  14
ENDBRANCH  12  13
ENDBRANCH   8  12
BRANCH  10  17
HETATM   17  O   UNL     1      37.205  44.457  63.750  1.00  0.00    -0.353 OA
HETATM   18  C   UNL     1      36.443  44.221  64.937  1.00  0.00     0.210 C 
ENDBRANCH  10  17
ENDBRANCH   1   5
BRANCH   2  19
HETATM   19  C   UNL     1      37.804  50.037  66.660  1.00  0.00     0.035 A 
HETATM   20  C   UNL     1      38.006  51.317  66.136  1.00  0.00     0.039 A 
HETATM   21  C   UNL     1      37.653  52.420  66.900  1.00  0.00    -0.022 A 
HETATM   22  C   UNL     1      37.104  52.277  68.175  1.00  0.00    -0.025 A 
HETATM   23  C   UNL     1      37.742  53.859  66.523  1.00  0.00     0.274 C 
HETATM   24  C   UNL     1      36.788  53.612  68.757  1.00  0.00     0.273 C 
HETATM   25  C   UNL     1      36.893  51.020  68.715  1.00  0.00     0.012 A 
HETATM   26  N   UNL     1      37.471  54.606  67.824  1.00  0.00    -0.067 N 
HETATM   27  H   UNL     1      38.394  54.790  68.234  1.00  0.00     0.280 HD
HETATM   28  C   UNL     1      36.756  55.897  67.657  1.00  0.00     0.270 C 
HETATM   29  C   UNL     1      37.249  49.901  67.950  1.00  0.00     0.030 A 
ENDBRANCH   2  19
TORSDOF 6
ENDMDL
MODEL 10
REMARK VINA RESULT:      -7.0     13.964     14.698
REMARK  6 active torsions:
REMARK  status: ('A' for Active; 'I' for Inactive)
REMARK    1  A    between atoms: C_2  and  C_3 
REMARK    2  A    between atoms: C_3  and  O_4 
REMARK    3  A    between atoms: O_4  and  C_5 
REMARK    4  A    between atoms: C_9  and  C_10 
REMARK       I    between atoms: C_10  and  N_11 
REMARK    5  A    between atoms: N_11  and  C_12 
REMARK    6  A    between atoms: C_25  and  O_26 
ROOT
HETATM    1  C   UNL     1      35.128  51.057  42.450  1.00  0.00     0.256 C 
HETATM    2  N   UNL     1      35.330  52.306  43.016  1.00  0.00    -0.323 N 
HETATM    3  O   UNL     1      35.989  50.204  42.266  1.00  0.00    -0.267 OA
HETATM    4  H   UNL     1      34.544  52.945  43.022  1.00  0.00     0.169 HD
ENDROOT
BRANCH   1   5
HETATM    5  C   UNL     1      33.736  50.759  42.003  1.00  0.00     0.036 A 
HETATM    6  C   UNL     1      33.463  49.483  41.497  1.00  0.00     0.044 A 
HETATM    7  C   UNL     1      32.176  49.154  41.055  1.00  0.00     0.071 A 
HETATM    8  C   UNL     1      31.146  50.105  41.103  1.00  0.00     0.123 A 
HETATM    9 CL   UNL     1      31.925  47.533  40.514  1.00  0.00    -0.081 Cl
HETATM   10  C   UNL     1      31.408  51.349  41.698  1.00  0.00     0.104 A 
HETATM   11  C   UNL     1      32.698  51.686  42.119  1.00  0.00     0.056 A 
BRANCH   8  12
HETATM   12  O   UNL     1      29.875  49.868  40.645  1.00  0.00    -0.346 OA
BRANCH  12  13
HETATM   13  C   UNL     1      29.684  50.226  39.269  1.00  0.00     0.179 C 
BRANCH  13  14
HETATM   14  C   UNL     1      28.330  50.925  39.065  1.00  0.00     0.002 C 
HETATM   15  C   UNL     1      28.495  52.277  38.373  1.00  0.00     0.011 C 
HETATM   16  C   UNL     1      27.574  51.092  40.383  1.00  0.00     0.011 C 
ENDBRANCH  13  14
ENDBRANCH  12  13
ENDBRANCH   8  12
BRANCH  10  17
HETATM   17  O   UNL     1      30.471  52.340  41.859  1.00  0.00    -0.353 OA
HETATM   18  C   UNL     1      30.775  53.513  41.099  1.00  0.00     0.210 C 
ENDBRANCH  10  17
ENDBRANCH   1   5
BRANCH   2  19
HETATM   19  C   UNL     1      36.540  52.820  43.528  1.00  0.00     0.035 A 
HETATM   20  C   UNL     1      36.945  52.665  44.857  1.00  0.00     0.039 A 
HETATM   21  C   UNL     1      38.159  53.206  45.258  1.00  0.00    -0.022 A 
HETATM   22  C   UNL     1      38.976  53.900  44.365  1.00  0.00    -0.025 A 
HETATM   23  C   UNL     1      38.797  53.124  46.602  1.00  0.00     0.274 C 
HETATM   24  C   UNL     1      40.227  54.343  45.044  1.00  0.00     0.273 C 
HETATM   25  C   UNL     1      38.598  54.066  43.044  1.00  0.00     0.012 A 
HETATM   26  N   UNL     1      39.962  54.103  46.526  1.00  0.00    -0.067 N 
HETATM   27  H   UNL     1      39.601  54.991  46.895  1.00  0.00     0.280 HD
HETATM   28  C   UNL     1      41.155  53.707  47.317  1.00  0.00     0.270 C 
HETATM   29  C   UNL     1      37.373  53.523  42.632  1.00  0.00     0.030 A 
ENDBRANCH   2  19
TORSDOF 6
ENDMDL
