MODEL 1
REMARK VINA RESULT:      -7.9      0.000      0.000
REMARK  7 active torsions:
REMARK  status: ('A' for Active; 'I' for Inactive)
REMARK    1  A    between atoms: C_2  and  C_3 
REMARK    2  A    between atoms: C_3  and  N_4 
REMARK    3  A    between atoms: C_7  and  C_8 
REMARK    4  A    between atoms: C_8  and  N_9 
REMARK       I    between atoms: N_9  and  C_10 
REMARK       I    between atoms: C_10  and  N_11 
REMARK    5  A    between atoms: N_11  and  C_12 
REMARK    6  A    between atoms: C_16  and  N_17 
REMARK       I    between atoms: N_17  and  C_18 
REMARK    7  A    between atoms: C_18  and  C_19 
ROOT
HETATM    1  C   UNL     1      32.095  49.196  42.091  1.00  0.00     0.036 A 
HETATM    2  C   UNL     1      31.933  50.097  43.145  1.00  0.00     0.038 A 
HETATM    3  C   UNL     1      32.930  51.048  43.451  1.00  0.00    -0.033 A 
HETATM    4  C   UNL     1      32.694  51.987  44.606  1.00  0.00     0.050 C 
HETATM    5  C   UNL     1      34.097  51.109  42.663  1.00  0.00     0.041 A 
HETATM    6  C   UNL     1      34.277  50.153  41.659  1.00  0.00     0.032 A 
HETATM    7  C   UNL     1      33.298  49.193  41.389  1.00  0.00     0.032 A 
ENDROOT
BRANCH   1   8
HETATM    8  N   UNL     1      31.123  48.257  41.708  1.00  0.00    -0.309 N 
HETATM    9  C   UNL     1      29.983  48.382  40.973  1.00  0.00     0.320 C 
HETATM   10  N   UNL     1      29.811  49.550  40.285  1.00  0.00    -0.342 N 
HETATM   11  O   UNL     1      29.185  47.451  40.912  1.00  0.00    -0.247 OA
HETATM   12  H   UNL     1      30.694  50.028  40.144  1.00  0.00     0.164 HD
HETATM   13  H   UNL     1      31.320  47.286  41.932  1.00  0.00     0.170 HD
BRANCH  10  14
HETATM   14  C   UNL     1      28.877  49.728  39.186  1.00  0.00     0.130 C 
BRANCH  14  15
HETATM   15  C   UNL     1      27.773  50.788  39.330  1.00  0.00     0.031 C 
HETATM   16  C   UNL     1      27.754  51.494  40.678  1.00  0.00     0.241 C 
HETATM   17  N   UNL     1      28.620  52.739  40.502  1.00  0.00    -0.071 N 
HETATM   18  H   UNL     1      28.020  53.538  40.751  1.00  0.00     0.279 HD
HETATM   19  C   UNL     1      28.952  52.855  39.031  1.00  0.00     0.235 C 
HETATM   20  C   UNL     1      27.955  51.942  38.348  1.00  0.00     0.035 C 
BRANCH  17  21
HETATM   21  C   UNL     1      29.805  52.764  41.430  1.00  0.00     0.234 C 
BRANCH  21  22
HETATM   22  C   UNL     1      30.921  53.623  40.847  1.00  0.00     0.023 C 
HETATM   23  C   UNL     1      32.010  52.755  40.236  1.00  0.00     0.007 C 
ENDBRANCH  21  22
ENDBRANCH  17  21
ENDBRANCH  14  15
ENDBRANCH  10  14
ENDBRANCH   1   8
BRANCH   5  24
HETATM   24  N   UNL     1      35.035  52.134  42.905  1.00  0.00    -0.321 N 
HETATM   25  C   UNL     1      36.394  52.012  43.150  1.00  0.00     0.279 C 
HETATM   26  O   UNL     1      37.009  50.955  43.243  1.00  0.00    -0.265 OA
HETATM   27  H   UNL     1      34.729  53.095  42.799  1.00  0.00     0.169 HD
BRANCH  25  28
HETATM   28  C   UNL     1      37.060  53.299  43.252  1.00  0.00     0.142 A 
HETATM   29  O   UNL     1      36.984  54.183  42.202  1.00  0.00    -0.317 OA
HETATM   30  C   UNL     1      37.693  55.287  42.561  1.00  0.00     0.143 A 
HETATM   31  C   UNL     1      38.236  55.127  43.814  1.00  0.00     0.027 A 
HETATM   32  C   UNL     1      37.826  53.848  44.261  1.00  0.00     0.045 A 
ENDBRANCH  25  28
ENDBRANCH   5  24
TORSDOF 7
ENDMDL
MODEL 2
REMARK VINA RESULT:      -7.7     12.250     16.140
REMARK  7 active torsions:
REMARK  status: ('A' for Active; 'I' for Inactive)
REMARK    1  A    between atoms: C_2  and  C_3 
REMARK    2  A    between atoms: C_3  and  N_4 
REMARK    3  A    between atoms: C_7  and  C_8 
REMARK    4  A    between atoms: C_8  and  N_9 
REMARK       I    between atoms: N_9  and  C_10 
REMARK       I    between atoms: C_10  and  N_11 
REMARK    5  A    between atoms: N_11  and  C_12 
REMARK    6  A    between atoms: C_16  and  N_17 
REMARK       I    between atoms: N_17  and  C_18 
REMARK    7  A    between atoms: C_18  and  C_19 
ROOT
HETATM    1  C   UNL     1      23.718  49.041  48.928  1.00  0.00     0.036 A 
HETATM    2  C   UNL     1      22.666  48.141  48.748  1.00  0.00     0.038 A 
HETATM    3  C   UNL     1      21.322  48.568  48.815  1.00  0.00    -0.033 A 
HETATM    4  C   UNL     1      20.234  47.544  48.618  1.00  0.00     0.050 C 
HETATM    5  C   UNL     1      21.036  49.930  49.039  1.00  0.00     0.041 A 
HETATM    6  C   UNL     1      22.099  50.804  49.291  1.00  0.00     0.032 A 
HETATM    7  C   UNL     1      23.424  50.361  49.258  1.00  0.00     0.032 A 
ENDROOT
BRANCH   1   8
HETATM    8  N   UNL     1      25.075  48.688  48.829  1.00  0.00    -0.309 N 
HETATM    9  C   UNL     1      25.937  48.143  49.731  1.00  0.00     0.320 C 
HETATM   10  N   UNL     1      25.397  47.631  50.877  1.00  0.00    -0.342 N 
HETATM   11  O   UNL     1      27.137  48.083  49.477  1.00  0.00    -0.247 OA
HETATM   12  H   UNL     1      24.411  47.425  50.760  1.00  0.00     0.164 HD
HETATM   13  H   UNL     1      25.494  48.765  47.907  1.00  0.00     0.170 HD
BRANCH  10  14
HETATM   14  C   UNL     1      26.079  46.705  51.765  1.00  0.00     0.130 C 
BRANCH  14  15
HETATM   15  C   UNL     1      25.574  46.572  53.211  1.00  0.00     0.031 C 
HETATM   16  C   UNL     1      25.705  45.172  53.794  1.00  0.00     0.241 C 
HETATM   17  N   UNL     1      27.058  45.147  54.501  1.00  0.00    -0.071 N 
HETATM   18  H   UNL     1      26.863  44.885  55.476  1.00  0.00     0.279 HD
HETATM   19  C   UNL     1      27.594  46.562  54.503  1.00  0.00     0.235 C 
HETATM   20  C   UNL     1      26.387  47.420  54.183  1.00  0.00     0.035 C 
BRANCH  17  21
HETATM   21  C   UNL     1      27.993  44.109  53.937  1.00  0.00     0.234 C 
BRANCH  21  22
HETATM   22  C   UNL     1      29.283  44.059  54.746  1.00  0.00     0.023 C 
HETATM   23  C   UNL     1      30.275  43.090  54.123  1.00  0.00     0.007 C 
ENDBRANCH  21  22
ENDBRANCH  17  21
ENDBRANCH  14  15
ENDBRANCH  10  14
ENDBRANCH   1   8
BRANCH   5  24
HETATM   24  N   UNL     1      19.696  50.367  48.993  1.00  0.00    -0.321 N 
HETATM   25  C   UNL     1      18.734  50.289  49.988  1.00  0.00     0.279 C 
HETATM   26  O   UNL     1      18.889  49.772  51.089  1.00  0.00    -0.265 OA
HETATM   27  H   UNL     1      19.394  50.891  48.179  1.00  0.00     0.169 HD
BRANCH  25  28
HETATM   28  C   UNL     1      17.490  50.938  49.612  1.00  0.00     0.142 A 
HETATM   29  O   UNL     1      17.070  52.047  50.306  1.00  0.00    -0.317 OA
HETATM   30  C   UNL     1      15.891  52.439  49.753  1.00  0.00     0.143 A 
HETATM   31  C   UNL     1      15.534  51.597  48.727  1.00  0.00     0.027 A 
HETATM   32  C   UNL     1      16.565  50.631  48.633  1.00  0.00     0.045 A 
ENDBRANCH  25  28
ENDBRANCH   5  24
TORSDOF 7
ENDMDL
MODEL 3
REMARK VINA RESULT:      -7.7     12.321     13.603
REMARK  7 active torsions:
REMARK  status: ('A' for Active; 'I' for Inactive)
REMARK    1  A    between atoms: C_2  and  C_3 
REMARK    2  A    between atoms: C_3  and  N_4 
REMARK    3  A    between atoms: C_7  and  C_8 
REMARK    4  A    between atoms: C_8  and  N_9 
REMARK       I    between atoms: N_9  and  C_10 
REMARK       I    between atoms: C_10  and  N_11 
REMARK    5  A    between atoms: N_11  and  C_12 
REMARK    6  A    between atoms: C_16  and  N_17 
REMARK       I    between atoms: N_17  and  C_18 
REMARK    7  A    between atoms: C_18  and  C_19 
ROOT
HETATM    1  C   UNL     1      25.078  44.630  49.938  1.00  0.00     0.036 A 
HETATM    2  C   UNL     1      24.647  44.619  51.266  1.00  0.00     0.038 A 
HETATM    3  C   UNL     1      25.569  44.540  52.332  1.00  0.00    -0.033 A 
HETATM    4  C   UNL     1      25.037  44.525  53.741  1.00  0.00     0.050 C 
HETATM    5  C   UNL     1      26.951  44.500  52.052  1.00  0.00     0.041 A 
HETATM    6  C   UNL     1      27.363  44.438  50.718  1.00  0.00     0.032 A 
HETATM    7  C   UNL     1      26.437  44.480  49.672  1.00  0.00     0.032 A 
ENDROOT
BRANCH   1   8
HETATM    8  N   UNL     1      24.215  44.752  48.836  1.00  0.00    -0.309 N 
HETATM    9  C   UNL     1      23.176  45.596  48.590  1.00  0.00     0.320 C 
HETATM   10  N   UNL     1      23.032  46.668  49.424  1.00  0.00    -0.342 N 
HETATM   11  O   UNL     1      22.442  45.404  47.623  1.00  0.00    -0.247 OA
HETATM   12  H   UNL     1      23.900  46.878  49.906  1.00  0.00     0.164 HD
HETATM   13  H   UNL     1      24.433  44.179  48.027  1.00  0.00     0.170 HD
BRANCH  10  14
HETATM   14  C   UNL     1      22.240  47.848  49.120  1.00  0.00     0.130 C 
BRANCH  14  15
HETATM   15  C   UNL     1      22.787  48.851  48.092  1.00  0.00     0.031 C 
HETATM   16  C   UNL     1      21.756  49.844  47.577  1.00  0.00     0.241 C 
HETATM   17  N   UNL     1      21.866  51.062  48.492  1.00  0.00    -0.071 N 
HETATM   18  H   UNL     1      22.063  51.862  47.875  1.00  0.00     0.279 HD
HETATM   19  C   UNL     1      23.076  50.855  49.376  1.00  0.00     0.235 C 
HETATM   20  C   UNL     1      23.860  49.757  48.689  1.00  0.00     0.035 C 
BRANCH  17  21
HETATM   21  C   UNL     1      20.584  51.364  49.221  1.00  0.00     0.234 C 
BRANCH  21  22
HETATM   22  C   UNL     1      19.509  51.820  48.242  1.00  0.00     0.023 C 
HETATM   23  C   UNL     1      18.377  52.527  48.972  1.00  0.00     0.007 C 
ENDBRANCH  21  22
ENDBRANCH  17  21
ENDBRANCH  14  15
ENDBRANCH  10  14
ENDBRANCH   1   8
BRANCH   5  24
HETATM   24  N   UNL     1      27.868  44.535  53.123  1.00  0.00    -0.321 N 
HETATM   25  C   UNL     1      28.458  43.468  53.782  1.00  0.00     0.279 C 
HETATM   26  O   UNL     1      28.235  42.282  53.559  1.00  0.00    -0.265 OA
HETATM   27  H   UNL     1      28.234  45.437  53.408  1.00  0.00     0.169 HD
BRANCH  25  28
HETATM   28  C   UNL     1      29.434  43.893  54.770  1.00  0.00     0.142 A 
HETATM   29  O   UNL     1      29.297  45.121  55.370  1.00  0.00    -0.317 OA
HETATM   30  C   UNL     1      30.337  45.260  56.234  1.00  0.00     0.143 A 
HETATM   31  C   UNL     1      31.150  44.153  56.195  1.00  0.00     0.027 A 
HETATM   32  C   UNL     1      30.568  43.270  55.254  1.00  0.00     0.045 A 
ENDBRANCH  25  28
ENDBRANCH   5  24
TORSDOF 7
ENDMDL
MODEL 4
REMARK VINA RESULT:      -7.7     12.817     14.359
REMARK  7 active torsions:
REMARK  status: ('A' for Active; 'I' for Inactive)
REMARK    1  A    between atoms: C_2  and  C_3 
REMARK    2  A    between atoms: C_3  and  N_4 
REMARK    3  A    between atoms: C_7  and  C_8 
REMARK    4  A    between atoms: C_8  and  N_9 
REMARK       I    between atoms: N_9  and  C_10 
REMARK       I    between atoms: C_10  and  N_11 
REMARK    5  A    between atoms: N_11  and  C_12 
REMARK    6  A    between atoms: C_16  and  N_17 
REMARK       I    between atoms: N_17  and  C_18 
REMARK    7  A    between atoms: C_18  and  C_19 
ROOT
HETATM    1  C   UNL     1      23.431  45.282  49.411  1.00  0.00     0.036 A 
HETATM    2  C   UNL     1      24.296  46.345  49.676  1.00  0.00     0.038 A 
HETATM    3  C   UNL     1      25.290  46.245  50.672  1.00  0.00    -0.033 A 
HETATM    4  C   UNL     1      26.186  47.433  50.913  1.00  0.00     0.050 C 
HETATM    5  C   UNL     1      25.433  45.041  51.393  1.00  0.00     0.041 A 
HETATM    6  C   UNL     1      24.513  44.013  51.166  1.00  0.00     0.032 A 
HETATM    7  C   UNL     1      23.510  44.138  50.202  1.00  0.00     0.032 A 
ENDROOT
BRANCH   1   8
HETATM    8  N   UNL     1      22.451  45.302  48.403  1.00  0.00    -0.309 N 
HETATM    9  C   UNL     1      21.296  46.011  48.279  1.00  0.00     0.320 C 
HETATM   10  N   UNL     1      21.107  47.052  49.144  1.00  0.00    -0.342 N 
HETATM   11  O   UNL     1      20.497  45.735  47.388  1.00  0.00    -0.247 OA
HETATM   12  H   UNL     1      21.986  47.365  49.539  1.00  0.00     0.164 HD
HETATM   13  H   UNL     1      22.654  44.765  47.566  1.00  0.00     0.170 HD
BRANCH  10  14
HETATM   14  C   UNL     1      20.148  48.125  48.943  1.00  0.00     0.130 C 
BRANCH  14  15
HETATM   15  C   UNL     1      18.896  48.163  49.834  1.00  0.00     0.031 C 
HETATM   16  C   UNL     1      18.861  49.326  50.815  1.00  0.00     0.241 C 
HETATM   17  N   UNL     1      18.112  50.446  50.097  1.00  0.00    -0.071 N 
HETATM   18  H   UNL     1      17.319  50.691  50.705  1.00  0.00     0.279 HD
HETATM   19  C   UNL     1      17.548  49.867  48.819  1.00  0.00     0.235 C 
HETATM   20  C   UNL     1      17.621  48.368  49.022  1.00  0.00     0.035 C 
BRANCH  17  21
HETATM   21  C   UNL     1      18.945  51.689  49.925  1.00  0.00     0.234 C 
BRANCH  21  22
HETATM   22  C   UNL     1      19.475  51.782  48.499  1.00  0.00     0.023 C 
HETATM   23  C   UNL     1      20.960  51.459  48.452  1.00  0.00     0.007 C 
ENDBRANCH  21  22
ENDBRANCH  17  21
ENDBRANCH  14  15
ENDBRANCH  10  14
ENDBRANCH   1   8
BRANCH   5  24
HETATM   24  N   UNL     1      26.500  44.911  52.306  1.00  0.00    -0.321 N 
HETATM   25  C   UNL     1      26.457  44.973  53.690  1.00  0.00     0.279 C 
HETATM   26  O   UNL     1      25.456  45.203  54.361  1.00  0.00    -0.265 OA
HETATM   27  H   UNL     1      27.408  44.644  51.942  1.00  0.00     0.169 HD
BRANCH  25  28
HETATM   28  C   UNL     1      27.744  44.690  54.302  1.00  0.00     0.142 A 
HETATM   29  O   UNL     1      28.310  45.616  55.144  1.00  0.00    -0.317 OA
HETATM   30  C   UNL     1      29.496  45.101  55.561  1.00  0.00     0.143 A 
HETATM   31  C   UNL     1      29.714  43.868  54.994  1.00  0.00     0.027 A 
HETATM   32  C   UNL     1      28.584  43.601  54.185  1.00  0.00     0.045 A 
ENDBRANCH  25  28
ENDBRANCH   5  24
TORSDOF 7
ENDMDL
MODEL 5
REMARK VINA RESULT:      -7.5      1.733      2.726
REMARK  7 active torsions:
REMARK  status: ('A' for Active; 'I' for Inactive)
REMARK    1  A    between atoms: C_2  and  C_3 
REMARK    2  A    between atoms: C_3  and  N_4 
REMARK    3  A    between atoms: C_7  and  C_8 
REMARK    4  A    between atoms: C_8  and  N_9 
REMARK       I    between atoms: N_9  and  C_10 
REMARK       I    between atoms: C_10  and  N_11 
REMARK    5  A    between atoms: N_11  and  C_12 
REMARK    6  A    between atoms: C_16  and  N_17 
REMARK       I    between atoms: N_17  and  C_18 
REMARK    7  A    between atoms: C_18  and  C_19 
ROOT
HETATM    1  C   UNL     1      33.492  50.054  41.122  1.00  0.00     0.036 A 
HETATM    2  C   UNL     1      32.953  50.705  42.234  1.00  0.00     0.038 A 
HETATM    3  C   UNL     1      33.786  51.287  43.212  1.00  0.00    -0.033 A 
HETATM    4  C   UNL     1      33.141  51.968  44.391  1.00  0.00     0.050 C 
HETATM    5  C   UNL     1      35.186  51.237  43.051  1.00  0.00     0.041 A 
HETATM    6  C   UNL     1      35.711  50.519  41.972  1.00  0.00     0.032 A 
HETATM    7  C   UNL     1      34.874  49.915  41.030  1.00  0.00     0.032 A 
ENDROOT
BRANCH   1   8
HETATM    8  N   UNL     1      32.717  49.494  40.092  1.00  0.00    -0.309 N 
HETATM    9  C   UNL     1      31.617  49.953  39.435  1.00  0.00     0.320 C 
HETATM   10  N   UNL     1      31.288  51.267  39.614  1.00  0.00    -0.342 N 
HETATM   11  O   UNL     1      30.994  49.209  38.682  1.00  0.00    -0.247 OA
HETATM   12  H   UNL     1      32.083  51.804  39.941  1.00  0.00     0.164 HD
HETATM   13  H   UNL     1      33.065  48.630  39.686  1.00  0.00     0.170 HD
BRANCH  10  14
HETATM   14  C   UNL     1      30.401  52.019  38.742  1.00  0.00     0.130 C 
BRANCH  14  15
HETATM   15  C   UNL     1      29.352  52.940  39.386  1.00  0.00     0.031 C 
HETATM   16  C   UNL     1      28.026  52.259  39.695  1.00  0.00     0.241 C 
HETATM   17  N   UNL     1      28.146  51.761  41.134  1.00  0.00    -0.071 N 
HETATM   18  H   UNL     1      27.362  52.185  41.646  1.00  0.00     0.279 HD
HETATM   19  C   UNL     1      29.428  52.328  41.704  1.00  0.00     0.235 C 
HETATM   20  C   UNL     1      29.797  53.448  40.754  1.00  0.00     0.035 C 
BRANCH  17  21
HETATM   21  C   UNL     1      28.000  50.266  41.249  1.00  0.00     0.234 C 
BRANCH  21  22
HETATM   22  C   UNL     1      29.179  49.673  42.011  1.00  0.00     0.023 C 
HETATM   23  C   UNL     1      29.362  48.203  41.667  1.00  0.00     0.007 C 
ENDBRANCH  21  22
ENDBRANCH  17  21
ENDBRANCH  14  15
ENDBRANCH  10  14
ENDBRANCH   1   8
BRANCH   5  24
HETATM   24  N   UNL     1      36.008  51.918  43.974  1.00  0.00    -0.321 N 
HETATM   25  C   UNL     1      36.692  53.111  43.796  1.00  0.00     0.279 C 
HETATM   26  O   UNL     1      36.727  53.763  42.758  1.00  0.00    -0.265 OA
HETATM   27  H   UNL     1      36.048  51.568  44.924  1.00  0.00     0.169 HD
BRANCH  25  28
HETATM   28  C   UNL     1      37.355  53.560  45.008  1.00  0.00     0.142 A 
HETATM   29  O   UNL     1      37.806  52.631  45.915  1.00  0.00    -0.317 OA
HETATM   30  C   UNL     1      38.371  53.320  46.941  1.00  0.00     0.143 A 
HETATM   31  C   UNL     1      38.282  54.674  46.723  1.00  0.00     0.027 A 
HETATM   32  C   UNL     1      37.630  54.830  45.476  1.00  0.00     0.045 A 
ENDBRANCH  25  28
ENDBRANCH   5  24
TORSDOF 7
ENDMDL
MODEL 6
REMARK VINA RESULT:      -7.3      1.805      2.451
REMARK  7 active torsions:
REMARK  status: ('A' for Active; 'I' for Inactive)
REMARK    1  A    between atoms: C_2  and  C_3 
REMARK    2  A    between atoms: C_3  and  N_4 
REMARK    3  A    between atoms: C_7  and  C_8 
REMARK    4  A    between atoms: C_8  and  N_9 
REMARK       I    between atoms: N_9  and  C_10 
REMARK       I    between atoms: C_10  and  N_11 
REMARK    5  A    between atoms: N_11  and  C_12 
REMARK    6  A    between atoms: C_16  and  N_17 
REMARK       I    between atoms: N_17  and  C_18 
REMARK    7  A    between atoms: C_18  and  C_19 
ROOT
HETATM    1  C   UNL     1      33.346  50.801  40.779  1.00  0.00     0.036 A 
HETATM    2  C   UNL     1      32.864  51.211  42.024  1.00  0.00     0.038 A 
HETATM    3  C   UNL     1      33.746  51.585  43.060  1.00  0.00    -0.033 A 
HETATM    4  C   UNL     1      33.161  52.010  44.382  1.00  0.00     0.050 C 
HETATM    5  C   UNL     1      35.137  51.571  42.827  1.00  0.00     0.041 A 
HETATM    6  C   UNL     1      35.606  51.088  41.601  1.00  0.00     0.032 A 
HETATM    7  C   UNL     1      34.722  50.687  40.596  1.00  0.00     0.032 A 
ENDROOT
BRANCH   1   8
HETATM    8  N   UNL     1      32.521  50.461  39.693  1.00  0.00    -0.309 N 
HETATM    9  C   UNL     1      31.481  49.590  39.585  1.00  0.00     0.320 C 
HETATM   10  N   UNL     1      30.966  49.087  40.747  1.00  0.00    -0.342 N 
HETATM   11  O   UNL     1      31.014  49.322  38.482  1.00  0.00    -0.247 OA
HETATM   12  H   UNL     1      31.202  49.675  41.539  1.00  0.00     0.164 HD
HETATM   13  H   UNL     1      32.643  51.007  38.846  1.00  0.00     0.170 HD
BRANCH  10  14
HETATM   14  C   UNL     1      29.663  48.455  40.864  1.00  0.00     0.130 C 
BRANCH  14  15
HETATM   15  C   UNL     1      28.541  49.221  41.584  1.00  0.00     0.031 C 
HETATM   16  C   UNL     1      28.780  50.719  41.699  1.00  0.00     0.241 C 
HETATM   17  N   UNL     1      28.111  51.337  40.473  1.00  0.00    -0.071 N 
HETATM   18  H   UNL     1      27.436  52.024  40.835  1.00  0.00     0.279 HD
HETATM   19  C   UNL     1      27.327  50.241  39.785  1.00  0.00     0.235 C 
HETATM   20  C   UNL     1      27.219  49.147  40.827  1.00  0.00     0.035 C 
BRANCH  17  21
HETATM   21  C   UNL     1      29.079  52.082  39.592  1.00  0.00     0.234 C 
BRANCH  21  22
HETATM   22  C   UNL     1      29.271  53.507  40.097  1.00  0.00     0.023 C 
HETATM   23  C   UNL     1      30.696  53.722  40.582  1.00  0.00     0.007 C 
ENDBRANCH  21  22
ENDBRANCH  17  21
ENDBRANCH  14  15
ENDBRANCH  10  14
ENDBRANCH   1   8
BRANCH   5  24
HETATM   24  N   UNL     1      36.005  52.051  43.829  1.00  0.00    -0.321 N 
HETATM   25  C   UNL     1      36.817  53.174  43.795  1.00  0.00     0.279 C 
HETATM   26  O   UNL     1      36.947  53.930  42.837  1.00  0.00    -0.265 OA
HETATM   27  H   UNL     1      35.986  51.595  44.735  1.00  0.00     0.169 HD
BRANCH  25  28
HETATM   28  C   UNL     1      37.497  53.410  45.057  1.00  0.00     0.142 A 
HETATM   29  O   UNL     1      37.421  54.651  45.643  1.00  0.00    -0.317 OA
HETATM   30  C   UNL     1      38.142  54.591  46.794  1.00  0.00     0.143 A 
HETATM   31  C   UNL     1      38.694  53.342  46.955  1.00  0.00     0.027 A 
HETATM   32  C   UNL     1      38.276  52.580  45.838  1.00  0.00     0.045 A 
ENDBRANCH  25  28
ENDBRANCH   5  24
TORSDOF 7
ENDMDL
MODEL 7
REMARK VINA RESULT:      -7.3     12.797     14.339
REMARK  7 active torsions:
REMARK  status: ('A' for Active; 'I' for Inactive)
REMARK    1  A    between atoms: C_2  and  C_3 
REMARK    2  A    between atoms: C_3  and  N_4 
REMARK    3  A    between atoms: C_7  and  C_8 
REMARK    4  A    between atoms: C_8  and  N_9 
REMARK       I    between atoms: N_9  and  C_10 
REMARK       I    between atoms: C_10  and  N_11 
REMARK    5  A    between atoms: N_11  and  C_12 
REMARK    6  A    between atoms: C_16  and  N_17 
REMARK       I    between atoms: N_17  and  C_18 
REMARK    7  A    between atoms: C_18  and  C_19 
ROOT
HETATM    1  C   UNL     1      23.407  46.674  49.150  1.00  0.00     0.036 A 
HETATM    2  C   UNL     1      23.627  45.444  49.774  1.00  0.00     0.038 A 
HETATM    3  C   UNL     1      24.613  45.299  50.773  1.00  0.00    -0.033 A 
HETATM    4  C   UNL     1      24.804  43.943  51.401  1.00  0.00     0.050 C 
HETATM    5  C   UNL     1      25.370  46.421  51.169  1.00  0.00     0.041 A 
HETATM    6  C   UNL     1      25.190  47.626  50.484  1.00  0.00     0.032 A 
HETATM    7  C   UNL     1      24.235  47.747  49.471  1.00  0.00     0.032 A 
ENDROOT
BRANCH   1   8
HETATM    8  N   UNL     1      22.412  46.894  48.182  1.00  0.00    -0.309 N 
HETATM    9  C   UNL     1      21.163  47.428  48.274  1.00  0.00     0.320 C 
HETATM   10  N   UNL     1      20.845  48.073  49.436  1.00  0.00    -0.342 N 
HETATM   11  O   UNL     1      20.393  47.359  47.320  1.00  0.00    -0.247 OA
HETATM   12  H   UNL     1      21.678  48.357  49.939  1.00  0.00     0.164 HD
HETATM   13  H   UNL     1      22.673  46.710  47.219  1.00  0.00     0.170 HD
BRANCH  10  14
HETATM   14  C   UNL     1      19.736  48.999  49.585  1.00  0.00     0.130 C 
BRANCH  14  15
HETATM   15  C   UNL     1      19.817  50.358  48.871  1.00  0.00     0.031 C 
HETATM   16  C   UNL     1      18.793  50.544  47.760  1.00  0.00     0.241 C 
HETATM   17  N   UNL     1      17.589  51.213  48.420  1.00  0.00    -0.071 N 
HETATM   18  H   UNL     1      17.427  52.084  47.896  1.00  0.00     0.279 HD
HETATM   19  C   UNL     1      17.997  51.594  49.826  1.00  0.00     0.235 C 
HETATM   20  C   UNL     1      19.510  51.520  49.811  1.00  0.00     0.035 C 
BRANCH  17  21
HETATM   21  C   UNL     1      16.333  50.389  48.318  1.00  0.00     0.234 C 
BRANCH  21  22
HETATM   22  C   UNL     1      16.597  49.108  47.537  1.00  0.00     0.023 C 
HETATM   23  C   UNL     1      16.320  47.884  48.395  1.00  0.00     0.007 C 
ENDBRANCH  21  22
ENDBRANCH  17  21
ENDBRANCH  14  15
ENDBRANCH  10  14
ENDBRANCH   1   8
BRANCH   5  24
HETATM   24  N   UNL     1      26.274  46.293  52.245  1.00  0.00    -0.321 N 
HETATM   25  C   UNL     1      26.242  46.934  53.473  1.00  0.00     0.279 C 
HETATM   26  O   UNL     1      25.418  47.777  53.814  1.00  0.00    -0.265 OA
HETATM   27  H   UNL     1      26.994  45.582  52.180  1.00  0.00     0.169 HD
BRANCH  25  28
HETATM   28  C   UNL     1      27.286  46.472  54.371  1.00  0.00     0.142 A 
HETATM   29  O   UNL     1      27.910  45.274  54.121  1.00  0.00    -0.317 OA
HETATM   30  C   UNL     1      28.826  45.090  55.109  1.00  0.00     0.143 A 
HETATM   31  C   UNL     1      28.796  46.138  55.998  1.00  0.00     0.027 A 
HETATM   32  C   UNL     1      27.806  47.030  55.522  1.00  0.00     0.045 A 
ENDBRANCH  25  28
ENDBRANCH   5  24
TORSDOF 7
ENDMDL
MODEL 8
REMARK VINA RESULT:      -7.3     12.817     14.098
REMARK  7 active torsions:
REMARK  status: ('A' for Active; 'I' for Inactive)
REMARK    1  A    between atoms: C_2  and  C_3 
REMARK    2  A    between atoms: C_3  and  N_4 
REMARK    3  A    between atoms: C_7  and  C_8 
REMARK    4  A    between atoms: C_8  and  N_9 
REMARK       I    between atoms: N_9  and  C_10 
REMARK       I    between atoms: C_10  and  N_11 
REMARK    5  A    between atoms: N_11  and  C_12 
REMARK    6  A    between atoms: C_16  and  N_17 
REMARK       I    between atoms: N_17  and  C_18 
REMARK    7  A    between atoms: C_18  and  C_19 
ROOT
HETATM    1  C   UNL     1      23.734  44.516  49.633  1.00  0.00     0.036 A 
HETATM    2  C   UNL     1      24.418  45.729  49.723  1.00  0.00     0.038 A 
HETATM    3  C   UNL     1      25.355  45.963  50.753  1.00  0.00    -0.033 A 
HETATM    4  C   UNL     1      26.053  47.297  50.797  1.00  0.00     0.050 C 
HETATM    5  C   UNL     1      25.626  44.944  51.690  1.00  0.00     0.041 A 
HETATM    6  C   UNL     1      24.879  43.763  51.629  1.00  0.00     0.032 A 
HETATM    7  C   UNL     1      23.928  43.559  50.626  1.00  0.00     0.032 A 
ENDROOT
BRANCH   1   8
HETATM    8  N   UNL     1      22.824  44.204  48.607  1.00  0.00    -0.309 N 
HETATM    9  C   UNL     1      21.553  44.627  48.366  1.00  0.00     0.320 C 
HETATM   10  N   UNL     1      21.105  45.698  49.087  1.00  0.00    -0.342 N 
HETATM   11  O   UNL     1      20.877  44.082  47.498  1.00  0.00    -0.247 OA
HETATM   12  H   UNL     1      21.877  46.239  49.461  1.00  0.00     0.164 HD
HETATM   13  H   UNL     1      23.179  43.629  47.850  1.00  0.00     0.170 HD
BRANCH  10  14
HETATM   14  C   UNL     1      19.953  46.508  48.729  1.00  0.00     0.130 C 
BRANCH  14  15
HETATM   15  C   UNL     1      20.136  47.616  47.679  1.00  0.00     0.031 C 
HETATM   16  C   UNL     1      19.154  48.771  47.811  1.00  0.00     0.241 C 
HETATM   17  N   UNL     1      19.849  49.802  48.696  1.00  0.00    -0.071 N 
HETATM   18  H   UNL     1      19.874  50.674  48.150  1.00  0.00     0.279 HD
HETATM   19  C   UNL     1      21.277  49.342  48.892  1.00  0.00     0.235 C 
HETATM   20  C   UNL     1      21.490  48.308  47.806  1.00  0.00     0.035 C 
BRANCH  17  21
HETATM   21  C   UNL     1      19.090  50.092  49.964  1.00  0.00     0.234 C 
BRANCH  21  22
HETATM   22  C   UNL     1      18.207  51.320  49.788  1.00  0.00     0.023 C 
HETATM   23  C   UNL     1      18.880  52.348  48.892  1.00  0.00     0.007 C 
ENDBRANCH  21  22
ENDBRANCH  17  21
ENDBRANCH  14  15
ENDBRANCH  10  14
ENDBRANCH   1   8
BRANCH   5  24
HETATM   24  N   UNL     1      26.643  45.145  52.646  1.00  0.00    -0.321 N 
HETATM   25  C   UNL     1      26.521  45.633  53.938  1.00  0.00     0.279 C 
HETATM   26  O   UNL     1      25.480  46.024  54.456  1.00  0.00    -0.265 OA
HETATM   27  H   UNL     1      27.575  44.812  52.427  1.00  0.00     0.169 HD
BRANCH  25  28
HETATM   28  C   UNL     1      27.778  45.603  54.666  1.00  0.00     0.142 A 
HETATM   29  O   UNL     1      28.549  44.466  54.634  1.00  0.00    -0.317 OA
HETATM   30  C   UNL     1      29.648  44.711  55.395  1.00  0.00     0.143 A 
HETATM   31  C   UNL     1      29.596  45.977  55.929  1.00  0.00     0.027 A 
HETATM   32  C   UNL     1      28.392  46.553  55.457  1.00  0.00     0.045 A 
ENDBRANCH  25  28
ENDBRANCH   5  24
TORSDOF 7
ENDMDL
MODEL 9
REMARK VINA RESULT:      -7.2     24.047     26.688
REMARK  7 active torsions:
REMARK  status: ('A' for Active; 'I' for Inactive)
REMARK    1  A    between atoms: C_2  and  C_3 
REMARK    2  A    between atoms: C_3  and  N_4 
REMARK    3  A    between atoms: C_7  and  C_8 
REMARK    4  A    between atoms: C_8  and  N_9 
REMARK       I    between atoms: N_9  and  C_10 
REMARK       I    between atoms: C_10  and  N_11 
REMARK    5  A    between atoms: N_11  and  C_12 
REMARK    6  A    between atoms: C_16  and  N_17 
REMARK       I    between atoms: N_17  and  C_18 
REMARK    7  A    between atoms: C_18  and  C_19 
ROOT
HETATM    1  C   UNL     1      38.987  42.479  62.937  1.00  0.00     0.036 A 
HETATM    2  C   UNL     1      40.067  43.334  63.165  1.00  0.00     0.038 A 
HETATM    3  C   UNL     1      39.872  44.632  63.683  1.00  0.00    -0.033 A 
HETATM    4  C   UNL     1      41.080  45.506  63.899  1.00  0.00     0.050 C 
HETATM    5  C   UNL     1      38.569  45.065  64.002  1.00  0.00     0.041 A 
HETATM    6  C   UNL     1      37.492  44.226  63.698  1.00  0.00     0.032 A 
HETATM    7  C   UNL     1      37.696  42.956  63.152  1.00  0.00     0.032 A 
ENDROOT
BRANCH   1   8
HETATM    8  N   UNL     1      39.117  41.161  62.467  1.00  0.00    -0.309 N 
HETATM    9  C   UNL     1      39.593  40.032  63.060  1.00  0.00     0.320 C 
HETATM   10  N   UNL     1      39.794  40.075  64.411  1.00  0.00    -0.342 N 
HETATM   11  O   UNL     1      39.778  39.018  62.393  1.00  0.00    -0.247 OA
HETATM   12  H   UNL     1      39.257  40.820  64.839  1.00  0.00     0.164 HD
HETATM   13  H   UNL     1      38.717  40.966  61.554  1.00  0.00     0.170 HD
BRANCH  10  14
HETATM   14  C   UNL     1      39.938  38.904  65.259  1.00  0.00     0.130 C 
BRANCH  14  15
HETATM   15  C   UNL     1      41.300  38.645  65.923  1.00  0.00     0.031 C 
HETATM   16  C   UNL     1      41.317  37.454  66.871  1.00  0.00     0.241 C 
HETATM   17  N   UNL     1      41.754  36.262  66.023  1.00  0.00    -0.071 N 
HETATM   18  H   UNL     1      42.590  35.878  66.485  1.00  0.00     0.279 HD
HETATM   19  C   UNL     1      42.180  36.797  64.674  1.00  0.00     0.235 C 
HETATM   20  C   UNL     1      42.375  38.282  64.904  1.00  0.00     0.035 C 
BRANCH  17  21
HETATM   21  C   UNL     1      40.723  35.165  65.981  1.00  0.00     0.234 C 
BRANCH  21  22
HETATM   22  C   UNL     1      39.534  35.517  66.866  1.00  0.00     0.023 C 
HETATM   23  C   UNL     1      38.487  34.415  66.830  1.00  0.00     0.007 C 
ENDBRANCH  21  22
ENDBRANCH  17  21
ENDBRANCH  14  15
ENDBRANCH  10  14
ENDBRANCH   1   8
BRANCH   5  24
HETATM   24  N   UNL     1      38.395  46.319  64.622  1.00  0.00    -0.321 N 
HETATM   25  C   UNL     1      37.287  47.152  64.577  1.00  0.00     0.279 C 
HETATM   26  O   UNL     1      36.265  46.943  63.934  1.00  0.00    -0.265 OA
HETATM   27  H   UNL     1      39.113  46.637  65.264  1.00  0.00     0.169 HD
BRANCH  25  28
HETATM   28  C   UNL     1      37.434  48.321  65.427  1.00  0.00     0.142 A 
HETATM   29  O   UNL     1      36.918  48.300  66.700  1.00  0.00    -0.317 OA
HETATM   30  C   UNL     1      37.190  49.509  67.260  1.00  0.00     0.143 A 
HETATM   31  C   UNL     1      37.859  50.314  66.369  1.00  0.00     0.027 A 
HETATM   32  C   UNL     1      38.020  49.549  65.189  1.00  0.00     0.045 A 
ENDBRANCH  25  28
ENDBRANCH   5  24
TORSDOF 7
ENDMDL
MODEL 10
REMARK VINA RESULT:      -7.1     11.981     14.003
REMARK  7 active torsions:
REMARK  status: ('A' for Active; 'I' for Inactive)
REMARK    1  A    between atoms: C_2  and  C_3 
REMARK    2  A    between atoms: C_3  and  N_4 
REMARK    3  A    between atoms: C_7  and  C_8 
REMARK    4  A    between atoms: C_8  and  N_9 
REMARK       I    between atoms: N_9  and  C_10 
REMARK       I    between atoms: C_10  and  N_11 
REMARK    5  A    between atoms: N_11  and  C_12 
REMARK    6  A    between atoms: C_16  and  N_17 
REMARK       I    between atoms: N_17  and  C_18 
REMARK    7  A    between atoms: C_18  and  C_19 
ROOT
HETATM    1  C   UNL     1      24.352  48.048  49.308  1.00  0.00     0.036 A 
HETATM    2  C   UNL     1      23.815  46.801  49.633  1.00  0.00     0.038 A 
HETATM    3  C   UNL     1      24.587  45.826  50.301  1.00  0.00    -0.033 A 
HETATM    4  C   UNL     1      23.949  44.498  50.615  1.00  0.00     0.050 C 
HETATM    5  C   UNL     1      25.914  46.126  50.673  1.00  0.00     0.041 A 
HETATM    6  C   UNL     1      26.460  47.351  50.276  1.00  0.00     0.032 A 
HETATM    7  C   UNL     1      25.695  48.293  49.582  1.00  0.00     0.032 A 
ENDROOT
BRANCH   1   8
HETATM    8  N   UNL     1      23.623  49.076  48.685  1.00  0.00    -0.309 N 
HETATM    9  C   UNL     1      22.285  49.296  48.573  1.00  0.00     0.320 C 
HETATM   10  N   UNL     1      21.461  48.541  49.359  1.00  0.00    -0.342 N 
HETATM   11  O   UNL     1      21.866  50.175  47.824  1.00  0.00    -0.247 OA
HETATM   12  H   UNL     1      21.961  48.157  50.153  1.00  0.00     0.164 HD
HETATM   13  H   UNL     1      24.164  49.852  48.317  1.00  0.00     0.170 HD
BRANCH  10  14
HETATM   14  C   UNL     1      20.075  48.868  49.651  1.00  0.00     0.130 C 
BRANCH  14  15
HETATM   15  C   UNL     1      18.972  47.997  49.029  1.00  0.00     0.031 C 
HETATM   16  C   UNL     1      17.599  48.652  49.002  1.00  0.00     0.241 C 
HETATM   17  N   UNL     1      17.504  49.349  47.646  1.00  0.00    -0.071 N 
HETATM   18  H   UNL     1      16.667  48.964  47.188  1.00  0.00     0.279 HD
HETATM   19  C   UNL     1      18.708  48.926  46.834  1.00  0.00     0.235 C 
HETATM   20  C   UNL     1      19.236  47.703  47.556  1.00  0.00     0.035 C 
BRANCH  17  21
HETATM   21  C   UNL     1      17.303  50.837  47.767  1.00  0.00     0.234 C 
BRANCH  21  22
HETATM   22  C   UNL     1      18.576  51.579  47.381  1.00  0.00     0.023 C 
HETATM   23  C   UNL     1      19.152  52.324  48.575  1.00  0.00     0.007 C 
ENDBRANCH  21  22
ENDBRANCH  17  21
ENDBRANCH  14  15
ENDBRANCH  10  14
ENDBRANCH   1   8
BRANCH   5  24
HETATM   24  N   UNL     1      26.640  45.190  51.438  1.00  0.00    -0.321 N 
HETATM   25  C   UNL     1      26.860  45.186  52.807  1.00  0.00     0.279 C 
HETATM   26  O   UNL     1      26.481  46.050  53.590  1.00  0.00    -0.265 OA
HETATM   27  H   UNL     1      26.976  44.354  50.973  1.00  0.00     0.169 HD
BRANCH  25  28
HETATM   28  C   UNL     1      27.570  44.001  53.254  1.00  0.00     0.142 A 
HETATM   29  O   UNL     1      27.196  42.768  52.777  1.00  0.00    -0.317 OA
HETATM   30  C   UNL     1      28.014  41.852  53.358  1.00  0.00     0.143 A 
HETATM   31  C   UNL     1      28.899  42.466  54.212  1.00  0.00     0.027 A 
HETATM   32  C   UNL     1      28.617  43.851  54.143  1.00  0.00     0.045 A 
ENDBRANCH  25  28
ENDBRANCH   5  24
TORSDOF 7
ENDMDL
