MODEL 1
REMARK VINA RESULT:      -9.7      0.000      0.000
REMARK  3 active torsions:
REMARK  status: ('A' for Active; 'I' for Inactive)
REMARK    1  A    between atoms: O_2  and  C_3 
REMARK    2  A    between atoms: C_9  and  C_10 
REMARK       I    between atoms: C_10  and  N_11 
REMARK    3  A    between atoms: N_11  and  C_12 
ROOT
HETATM    1  C   UNL     1      30.637  44.312  56.398  1.00  0.00     0.068 A 
HETATM    2  C   UNL     1      29.654  45.285  56.192  1.00  0.00     0.044 A 
HETATM    3  C   UNL     1      28.781  45.202  55.099  1.00  0.00    -0.043 A 
HETATM    4  C   UNL     1      28.921  44.135  54.183  1.00  0.00    -0.001 A 
HETATM    5  C   UNL     1      27.974  44.101  53.081  1.00  0.00     0.069 A 
HETATM    6  C   UNL     1      26.850  44.892  52.996  1.00  0.00     0.007 A 
HETATM    7  C   UNL     1      26.205  44.513  51.793  1.00  0.00     0.153 A 
HETATM    8  N   UNL     1      26.917  43.557  51.150  1.00  0.00    -0.168 NA
HETATM    9  N   UNL     1      27.977  43.335  51.957  1.00  0.00    -0.276 N 
HETATM   10  H   UNL     1      28.663  42.645  51.672  1.00  0.00     0.189 HD
HETATM   11  C   UNL     1      26.497  45.859  54.071  1.00  0.00     0.048 C 
HETATM   12  C   UNL     1      27.757  46.305  54.852  1.00  0.00     0.044 C 
HETATM   13  C   UNL     1      29.906  43.168  54.385  1.00  0.00     0.017 A 
HETATM   14  C   UNL     1      30.760  43.257  55.492  1.00  0.00     0.037 A 
ENDROOT
BRANCH   7  15
HETATM   15  C   UNL     1      24.928  45.017  51.247  1.00  0.00     0.277 C 
HETATM   16  N   UNL     1      25.130  46.088  50.397  1.00  0.00    -0.322 N 
HETATM   17  H   UNL     1      26.113  46.343  50.313  1.00  0.00     0.169 HD
HETATM   18  O   UNL     1      23.851  44.509  51.536  1.00  0.00    -0.266 OA
BRANCH  16  19
HETATM   19  C   UNL     1      24.183  46.813  49.656  1.00  0.00     0.036 A 
HETATM   20  C   UNL     1      24.101  48.208  49.649  1.00  0.00     0.056 A 
HETATM   21  C   UNL     1      23.118  48.849  48.889  1.00  0.00     0.074 A 
HETATM   22 CL   UNL     1      23.028  50.570  48.895  1.00  0.00    -0.081 Cl
HETATM   23  C   UNL     1      22.218  48.099  48.138  1.00  0.00     0.138 A 
HETATM   24  F   UNL     1      21.266  48.696  47.405  1.00  0.00    -0.204 F 
HETATM   25  C   UNL     1      22.288  46.711  48.134  1.00  0.00     0.046 A 
HETATM   26  C   UNL     1      23.270  46.069  48.893  1.00  0.00     0.032 A 
ENDBRANCH  16  19
ENDBRANCH   7  15
BRANCH   1  27
HETATM   27  O   UNL     1      31.409  44.511  57.509  1.00  0.00    -0.356 OA
HETATM   28  C   UNL     1      30.836  45.272  58.565  1.00  0.00     0.210 C 
ENDBRANCH   1  27
TORSDOF 3
ENDMDL
MODEL 2
REMARK VINA RESULT:      -9.4      5.225      6.624
REMARK  3 active torsions:
REMARK  status: ('A' for Active; 'I' for Inactive)
REMARK    1  A    between atoms: O_2  and  C_3 
REMARK    2  A    between atoms: C_9  and  C_10 
REMARK       I    between atoms: C_10  and  N_11 
REMARK    3  A    between atoms: N_11  and  C_12 
ROOT
HETATM    1  C   UNL     1      29.757  45.692  56.645  1.00  0.00     0.068 A 
HETATM    2  C   UNL     1      30.265  44.645  55.868  1.00  0.00     0.044 A 
HETATM    3  C   UNL     1      29.546  44.154  54.770  1.00  0.00    -0.043 A 
HETATM    4  C   UNL     1      28.281  44.708  54.469  1.00  0.00    -0.001 A 
HETATM    5  C   UNL     1      27.597  44.162  53.309  1.00  0.00     0.069 A 
HETATM    6  C   UNL     1      28.178  43.319  52.387  1.00  0.00     0.007 A 
HETATM    7  C   UNL     1      27.177  43.062  51.419  1.00  0.00     0.153 A 
HETATM    8  N   UNL     1      26.022  43.691  51.747  1.00  0.00    -0.168 NA
HETATM    9  N   UNL     1      26.314  44.343  52.893  1.00  0.00    -0.276 N 
HETATM   10  H   UNL     1      25.585  44.891  53.334  1.00  0.00     0.189 HD
HETATM   11  C   UNL     1      29.603  42.906  52.502  1.00  0.00     0.048 C 
HETATM   12  C   UNL     1      30.082  42.970  53.972  1.00  0.00     0.044 C 
HETATM   13  C   UNL     1      27.772  45.747  55.248  1.00  0.00     0.017 A 
HETATM   14  C   UNL     1      28.511  46.238  56.332  1.00  0.00     0.037 A 
ENDROOT
BRANCH   7  15
HETATM   15  C   UNL     1      27.288  42.256  50.186  1.00  0.00     0.277 C 
HETATM   16  N   UNL     1      27.497  40.920  50.473  1.00  0.00    -0.322 N 
HETATM   17  H   UNL     1      27.551  40.737  51.474  1.00  0.00     0.169 HD
HETATM   18  O   UNL     1      27.192  42.755  49.071  1.00  0.00    -0.266 OA
BRANCH  16  19
HETATM   19  C   UNL     1      27.617  39.839  49.585  1.00  0.00     0.036 A 
HETATM   20  C   UNL     1      26.549  39.305  48.859  1.00  0.00     0.056 A 
HETATM   21  C   UNL     1      26.756  38.218  48.004  1.00  0.00     0.074 A 
HETATM   22 CL   UNL     1      25.427  37.570  47.120  1.00  0.00    -0.081 Cl
HETATM   23  C   UNL     1      28.026  37.666  47.874  1.00  0.00     0.138 A 
HETATM   24  F   UNL     1      28.243  36.621  47.060  1.00  0.00    -0.204 F 
HETATM   25  C   UNL     1      29.098  38.187  48.588  1.00  0.00     0.046 A 
HETATM   26  C   UNL     1      28.892  39.273  49.444  1.00  0.00     0.032 A 
ENDBRANCH  16  19
ENDBRANCH   7  15
BRANCH   1  27
HETATM   27  O   UNL     1      30.569  46.079  57.676  1.00  0.00    -0.356 OA
HETATM   28  C   UNL     1      31.154  45.047  58.459  1.00  0.00     0.210 C 
ENDBRANCH   1  27
TORSDOF 3
ENDMDL
MODEL 3
REMARK VINA RESULT:      -8.9      4.409      9.334
REMARK  3 active torsions:
REMARK  status: ('A' for Active; 'I' for Inactive)
REMARK    1  A    between atoms: O_2  and  C_3 
REMARK    2  A    between atoms: C_9  and  C_10 
REMARK       I    between atoms: C_10  and  N_11 
REMARK    3  A    between atoms: N_11  and  C_12 
ROOT
HETATM    1  C   UNL     1      22.409  45.115  47.419  1.00  0.00     0.068 A 
HETATM    2  C   UNL     1      23.159  44.108  48.033  1.00  0.00     0.044 A 
HETATM    3  C   UNL     1      23.916  44.377  49.181  1.00  0.00    -0.043 A 
HETATM    4  C   UNL     1      23.939  45.691  49.701  1.00  0.00    -0.001 A 
HETATM    5  C   UNL     1      24.732  45.897  50.901  1.00  0.00     0.069 A 
HETATM    6  C   UNL     1      25.268  44.883  51.664  1.00  0.00     0.007 A 
HETATM    7  C   UNL     1      25.927  45.522  52.742  1.00  0.00     0.153 A 
HETATM    8  N   UNL     1      25.830  46.869  52.631  1.00  0.00    -0.168 NA
HETATM    9  N   UNL     1      25.103  47.057  51.508  1.00  0.00    -0.276 N 
HETATM   10  H   UNL     1      24.901  48.007  51.218  1.00  0.00     0.189 HD
HETATM   11  C   UNL     1      25.052  43.452  51.316  1.00  0.00     0.048 C 
HETATM   12  C   UNL     1      24.780  43.284  49.802  1.00  0.00     0.044 C 
HETATM   13  C   UNL     1      23.196  46.697  49.084  1.00  0.00     0.017 A 
HETATM   14  C   UNL     1      22.431  46.408  47.946  1.00  0.00     0.037 A 
ENDROOT
BRANCH   7  15
HETATM   15  C   UNL     1      26.628  44.895  53.881  1.00  0.00     0.277 C 
HETATM   16  N   UNL     1      27.970  45.226  53.893  1.00  0.00    -0.322 N 
HETATM   17  H   UNL     1      28.234  45.825  53.112  1.00  0.00     0.169 HD
HETATM   18  O   UNL     1      26.047  44.185  54.693  1.00  0.00    -0.266 OA
BRANCH  16  19
HETATM   19  C   UNL     1      28.957  44.865  54.824  1.00  0.00     0.036 A 
HETATM   20  C   UNL     1      29.267  45.616  55.962  1.00  0.00     0.056 A 
HETATM   21  C   UNL     1      30.273  45.186  56.832  1.00  0.00     0.074 A 
HETATM   22 CL   UNL     1      30.647  46.127  58.227  1.00  0.00    -0.081 Cl
HETATM   23  C   UNL     1      30.969  44.010  56.568  1.00  0.00     0.138 A 
HETATM   24  F   UNL     1      31.939  43.584  57.391  1.00  0.00    -0.204 F 
HETATM   25  C   UNL     1      30.670  43.252  55.442  1.00  0.00     0.046 A 
HETATM   26  C   UNL     1      29.665  43.680  54.571  1.00  0.00     0.032 A 
ENDBRANCH  16  19
ENDBRANCH   7  15
BRANCH   1  27
HETATM   27  O   UNL     1      21.709  44.710  46.316  1.00  0.00    -0.356 OA
HETATM   28  C   UNL     1      20.431  44.127  46.541  1.00  0.00     0.210 C 
ENDBRANCH   1  27
TORSDOF 3
ENDMDL
MODEL 4
REMARK VINA RESULT:      -8.8      4.252      8.838
REMARK  3 active torsions:
REMARK  status: ('A' for Active; 'I' for Inactive)
REMARK    1  A    between atoms: O_2  and  C_3 
REMARK    2  A    between atoms: C_9  and  C_10 
REMARK       I    between atoms: C_10  and  N_11 
REMARK    3  A    between atoms: N_11  and  C_12 
ROOT
HETATM    1  C   UNL     1      23.013  48.485  48.159  1.00  0.00     0.068 A 
HETATM    2  C   UNL     1      24.115  48.607  49.011  1.00  0.00     0.044 A 
HETATM    3  C   UNL     1      24.563  47.515  49.765  1.00  0.00    -0.043 A 
HETATM    4  C   UNL     1      23.870  46.286  49.681  1.00  0.00    -0.001 A 
HETATM    5  C   UNL     1      24.396  45.191  50.478  1.00  0.00     0.069 A 
HETATM    6  C   UNL     1      25.614  45.212  51.121  1.00  0.00     0.007 A 
HETATM    7  C   UNL     1      25.740  43.946  51.743  1.00  0.00     0.153 A 
HETATM    8  N   UNL     1      24.635  43.193  51.523  1.00  0.00    -0.168 NA
HETATM    9  N   UNL     1      23.847  43.978  50.757  1.00  0.00    -0.276 N 
HETATM   10  H   UNL     1      22.946  43.617  50.464  1.00  0.00     0.189 HD
HETATM   11  C   UNL     1      26.523  46.387  51.027  1.00  0.00     0.048 C 
HETATM   12  C   UNL     1      25.726  47.682  50.738  1.00  0.00     0.044 C 
HETATM   13  C   UNL     1      22.766  46.166  48.837  1.00  0.00     0.017 A 
HETATM   14  C   UNL     1      22.341  47.264  48.077  1.00  0.00     0.037 A 
ENDROOT
BRANCH   7  15
HETATM   15  C   UNL     1      26.881  43.423  52.522  1.00  0.00     0.277 C 
HETATM   16  N   UNL     1      27.487  44.422  53.262  1.00  0.00    -0.322 N 
HETATM   17  H   UNL     1      27.050  45.332  53.126  1.00  0.00     0.169 HD
HETATM   18  O   UNL     1      27.206  42.242  52.490  1.00  0.00    -0.266 OA
BRANCH  16  19
HETATM   19  C   UNL     1      28.569  44.323  54.152  1.00  0.00     0.036 A 
HETATM   20  C   UNL     1      28.743  45.154  55.262  1.00  0.00     0.056 A 
HETATM   21  C   UNL     1      29.857  44.993  56.090  1.00  0.00     0.074 A 
HETATM   22 CL   UNL     1      30.060  46.030  57.452  1.00  0.00    -0.081 Cl
HETATM   23  C   UNL     1      30.796  44.003  55.813  1.00  0.00     0.138 A 
HETATM   24  F   UNL     1      31.872  43.835  56.595  1.00  0.00    -0.204 F 
HETATM   25  C   UNL     1      30.634  43.168  54.713  1.00  0.00     0.046 A 
HETATM   26  C   UNL     1      29.521  43.329  53.884  1.00  0.00     0.032 A 
ENDBRANCH  16  19
ENDBRANCH   7  15
BRANCH   1  27
HETATM   27  O   UNL     1      22.694  49.625  47.474  1.00  0.00    -0.356 OA
HETATM   28  C   UNL     1      23.180  50.852  48.004  1.00  0.00     0.210 C 
ENDBRANCH   1  27
TORSDOF 3
ENDMDL
MODEL 5
REMARK VINA RESULT:      -8.7      3.941      5.636
REMARK  3 active torsions:
REMARK  status: ('A' for Active; 'I' for Inactive)
REMARK    1  A    between atoms: O_2  and  C_3 
REMARK    2  A    between atoms: C_9  and  C_10 
REMARK       I    between atoms: C_10  and  N_11 
REMARK    3  A    between atoms: N_11  and  C_12 
ROOT
HETATM    1  C   UNL     1      26.855  42.479  51.454  1.00  0.00     0.068 A 
HETATM    2  C   UNL     1      25.539  42.540  50.984  1.00  0.00     0.044 A 
HETATM    3  C   UNL     1      24.970  43.764  50.606  1.00  0.00    -0.043 A 
HETATM    4  C   UNL     1      25.730  44.948  50.733  1.00  0.00    -0.001 A 
HETATM    5  C   UNL     1      25.084  46.179  50.310  1.00  0.00     0.069 A 
HETATM    6  C   UNL     1      23.897  46.235  49.613  1.00  0.00     0.007 A 
HETATM    7  C   UNL     1      23.654  47.611  49.382  1.00  0.00     0.153 A 
HETATM    8  N   UNL     1      24.629  48.369  49.940  1.00  0.00    -0.168 NA
HETATM    9  N   UNL     1      25.472  47.470  50.491  1.00  0.00    -0.276 N 
HETATM   10  H   UNL     1      26.293  47.814  50.977  1.00  0.00     0.189 HD
HETATM   11  C   UNL     1      23.173  44.999  49.210  1.00  0.00     0.048 C 
HETATM   12  C   UNL     1      23.513  43.823  50.157  1.00  0.00     0.044 C 
HETATM   13  C   UNL     1      27.040  44.887  51.209  1.00  0.00     0.017 A 
HETATM   14  C   UNL     1      27.600  43.654  51.567  1.00  0.00     0.037 A 
ENDROOT
BRANCH   7  15
HETATM   15  C   UNL     1      22.538  48.226  48.634  1.00  0.00     0.277 C 
HETATM   16  N   UNL     1      21.760  49.024  49.452  1.00  0.00    -0.322 N 
HETATM   17  H   UNL     1      22.086  49.032  50.418  1.00  0.00     0.169 HD
HETATM   18  O   UNL     1      22.370  48.029  47.437  1.00  0.00    -0.266 OA
BRANCH  16  19
HETATM   19  C   UNL     1      20.641  49.802  49.115  1.00  0.00     0.036 A 
HETATM   20  C   UNL     1      19.347  49.290  48.982  1.00  0.00     0.056 A 
HETATM   21  C   UNL     1      18.292  50.137  48.632  1.00  0.00     0.074 A 
HETATM   22 CL   UNL     1      16.703  49.488  48.467  1.00  0.00    -0.081 Cl
HETATM   23  C   UNL     1      18.525  51.492  48.416  1.00  0.00     0.138 A 
HETATM   24  F   UNL     1      17.525  52.318  48.077  1.00  0.00    -0.204 F 
HETATM   25  C   UNL     1      19.806  52.015  48.547  1.00  0.00     0.046 A 
HETATM   26  C   UNL     1      20.863  51.169  48.896  1.00  0.00     0.032 A 
ENDBRANCH  16  19
ENDBRANCH   7  15
BRANCH   1  27
HETATM   27  O   UNL     1      27.286  41.220  51.774  1.00  0.00    -0.356 OA
HETATM   28  C   UNL     1      28.331  41.121  52.733  1.00  0.00     0.210 C 
ENDBRANCH   1  27
TORSDOF 3
ENDMDL
MODEL 6
REMARK VINA RESULT:      -8.7      3.616      4.099
REMARK  3 active torsions:
REMARK  status: ('A' for Active; 'I' for Inactive)
REMARK    1  A    between atoms: O_2  and  C_3 
REMARK    2  A    between atoms: C_9  and  C_10 
REMARK       I    between atoms: C_10  and  N_11 
REMARK    3  A    between atoms: N_11  and  C_12 
ROOT
HETATM    1  C   UNL     1      30.115  45.154  56.173  1.00  0.00     0.068 A 
HETATM    2  C   UNL     1      28.957  45.410  55.433  1.00  0.00     0.044 A 
HETATM    3  C   UNL     1      28.546  44.534  54.419  1.00  0.00    -0.043 A 
HETATM    4  C   UNL     1      29.332  43.397  54.128  1.00  0.00    -0.001 A 
HETATM    5  C   UNL     1      28.840  42.524  53.075  1.00  0.00     0.069 A 
HETATM    6  C   UNL     1      27.586  42.614  52.512  1.00  0.00     0.007 A 
HETATM    7  C   UNL     1      27.516  41.564  51.564  1.00  0.00     0.153 A 
HETATM    8  N   UNL     1      28.686  40.880  51.521  1.00  0.00    -0.168 NA
HETATM    9  N   UNL     1      29.459  41.489  52.446  1.00  0.00    -0.276 N 
HETATM   10  H   UNL     1      30.400  41.142  52.590  1.00  0.00     0.189 HD
HETATM   11  C   UNL     1      26.600  43.632  52.967  1.00  0.00     0.048 C 
HETATM   12  C   UNL     1      27.315  44.861  53.578  1.00  0.00     0.044 C 
HETATM   13  C   UNL     1      30.491  43.145  54.861  1.00  0.00     0.017 A 
HETATM   14  C   UNL     1      30.880  44.022  55.882  1.00  0.00     0.037 A 
ENDROOT
BRANCH   7  15
HETATM   15  C   UNL     1      26.372  41.180  50.713  1.00  0.00     0.277 C 
HETATM   16  N   UNL     1      25.914  42.250  49.968  1.00  0.00    -0.322 N 
HETATM   17  H   UNL     1      26.436  43.106  50.149  1.00  0.00     0.169 HD
HETATM   18  O   UNL     1      25.924  40.039  50.700  1.00  0.00    -0.266 OA
BRANCH  16  19
HETATM   19  C   UNL     1      24.878  42.283  49.021  1.00  0.00     0.036 A 
HETATM   20  C   UNL     1      24.932  41.636  47.783  1.00  0.00     0.056 A 
HETATM   21  C   UNL     1      23.857  41.731  46.895  1.00  0.00     0.074 A 
HETATM   22 CL   UNL     1      23.942  40.930  45.371  1.00  0.00    -0.081 Cl
HETATM   23  C   UNL     1      22.729  42.470  47.240  1.00  0.00     0.138 A 
HETATM   24  F   UNL     1      21.689  42.574  46.400  1.00  0.00    -0.204 F 
HETATM   25  C   UNL     1      22.661  43.117  48.468  1.00  0.00     0.046 A 
HETATM   26  C   UNL     1      23.735  43.024  49.357  1.00  0.00     0.032 A 
ENDBRANCH  16  19
ENDBRANCH   7  15
BRANCH   1  27
HETATM   27  O   UNL     1      30.391  46.083  57.138  1.00  0.00    -0.356 OA
HETATM   28  C   UNL     1      30.763  45.591  58.419  1.00  0.00     0.210 C 
ENDBRANCH   1  27
TORSDOF 3
ENDMDL
MODEL 7
REMARK VINA RESULT:      -8.7      6.720      9.659
REMARK  3 active torsions:
REMARK  status: ('A' for Active; 'I' for Inactive)
REMARK    1  A    between atoms: O_2  and  C_3 
REMARK    2  A    between atoms: C_9  and  C_10 
REMARK       I    between atoms: C_10  and  N_11 
REMARK    3  A    between atoms: N_11  and  C_12 
ROOT
HETATM    1  C   UNL     1      27.973  37.646  46.305  1.00  0.00     0.068 A 
HETATM    2  C   UNL     1      28.760  37.542  47.456  1.00  0.00     0.044 A 
HETATM    3  C   UNL     1      28.689  38.513  48.463  1.00  0.00    -0.043 A 
HETATM    4  C   UNL     1      27.832  39.624  48.293  1.00  0.00    -0.001 A 
HETATM    5  C   UNL     1      27.796  40.585  49.382  1.00  0.00     0.069 A 
HETATM    6  C   UNL     1      28.360  40.379  50.621  1.00  0.00     0.007 A 
HETATM    7  C   UNL     1      28.065  41.542  51.374  1.00  0.00     0.153 A 
HETATM    8  N   UNL     1      27.380  42.437  50.622  1.00  0.00    -0.168 NA
HETATM    9  N   UNL     1      27.237  41.825  49.427  1.00  0.00    -0.276 N 
HETATM   10  H   UNL     1      26.747  42.317  48.689  1.00  0.00     0.189 HD
HETATM   11  C   UNL     1      29.055  39.107  50.957  1.00  0.00     0.048 C 
HETATM   12  C   UNL     1      29.601  38.420  49.682  1.00  0.00     0.044 C 
HETATM   13  C   UNL     1      27.052  39.731  47.142  1.00  0.00     0.017 A 
HETATM   14  C   UNL     1      27.122  38.742  46.151  1.00  0.00     0.037 A 
ENDROOT
BRANCH   7  15
HETATM   15  C   UNL     1      28.397  41.821  52.786  1.00  0.00     0.277 C 
HETATM   16  N   UNL     1      28.977  43.067  52.933  1.00  0.00    -0.322 N 
HETATM   17  H   UNL     1      29.084  43.557  52.046  1.00  0.00     0.169 HD
HETATM   18  O   UNL     1      28.160  41.019  53.682  1.00  0.00    -0.266 OA
BRANCH  16  19
HETATM   19  C   UNL     1      29.396  43.709  54.109  1.00  0.00     0.036 A 
HETATM   20  C   UNL     1      30.426  43.240  54.929  1.00  0.00     0.056 A 
HETATM   21  C   UNL     1      30.770  43.939  56.090  1.00  0.00     0.074 A 
HETATM   22 CL   UNL     1      32.039  43.344  57.093  1.00  0.00    -0.081 Cl
HETATM   23  C   UNL     1      30.089  45.104  56.432  1.00  0.00     0.138 A 
HETATM   24  F   UNL     1      30.405  45.785  57.543  1.00  0.00    -0.204 F 
HETATM   25  C   UNL     1      29.064  45.583  55.625  1.00  0.00     0.046 A 
HETATM   26  C   UNL     1      28.718  44.885  54.464  1.00  0.00     0.032 A 
ENDBRANCH  16  19
ENDBRANCH   7  15
BRANCH   1  27
HETATM   27  O   UNL     1      28.133  36.622  45.412  1.00  0.00    -0.356 OA
HETATM   28  C   UNL     1      29.323  36.627  44.632  1.00  0.00     0.210 C 
ENDBRANCH   1  27
TORSDOF 3
ENDMDL
MODEL 8
REMARK VINA RESULT:      -8.5      4.788      9.139
REMARK  3 active torsions:
REMARK  status: ('A' for Active; 'I' for Inactive)
REMARK    1  A    between atoms: O_2  and  C_3 
REMARK    2  A    between atoms: C_9  and  C_10 
REMARK       I    between atoms: C_10  and  N_11 
REMARK    3  A    between atoms: N_11  and  C_12 
ROOT
HETATM    1  C   UNL     1      22.836  43.119  47.530  1.00  0.00     0.068 A 
HETATM    2  C   UNL     1      23.486  44.144  48.224  1.00  0.00     0.044 A 
HETATM    3  C   UNL     1      24.476  43.852  49.172  1.00  0.00    -0.043 A 
HETATM    4  C   UNL     1      24.794  42.502  49.445  1.00  0.00    -0.001 A 
HETATM    5  C   UNL     1      25.839  42.271  50.427  1.00  0.00     0.069 A 
HETATM    6  C   UNL     1      26.663  43.252  50.933  1.00  0.00     0.007 A 
HETATM    7  C   UNL     1      27.544  42.591  51.824  1.00  0.00     0.153 A 
HETATM    8  N   UNL     1      27.254  41.269  51.889  1.00  0.00    -0.168 NA
HETATM    9  N   UNL     1      26.220  41.115  51.034  1.00  0.00    -0.276 N 
HETATM   10  H   UNL     1      25.825  40.188  50.918  1.00  0.00     0.189 HD
HETATM   11  C   UNL     1      26.556  44.667  50.482  1.00  0.00     0.048 C 
HETATM   12  C   UNL     1      25.129  44.978  49.968  1.00  0.00     0.044 C 
HETATM   13  C   UNL     1      24.141  41.480  48.757  1.00  0.00     0.017 A 
HETATM   14  C   UNL     1      23.165  41.789  47.801  1.00  0.00     0.037 A 
ENDROOT
BRANCH   7  15
HETATM   15  C   UNL     1      28.661  43.171  52.598  1.00  0.00     0.277 C 
HETATM   16  N   UNL     1      28.232  43.654  53.820  1.00  0.00    -0.322 N 
HETATM   17  H   UNL     1      27.229  43.537  53.958  1.00  0.00     0.169 HD
HETATM   18  O   UNL     1      29.809  43.190  52.170  1.00  0.00    -0.266 OA
BRANCH  16  19
HETATM   19  C   UNL     1      28.988  44.239  54.848  1.00  0.00     0.036 A 
HETATM   20  C   UNL     1      30.111  43.640  55.427  1.00  0.00     0.056 A 
HETATM   21  C   UNL     1      30.798  44.290  56.456  1.00  0.00     0.074 A 
HETATM   22 CL   UNL     1      32.178  43.536  57.162  1.00  0.00    -0.081 Cl
HETATM   23  C   UNL     1      30.368  45.535  56.906  1.00  0.00     0.138 A 
HETATM   24  F   UNL     1      31.015  46.171  57.894  1.00  0.00    -0.204 F 
HETATM   25  C   UNL     1      29.255  46.142  56.339  1.00  0.00     0.046 A 
HETATM   26  C   UNL     1      28.565  45.494  55.311  1.00  0.00     0.032 A 
ENDBRANCH  16  19
ENDBRANCH   7  15
BRANCH   1  27
HETATM   27  O   UNL     1      21.903  43.548  46.627  1.00  0.00    -0.356 OA
HETATM   28  C   UNL     1      21.258  44.785  46.903  1.00  0.00     0.210 C 
ENDBRANCH   1  27
TORSDOF 3
ENDMDL
MODEL 9
REMARK VINA RESULT:      -8.4      6.173      9.331
REMARK  3 active torsions:
REMARK  status: ('A' for Active; 'I' for Inactive)
REMARK    1  A    between atoms: O_2  and  C_3 
REMARK    2  A    between atoms: C_9  and  C_10 
REMARK       I    between atoms: C_10  and  N_11 
REMARK    3  A    between atoms: N_11  and  C_12 
ROOT
HETATM    1  C   UNL     1      27.864  38.170  46.081  1.00  0.00     0.068 A 
HETATM    2  C   UNL     1      27.164  39.289  46.542  1.00  0.00     0.044 A 
HETATM    3  C   UNL     1      27.377  39.785  47.835  1.00  0.00    -0.043 A 
HETATM    4  C   UNL     1      28.289  39.123  48.688  1.00  0.00    -0.001 A 
HETATM    5  C   UNL     1      28.473  39.698  50.009  1.00  0.00     0.069 A 
HETATM    6  C   UNL     1      27.996  40.931  50.395  1.00  0.00     0.007 A 
HETATM    7  C   UNL     1      28.424  41.106  51.733  1.00  0.00     0.153 A 
HETATM    8  N   UNL     1      29.105  40.016  52.164  1.00  0.00    -0.168 NA
HETATM    9  N   UNL     1      29.113  39.189  51.096  1.00  0.00    -0.276 N 
HETATM   10  H   UNL     1      29.575  38.291  51.187  1.00  0.00     0.189 HD
HETATM   11  C   UNL     1      27.248  41.805  49.450  1.00  0.00     0.048 C 
HETATM   12  C   UNL     1      26.560  40.968  48.346  1.00  0.00     0.044 C 
HETATM   13  C   UNL     1      28.982  38.002  48.230  1.00  0.00     0.017 A 
HETATM   14  C   UNL     1      28.770  37.528  46.928  1.00  0.00     0.037 A 
ENDROOT
BRANCH   7  15
HETATM   15  C   UNL     1      28.224  42.280  52.607  1.00  0.00     0.277 C 
HETATM   16  N   UNL     1      29.284  42.447  53.479  1.00  0.00    -0.322 N 
HETATM   17  H   UNL     1      29.998  41.729  53.371  1.00  0.00     0.169 HD
HETATM   18  O   UNL     1      27.229  42.990  52.527  1.00  0.00    -0.266 OA
BRANCH  16  19
HETATM   19  C   UNL     1      29.487  43.458  54.433  1.00  0.00     0.036 A 
HETATM   20  C   UNL     1      28.653  44.570  54.579  1.00  0.00     0.056 A 
HETATM   21  C   UNL     1      28.937  45.535  55.550  1.00  0.00     0.074 A 
HETATM   22 CL   UNL     1      27.902  46.903  55.713  1.00  0.00    -0.081 Cl
HETATM   23  C   UNL     1      30.048  45.390  56.374  1.00  0.00     0.138 A 
HETATM   24  F   UNL     1      30.337  46.307  57.310  1.00  0.00    -0.204 F 
HETATM   25  C   UNL     1      30.884  44.288  56.242  1.00  0.00     0.046 A 
HETATM   26  C   UNL     1      30.603  43.323  55.271  1.00  0.00     0.032 A 
ENDBRANCH  16  19
ENDBRANCH   7  15
BRANCH   1  27
HETATM   27  O   UNL     1      27.567  37.803  44.797  1.00  0.00    -0.356 OA
HETATM   28  C   UNL     1      26.534  36.842  44.623  1.00  0.00     0.210 C 
ENDBRANCH   1  27
TORSDOF 3
ENDMDL
MODEL 10
REMARK VINA RESULT:      -8.4      5.836      9.345
REMARK  3 active torsions:
REMARK  status: ('A' for Active; 'I' for Inactive)
REMARK    1  A    between atoms: O_2  and  C_3 
REMARK    2  A    between atoms: C_9  and  C_10 
REMARK       I    between atoms: C_10  and  N_11 
REMARK    3  A    between atoms: N_11  and  C_12 
ROOT
HETATM    1  C   UNL     1      26.630  40.047  46.145  1.00  0.00     0.068 A 
HETATM    2  C   UNL     1      25.994  40.891  47.061  1.00  0.00     0.044 A 
HETATM    3  C   UNL     1      26.458  40.997  48.379  1.00  0.00    -0.043 A 
HETATM    4  C   UNL     1      27.564  40.217  48.788  1.00  0.00    -0.001 A 
HETATM    5  C   UNL     1      28.002  40.387  50.162  1.00  0.00     0.069 A 
HETATM    6  C   UNL     1      27.561  41.386  51.002  1.00  0.00     0.007 A 
HETATM    7  C   UNL     1      28.260  41.199  52.220  1.00  0.00     0.153 A 
HETATM    8  N   UNL     1      29.069  40.114  52.145  1.00  0.00    -0.168 NA
HETATM    9  N   UNL     1      28.885  39.651  50.889  1.00  0.00    -0.276 N 
HETATM   10  H   UNL     1      29.398  38.825  50.601  1.00  0.00     0.189 HD
HETATM   11  C   UNL     1      26.586  42.413  50.544  1.00  0.00     0.048 C 
HETATM   12  C   UNL     1      25.716  41.873  49.384  1.00  0.00     0.044 C 
HETATM   13  C   UNL     1      28.193  39.370  47.875  1.00  0.00     0.017 A 
HETATM   14  C   UNL     1      27.727  39.288  46.557  1.00  0.00     0.037 A 
ENDROOT
BRANCH   7  15
HETATM   15  C   UNL     1      28.198  42.026  53.442  1.00  0.00     0.277 C 
HETATM   16  N   UNL     1      29.390  42.692  53.662  1.00  0.00    -0.322 N 
HETATM   17  H   UNL     1      30.093  42.482  52.956  1.00  0.00     0.169 HD
HETATM   18  O   UNL     1      27.191  42.088  54.137  1.00  0.00    -0.266 OA
BRANCH  16  19
HETATM   19  C   UNL     1      29.715  43.596  54.686  1.00  0.00     0.036 A 
HETATM   20  C   UNL     1      30.693  43.357  55.655  1.00  0.00     0.056 A 
HETATM   21  C   UNL     1      30.945  44.310  56.646  1.00  0.00     0.074 A 
HETATM   22 CL   UNL     1      32.151  43.996  57.837  1.00  0.00    -0.081 Cl
HETATM   23  C   UNL     1      30.225  45.500  56.670  1.00  0.00     0.138 A 
HETATM   24  F   UNL     1      30.451  46.424  57.615  1.00  0.00    -0.204 F 
HETATM   25  C   UNL     1      29.251  45.752  55.711  1.00  0.00     0.046 A 
HETATM   26  C   UNL     1      28.997  44.800  54.720  1.00  0.00     0.032 A 
ENDBRANCH  16  19
ENDBRANCH   7  15
BRANCH   1  27
HETATM   27  O   UNL     1      26.080  40.052  44.893  1.00  0.00    -0.356 OA
HETATM   28  C   UNL     1      25.342  41.207  44.516  1.00  0.00     0.210 C 
ENDBRANCH   1  27
TORSDOF 3
ENDMDL
