MODEL 1
REMARK VINA RESULT:     -11.0      0.000      0.000
REMARK  4 active torsions:
REMARK  status: ('A' for Active; 'I' for Inactive)
REMARK    1  A    between atoms: N_7  and  N_8 
REMARK       I    between atoms: N_8  and  C_9 
REMARK    2  A    between atoms: C_9  and  C_10 
REMARK    3  A    between atoms: C_15  and  C_16 
REMARK    4  A    between atoms: C_24  and  C_25 
ROOT
HETATM    1  C   UNL     1      25.198  46.921  50.602  1.00  0.00     0.150 A 
HETATM    2  N   UNL     1      25.760  45.853  49.990  1.00  0.00    -0.165 NA
HETATM    3  N   UNL     1      26.255  45.133  51.010  1.00  0.00    -0.240 N 
HETATM    4  C   UNL     1      26.118  45.728  52.232  1.00  0.00     0.123 A 
HETATM    5  N   UNL     1      26.676  45.195  53.338  1.00  0.00    -0.366 N 
HETATM    6  C   UNL     1      27.500  43.988  53.295  1.00  0.00     0.118 C 
HETATM    7  C   UNL     1      28.058  43.749  51.876  1.00  0.00     0.066 C 
HETATM    8  C   UNL     1      26.968  43.889  50.801  1.00  0.00     0.221 C 
HETATM    9  C   UNL     1      25.383  46.862  52.013  1.00  0.00     0.089 A 
HETATM   10  H   UNL     1      26.487  45.573  54.266  1.00  0.00     0.161 HD
ENDROOT
BRANCH   1  11
HETATM   11  C   UNL     1      24.526  47.993  49.851  1.00  0.00     0.292 C 
HETATM   12  N   UNL     1      23.148  47.836  49.825  1.00  0.00    -0.241 N 
HETATM   13  H   UNL     1      22.754  47.024  50.311  1.00  0.00     0.192 HD
HETATM   14  O   UNL     1      25.151  48.899  49.306  1.00  0.00    -0.264 OA
BRANCH  12  15
HETATM   15  N   UNL     1      22.349  48.712  49.151  1.00  0.00    -0.165 NA
HETATM   16  C   UNL     1      21.422  48.201  48.407  1.00  0.00     0.157 A 
HETATM   17  C   UNL     1      20.464  48.963  47.614  1.00  0.00     0.027 A 
HETATM   18  C   UNL     1      21.088  46.725  48.157  1.00  0.00     0.277 A 
HETATM   19  C   UNL     1      20.305  50.324  47.458  1.00  0.00     0.016 A 
HETATM   20  C   UNL     1      19.648  48.034  46.972  1.00  0.00     0.048 A 
HETATM   21  C   UNL     1      19.275  50.749  46.616  1.00  0.00     0.001 A 
HETATM   22  C   UNL     1      18.444  49.814  45.964  1.00  0.00     0.002 A 
HETATM   23  C   UNL     1      18.626  48.436  46.138  1.00  0.00     0.030 A 
HETATM   24  N   UNL     1      20.015  46.730  47.292  1.00  0.00    -0.321 N 
HETATM   25  H   UNL     1      19.576  45.888  46.950  1.00  0.00     0.169 HD
HETATM   26  O   UNL     1      21.677  45.782  48.639  1.00  0.00    -0.266 OA
ENDBRANCH  12  15
ENDBRANCH   1  11
BRANCH   8  27
HETATM   27  C   UNL     1      25.995  42.732  50.804  1.00  0.00     0.409 C 
HETATM   28  F   UNL     1      24.852  43.011  51.464  1.00  0.00    -0.169 F 
HETATM   29  F   UNL     1      25.640  42.431  49.527  1.00  0.00    -0.169 F 
HETATM   30  F   UNL     1      26.510  41.600  51.332  1.00  0.00    -0.169 F 
ENDBRANCH   8  27
BRANCH   6  31
HETATM   31  C   UNL     1      28.638  44.113  54.296  1.00  0.00    -0.035 A 
HETATM   32  C   UNL     1      28.731  45.245  55.122  1.00  0.00     0.012 A 
HETATM   33  C   UNL     1      29.763  45.356  56.058  1.00  0.00     0.043 A 
HETATM   34  C   UNL     1      30.702  44.337  56.172  1.00  0.00     0.116 A 
HETATM   35  F   UNL     1      31.688  44.448  57.070  1.00  0.00    -0.206 F 
HETATM   36  C   UNL     1      30.629  43.206  55.370  1.00  0.00     0.043 A 
HETATM   37  C   UNL     1      29.599  43.092  54.436  1.00  0.00     0.012 A 
ENDBRANCH   6  31
TORSDOF 4
ENDMDL
MODEL 2
REMARK VINA RESULT:     -10.8      1.742      2.619
REMARK  4 active torsions:
REMARK  status: ('A' for Active; 'I' for Inactive)
REMARK    1  A    between atoms: N_7  and  N_8 
REMARK       I    between atoms: N_8  and  C_9 
REMARK    2  A    between atoms: C_9  and  C_10 
REMARK    3  A    between atoms: C_15  and  C_16 
REMARK    4  A    between atoms: C_24  and  C_25 
ROOT
HETATM    1  C   UNL     1      25.243  44.039  50.457  1.00  0.00     0.150 A 
HETATM    2  N   UNL     1      26.396  43.440  50.078  1.00  0.00    -0.165 NA
HETATM    3  N   UNL     1      27.037  43.234  51.240  1.00  0.00    -0.240 N 
HETATM    4  C   UNL     1      26.397  43.750  52.331  1.00  0.00     0.123 A 
HETATM    5  N   UNL     1      26.972  43.740  53.551  1.00  0.00    -0.366 N 
HETATM    6  C   UNL     1      28.324  43.230  53.774  1.00  0.00     0.118 C 
HETATM    7  C   UNL     1      29.139  43.227  52.465  1.00  0.00     0.066 C 
HETATM    8  C   UNL     1      28.345  42.615  51.299  1.00  0.00     0.221 C 
HETATM    9  C   UNL     1      25.200  44.227  51.869  1.00  0.00     0.089 A 
HETATM   10  H   UNL     1      26.458  44.023  54.385  1.00  0.00     0.161 HD
ENDROOT
BRANCH   1  11
HETATM   11  C   UNL     1      24.217  44.454  49.487  1.00  0.00     0.292 C 
HETATM   12  N   UNL     1      23.581  45.628  49.861  1.00  0.00    -0.241 N 
HETATM   13  H   UNL     1      23.878  46.069  50.738  1.00  0.00     0.192 HD
HETATM   14  O   UNL     1      23.967  43.798  48.479  1.00  0.00    -0.264 OA
BRANCH  12  15
HETATM   15  N   UNL     1      22.576  46.159  49.108  1.00  0.00    -0.165 NA
HETATM   16  C   UNL     1      22.560  47.447  48.981  1.00  0.00     0.157 A 
HETATM   17  C   UNL     1      21.579  48.205  48.215  1.00  0.00     0.027 A 
HETATM   18  C   UNL     1      23.518  48.487  49.574  1.00  0.00     0.277 A 
HETATM   19  C   UNL     1      20.489  47.783  47.480  1.00  0.00     0.016 A 
HETATM   20  C   UNL     1      21.925  49.549  48.337  1.00  0.00     0.048 A 
HETATM   21  C   UNL     1      19.730  48.772  46.850  1.00  0.00     0.001 A 
HETATM   22  C   UNL     1      20.078  50.134  46.969  1.00  0.00     0.002 A 
HETATM   23  C   UNL     1      21.188  50.537  47.721  1.00  0.00     0.030 A 
HETATM   24  N   UNL     1      23.058  49.708  49.131  1.00  0.00    -0.321 N 
HETATM   25  H   UNL     1      23.500  50.585  49.366  1.00  0.00     0.169 HD
HETATM   26  O   UNL     1      24.469  48.241  50.285  1.00  0.00    -0.266 OA
ENDBRANCH  12  15
ENDBRANCH   1  11
BRANCH   8  27
HETATM   27  C   UNL     1      28.201  41.114  51.417  1.00  0.00     0.409 C 
HETATM   28  F   UNL     1      26.975  40.739  51.838  1.00  0.00    -0.169 F 
HETATM   29  F   UNL     1      28.384  40.540  50.199  1.00  0.00    -0.169 F 
HETATM   30  F   UNL     1      29.110  40.552  52.244  1.00  0.00    -0.169 F 
ENDBRANCH   8  27
BRANCH   6  31
HETATM   31  C   UNL     1      29.020  44.080  54.827  1.00  0.00    -0.035 A 
HETATM   32  C   UNL     1      28.399  45.238  55.323  1.00  0.00     0.012 A 
HETATM   33  C   UNL     1      29.025  46.011  56.306  1.00  0.00     0.043 A 
HETATM   34  C   UNL     1      30.268  45.628  56.795  1.00  0.00     0.116 A 
HETATM   35  F   UNL     1      30.863  46.371  57.736  1.00  0.00    -0.206 F 
HETATM   36  C   UNL     1      30.900  44.485  56.324  1.00  0.00     0.043 A 
HETATM   37  C   UNL     1      30.277  43.710  55.345  1.00  0.00     0.012 A 
ENDBRANCH   6  31
TORSDOF 4
ENDMDL
MODEL 3
REMARK VINA RESULT:     -10.6      3.673     10.198
REMARK  4 active torsions:
REMARK  status: ('A' for Active; 'I' for Inactive)
REMARK    1  A    between atoms: N_7  and  N_8 
REMARK       I    between atoms: N_8  and  C_9 
REMARK    2  A    between atoms: C_9  and  C_10 
REMARK    3  A    between atoms: C_15  and  C_16 
REMARK    4  A    between atoms: C_24  and  C_25 
ROOT
HETATM    1  C   UNL     1      24.358  46.545  49.501  1.00  0.00     0.150 A 
HETATM    2  N   UNL     1      23.258  45.793  49.265  1.00  0.00    -0.165 NA
HETATM    3  N   UNL     1      22.381  46.672  48.755  1.00  0.00    -0.240 N 
HETATM    4  C   UNL     1      22.829  47.962  48.736  1.00  0.00     0.123 A 
HETATM    5  N   UNL     1      22.021  48.980  48.375  1.00  0.00    -0.366 N 
HETATM    6  C   UNL     1      20.614  48.779  48.035  1.00  0.00     0.118 C 
HETATM    7  C   UNL     1      20.082  47.459  48.632  1.00  0.00     0.066 C 
HETATM    8  C   UNL     1      21.040  46.285  48.367  1.00  0.00     0.221 C 
HETATM    9  C   UNL     1      24.130  47.910  49.157  1.00  0.00     0.089 A 
HETATM   10  H   UNL     1      22.379  49.927  48.255  1.00  0.00     0.161 HD
ENDROOT
BRANCH   1  11
HETATM   11  C   UNL     1      25.589  45.981  50.074  1.00  0.00     0.292 C 
HETATM   12  N   UNL     1      25.387  45.448  51.339  1.00  0.00    -0.241 N 
HETATM   13  H   UNL     1      24.441  45.500  51.729  1.00  0.00     0.192 HD
HETATM   14  O   UNL     1      26.662  46.012  49.477  1.00  0.00    -0.264 OA
BRANCH  12  15
HETATM   15  N   UNL     1      26.416  44.906  52.051  1.00  0.00    -0.165 NA
HETATM   16  C   UNL     1      26.847  45.586  53.063  1.00  0.00     0.157 A 
HETATM   17  C   UNL     1      27.929  45.179  53.952  1.00  0.00     0.027 A 
HETATM   18  C   UNL     1      26.369  46.946  53.587  1.00  0.00     0.277 A 
HETATM   19  C   UNL     1      28.720  44.048  53.948  1.00  0.00     0.016 A 
HETATM   20  C   UNL     1      28.069  46.188  54.902  1.00  0.00     0.048 A 
HETATM   21  C   UNL     1      29.687  43.949  54.951  1.00  0.00     0.001 A 
HETATM   22  C   UNL     1      29.832  44.967  55.917  1.00  0.00     0.002 A 
HETATM   23  C   UNL     1      29.017  46.105  55.899  1.00  0.00     0.030 A 
HETATM   24  N   UNL     1      27.156  47.217  54.685  1.00  0.00    -0.321 N 
HETATM   25  H   UNL     1      27.064  48.056  55.238  1.00  0.00     0.169 HD
HETATM   26  O   UNL     1      25.481  47.612  53.099  1.00  0.00    -0.266 OA
ENDBRANCH  12  15
ENDBRANCH   1  11
BRANCH   8  27
HETATM   27  C   UNL     1      21.029  45.840  46.922  1.00  0.00     0.409 C 
HETATM   28  F   UNL     1      21.150  44.503  46.787  1.00  0.00    -0.169 F 
HETATM   29  F   UNL     1      19.845  46.181  46.348  1.00  0.00    -0.169 F 
HETATM   30  F   UNL     1      21.995  46.419  46.176  1.00  0.00    -0.169 F 
ENDBRANCH   8  27
BRANCH   6  31
HETATM   31  C   UNL     1      19.795  49.956  48.543  1.00  0.00    -0.035 A 
HETATM   32  C   UNL     1      20.079  51.257  48.099  1.00  0.00     0.012 A 
HETATM   33  C   UNL     1      19.316  52.340  48.547  1.00  0.00     0.043 A 
HETATM   34  C   UNL     1      18.269  52.125  49.435  1.00  0.00     0.116 A 
HETATM   35  F   UNL     1      17.541  53.164  49.861  1.00  0.00    -0.206 F 
HETATM   36  C   UNL     1      17.966  50.847  49.885  1.00  0.00     0.043 A 
HETATM   37  C   UNL     1      18.724  49.764  49.438  1.00  0.00     0.012 A 
ENDBRANCH   6  31
TORSDOF 4
ENDMDL
MODEL 4
REMARK VINA RESULT:     -10.5      3.250     10.151
REMARK  4 active torsions:
REMARK  status: ('A' for Active; 'I' for Inactive)
REMARK    1  A    between atoms: N_7  and  N_8 
REMARK       I    between atoms: N_8  and  C_9 
REMARK    2  A    between atoms: C_9  and  C_10 
REMARK    3  A    between atoms: C_15  and  C_16 
REMARK    4  A    between atoms: C_24  and  C_25 
ROOT
HETATM    1  C   UNL     1      25.380  44.794  51.606  1.00  0.00     0.150 A 
HETATM    2  N   UNL     1      24.290  44.165  51.110  1.00  0.00    -0.165 NA
HETATM    3  N   UNL     1      23.829  45.021  50.184  1.00  0.00    -0.240 N 
HETATM    4  C   UNL     1      24.514  46.202  50.124  1.00  0.00     0.123 A 
HETATM    5  N   UNL     1      24.098  47.215  49.338  1.00  0.00    -0.366 N 
HETATM    6  C   UNL     1      22.872  47.138  48.547  1.00  0.00     0.118 C 
HETATM    7  C   UNL     1      21.914  46.069  49.112  1.00  0.00     0.066 C 
HETATM    8  C   UNL     1      22.641  44.746  49.403  1.00  0.00     0.221 C 
HETATM    9  C   UNL     1      25.565  46.066  50.992  1.00  0.00     0.089 A 
HETATM   10  H   UNL     1      24.663  48.054  49.207  1.00  0.00     0.161 HD
ENDROOT
BRANCH   1  11
HETATM   11  C   UNL     1      26.211  44.207  52.669  1.00  0.00     0.292 C 
HETATM   12  N   UNL     1      27.550  44.541  52.538  1.00  0.00    -0.241 N 
HETATM   13  H   UNL     1      27.815  45.138  51.748  1.00  0.00     0.192 HD
HETATM   14  O   UNL     1      25.737  43.490  53.548  1.00  0.00    -0.264 OA
BRANCH  12  15
HETATM   15  N   UNL     1      28.486  44.066  53.410  1.00  0.00    -0.165 NA
HETATM   16  C   UNL     1      28.736  44.794  54.450  1.00  0.00     0.157 A 
HETATM   17  C   UNL     1      29.692  44.461  55.499  1.00  0.00     0.027 A 
HETATM   18  C   UNL     1      28.131  46.144  54.852  1.00  0.00     0.277 A 
HETATM   19  C   UNL     1      30.522  43.369  55.649  1.00  0.00     0.016 A 
HETATM   20  C   UNL     1      29.650  45.502  56.425  1.00  0.00     0.048 A 
HETATM   21  C   UNL     1      31.335  43.342  56.784  1.00  0.00     0.001 A 
HETATM   22  C   UNL     1      31.295  44.392  57.725  1.00  0.00     0.002 A 
HETATM   23  C   UNL     1      30.445  45.491  57.551  1.00  0.00     0.030 A 
HETATM   24  N   UNL     1      28.737  46.481  56.043  1.00  0.00    -0.321 N 
HETATM   25  H   UNL     1      28.530  47.330  56.548  1.00  0.00     0.169 HD
HETATM   26  O   UNL     1      27.297  46.755  54.219  1.00  0.00    -0.266 OA
ENDBRANCH  12  15
ENDBRANCH   1  11
BRANCH   8  27
HETATM   27  C   UNL     1      23.015  43.998  48.143  1.00  0.00     0.409 C 
HETATM   28  F   UNL     1      24.297  44.202  47.774  1.00  0.00    -0.169 F 
HETATM   29  F   UNL     1      22.880  42.661  48.349  1.00  0.00    -0.169 F 
HETATM   30  F   UNL     1      22.229  44.301  47.087  1.00  0.00    -0.169 F 
ENDBRANCH   8  27
BRANCH   6  31
HETATM   31  C   UNL     1      22.192  48.499  48.529  1.00  0.00    -0.035 A 
HETATM   32  C   UNL     1      22.901  49.647  48.919  1.00  0.00     0.012 A 
HETATM   33  C   UNL     1      22.288  50.903  48.886  1.00  0.00     0.043 A 
HETATM   34  C   UNL     1      20.969  51.015  48.460  1.00  0.00     0.116 A 
HETATM   35  F   UNL     1      20.386  52.219  48.429  1.00  0.00    -0.206 F 
HETATM   36  C   UNL     1      20.249  49.895  48.065  1.00  0.00     0.043 A 
HETATM   37  C   UNL     1      20.859  48.641  48.096  1.00  0.00     0.012 A 
ENDBRANCH   6  31
TORSDOF 4
ENDMDL
MODEL 5
REMARK VINA RESULT:     -10.5      2.814      4.838
REMARK  4 active torsions:
REMARK  status: ('A' for Active; 'I' for Inactive)
REMARK    1  A    between atoms: N_7  and  N_8 
REMARK       I    between atoms: N_8  and  C_9 
REMARK    2  A    between atoms: C_9  and  C_10 
REMARK    3  A    between atoms: C_15  and  C_16 
REMARK    4  A    between atoms: C_24  and  C_25 
ROOT
HETATM    1  C   UNL     1      26.309  45.540  51.818  1.00  0.00     0.150 A 
HETATM    2  N   UNL     1      26.582  44.916  52.986  1.00  0.00    -0.165 NA
HETATM    3  N   UNL     1      27.283  43.835  52.607  1.00  0.00    -0.240 N 
HETATM    4  C   UNL     1      27.395  43.688  51.254  1.00  0.00     0.123 A 
HETATM    5  N   UNL     1      27.956  42.588  50.711  1.00  0.00    -0.366 N 
HETATM    6  C   UNL     1      28.429  41.470  51.525  1.00  0.00     0.118 C 
HETATM    7  C   UNL     1      27.754  41.468  52.911  1.00  0.00     0.066 C 
HETATM    8  C   UNL     1      27.775  42.862  53.560  1.00  0.00     0.221 C 
HETATM    9  C   UNL     1      26.826  44.808  50.710  1.00  0.00     0.089 A 
HETATM   10  H   UNL     1      28.140  42.522  49.710  1.00  0.00     0.161 HD
ENDROOT
BRANCH   1  11
HETATM   11  C   UNL     1      25.540  46.793  51.757  1.00  0.00     0.292 C 
HETATM   12  N   UNL     1      25.069  47.062  50.480  1.00  0.00    -0.241 N 
HETATM   13  H   UNL     1      25.294  46.390  49.740  1.00  0.00     0.192 HD
HETATM   14  O   UNL     1      25.371  47.505  52.744  1.00  0.00    -0.264 OA
BRANCH  12  15
HETATM   15  N   UNL     1      24.360  48.196  50.213  1.00  0.00    -0.165 NA
HETATM   16  C   UNL     1      23.352  48.078  49.410  1.00  0.00     0.157 A 
HETATM   17  C   UNL     1      22.467  49.163  49.004  1.00  0.00     0.027 A 
HETATM   18  C   UNL     1      22.832  46.827  48.691  1.00  0.00     0.277 A 
HETATM   19  C   UNL     1      22.471  50.501  49.341  1.00  0.00     0.016 A 
HETATM   20  C   UNL     1      21.522  48.609  48.144  1.00  0.00     0.048 A 
HETATM   21  C   UNL     1      21.472  51.298  48.778  1.00  0.00     0.001 A 
HETATM   22  C   UNL     1      20.510  50.743  47.907  1.00  0.00     0.002 A 
HETATM   23  C   UNL     1      20.529  49.381  47.580  1.00  0.00     0.030 A 
HETATM   24  N   UNL     1      21.738  47.246  47.965  1.00  0.00    -0.321 N 
HETATM   25  H   UNL     1      21.188  46.628  47.388  1.00  0.00     0.169 HD
HETATM   26  O   UNL     1      23.317  45.719  48.772  1.00  0.00    -0.266 OA
ENDBRANCH  12  15
ENDBRANCH   1  11
BRANCH   8  27
HETATM   27  C   UNL     1      29.153  43.260  54.038  1.00  0.00     0.409 C 
HETATM   28  F   UNL     1      29.140  44.371  54.804  1.00  0.00    -0.169 F 
HETATM   29  F   UNL     1      29.674  42.268  54.807  1.00  0.00    -0.169 F 
HETATM   30  F   UNL     1      30.032  43.463  53.033  1.00  0.00    -0.169 F 
ENDBRANCH   8  27
BRANCH   6  31
HETATM   31  C   UNL     1      28.152  40.161  50.800  1.00  0.00    -0.035 A 
HETATM   32  C   UNL     1      26.890  39.922  50.233  1.00  0.00     0.012 A 
HETATM   33  C   UNL     1      26.635  38.730  49.549  1.00  0.00     0.043 A 
HETATM   34  C   UNL     1      27.640  37.777  49.428  1.00  0.00     0.116 A 
HETATM   35  F   UNL     1      27.392  36.637  48.772  1.00  0.00    -0.206 F 
HETATM   36  C   UNL     1      28.898  37.992  49.976  1.00  0.00     0.043 A 
HETATM   37  C   UNL     1      29.155  39.182  50.658  1.00  0.00     0.012 A 
ENDBRANCH   6  31
TORSDOF 4
ENDMDL
MODEL 6
REMARK VINA RESULT:     -10.2      3.037     10.265
REMARK  4 active torsions:
REMARK  status: ('A' for Active; 'I' for Inactive)
REMARK    1  A    between atoms: N_7  and  N_8 
REMARK       I    between atoms: N_8  and  C_9 
REMARK    2  A    between atoms: C_9  and  C_10 
REMARK    3  A    between atoms: C_15  and  C_16 
REMARK    4  A    between atoms: C_24  and  C_25 
ROOT
HETATM    1  C   UNL     1      25.109  45.146  52.399  1.00  0.00     0.150 A 
HETATM    2  N   UNL     1      24.455  44.072  51.900  1.00  0.00    -0.165 NA
HETATM    3  N   UNL     1      24.017  44.499  50.705  1.00  0.00    -0.240 N 
HETATM    4  C   UNL     1      24.279  45.815  50.452  1.00  0.00     0.123 A 
HETATM    5  N   UNL     1      23.793  46.428  49.353  1.00  0.00    -0.366 N 
HETATM    6  C   UNL     1      22.920  45.747  48.399  1.00  0.00     0.118 C 
HETATM    7  C   UNL     1      22.238  44.525  49.047  1.00  0.00     0.066 C 
HETATM    8  C   UNL     1      23.240  43.654  49.822  1.00  0.00     0.221 C 
HETATM    9  C   UNL     1      25.039  46.252  51.503  1.00  0.00     0.089 A 
HETATM   10  H   UNL     1      24.074  47.377  49.104  1.00  0.00     0.161 HD
ENDROOT
BRANCH   1  11
HETATM   11  C   UNL     1      25.760  45.128  53.718  1.00  0.00     0.292 C 
HETATM   12  N   UNL     1      27.001  45.745  53.703  1.00  0.00    -0.241 N 
HETATM   13  H   UNL     1      27.326  46.136  52.813  1.00  0.00     0.192 HD
HETATM   14  O   UNL     1      25.238  44.599  54.697  1.00  0.00    -0.264 OA
BRANCH  12  15
HETATM   15  N   UNL     1      27.776  45.803  54.825  1.00  0.00    -0.165 NA
HETATM   16  C   UNL     1      28.739  44.943  54.913  1.00  0.00     0.157 A 
HETATM   17  C   UNL     1      29.680  44.844  56.022  1.00  0.00     0.027 A 
HETATM   18  C   UNL     1      29.139  43.838  53.928  1.00  0.00     0.277 A 
HETATM   19  C   UNL     1      29.784  45.583  57.183  1.00  0.00     0.016 A 
HETATM   20  C   UNL     1      30.547  43.797  55.720  1.00  0.00     0.048 A 
HETATM   21  C   UNL     1      30.812  45.236  58.063  1.00  0.00     0.001 A 
HETATM   22  C   UNL     1      31.695  44.178  57.761  1.00  0.00     0.002 A 
HETATM   23  C   UNL     1      31.567  43.443  56.576  1.00  0.00     0.030 A 
HETATM   24  N   UNL     1      30.229  43.214  54.496  1.00  0.00    -0.321 N 
HETATM   25  H   UNL     1      30.710  42.439  54.064  1.00  0.00     0.169 HD
HETATM   26  O   UNL     1      28.581  43.597  52.879  1.00  0.00    -0.266 OA
ENDBRANCH  12  15
ENDBRANCH   1  11
BRANCH   8  27
HETATM   27  C   UNL     1      24.162  42.876  48.910  1.00  0.00     0.409 C 
HETATM   28  F   UNL     1      25.396  43.416  48.829  1.00  0.00    -0.169 F 
HETATM   29  F   UNL     1      24.323  41.615  49.391  1.00  0.00    -0.169 F 
HETATM   30  F   UNL     1      23.686  42.744  47.652  1.00  0.00    -0.169 F 
ENDBRANCH   8  27
BRANCH   6  31
HETATM   31  C   UNL     1      21.874  46.723  47.880  1.00  0.00    -0.035 A 
HETATM   32  C   UNL     1      21.878  48.058  48.314  1.00  0.00     0.012 A 
HETATM   33  C   UNL     1      20.932  48.964  47.825  1.00  0.00     0.043 A 
HETATM   34  C   UNL     1      19.984  48.539  46.902  1.00  0.00     0.116 A 
HETATM   35  F   UNL     1      19.081  49.409  46.436  1.00  0.00    -0.206 F 
HETATM   36  C   UNL     1      19.963  47.224  46.455  1.00  0.00     0.043 A 
HETATM   37  C   UNL     1      20.907  46.319  46.939  1.00  0.00     0.012 A 
ENDBRANCH   6  31
TORSDOF 4
ENDMDL
MODEL 7
REMARK VINA RESULT:     -10.2      3.689     10.283
REMARK  4 active torsions:
REMARK  status: ('A' for Active; 'I' for Inactive)
REMARK    1  A    between atoms: N_7  and  N_8 
REMARK       I    between atoms: N_8  and  C_9 
REMARK    2  A    between atoms: C_9  and  C_10 
REMARK    3  A    between atoms: C_15  and  C_16 
REMARK    4  A    between atoms: C_24  and  C_25 
ROOT
HETATM    1  C   UNL     1      24.199  47.472  49.499  1.00  0.00     0.150 A 
HETATM    2  N   UNL     1      23.172  46.602  49.357  1.00  0.00    -0.165 NA
HETATM    3  N   UNL     1      22.203  47.350  48.804  1.00  0.00    -0.240 N 
HETATM    4  C   UNL     1      22.525  48.670  48.669  1.00  0.00     0.123 A 
HETATM    5  N   UNL     1      21.615  49.574  48.251  1.00  0.00    -0.366 N 
HETATM    6  C   UNL     1      20.227  49.214  47.970  1.00  0.00     0.118 C 
HETATM    7  C   UNL     1      19.838  47.904  48.686  1.00  0.00     0.066 C 
HETATM    8  C   UNL     1      20.898  46.808  48.488  1.00  0.00     0.221 C 
HETATM    9  C   UNL     1      23.834  48.776  49.054  1.00  0.00     0.089 A 
HETATM   10  H   UNL     1      21.877  50.538  48.044  1.00  0.00     0.161 HD
ENDROOT
BRANCH   1  11
HETATM   11  C   UNL     1      25.491  47.075  50.080  1.00  0.00     0.292 C 
HETATM   12  N   UNL     1      25.703  45.706  50.011  1.00  0.00    -0.241 N 
HETATM   13  H   UNL     1      24.969  45.134  49.581  1.00  0.00     0.192 HD
HETATM   14  O   UNL     1      26.262  47.892  50.577  1.00  0.00    -0.264 OA
BRANCH  12  15
HETATM   15  N   UNL     1      26.831  45.138  50.526  1.00  0.00    -0.165 NA
HETATM   16  C   UNL     1      26.695  44.459  51.619  1.00  0.00     0.157 A 
HETATM   17  C   UNL     1      27.771  43.771  52.322  1.00  0.00     0.027 A 
HETATM   18  C   UNL     1      25.428  44.202  52.444  1.00  0.00     0.277 A 
HETATM   19  C   UNL     1      29.117  43.672  52.032  1.00  0.00     0.016 A 
HETATM   20  C   UNL     1      27.199  43.167  53.439  1.00  0.00     0.048 A 
HETATM   21  C   UNL     1      29.901  42.928  52.916  1.00  0.00     0.001 A 
HETATM   22  C   UNL     1      29.327  42.312  54.048  1.00  0.00     0.002 A 
HETATM   23  C   UNL     1      27.958  42.429  54.321  1.00  0.00     0.030 A 
HETATM   24  N   UNL     1      25.831  43.420  53.506  1.00  0.00    -0.321 N 
HETATM   25  H   UNL     1      25.201  43.092  54.222  1.00  0.00     0.169 HD
HETATM   26  O   UNL     1      24.322  44.623  52.182  1.00  0.00    -0.266 OA
ENDBRANCH  12  15
ENDBRANCH   1  11
BRANCH   8  27
HETATM   27  C   UNL     1      20.899  46.245  47.084  1.00  0.00     0.409 C 
HETATM   28  F   UNL     1      21.965  46.647  46.361  1.00  0.00    -0.169 F 
HETATM   29  F   UNL     1      20.957  44.888  47.136  1.00  0.00    -0.169 F 
HETATM   30  F   UNL     1      19.786  46.552  46.383  1.00  0.00    -0.169 F 
ENDBRANCH   8  27
BRANCH   6  31
HETATM   31  C   UNL     1      19.309  50.346  48.405  1.00  0.00    -0.035 A 
HETATM   32  C   UNL     1      18.104  50.063  49.069  1.00  0.00     0.012 A 
HETATM   33  C   UNL     1      17.267  51.100  49.490  1.00  0.00     0.043 A 
HETATM   34  C   UNL     1      17.632  52.420  49.252  1.00  0.00     0.116 A 
HETATM   35  F   UNL     1      16.827  53.410  49.656  1.00  0.00    -0.206 F 
HETATM   36  C   UNL     1      18.820  52.725  48.601  1.00  0.00     0.043 A 
HETATM   37  C   UNL     1      19.658  51.693  48.182  1.00  0.00     0.012 A 
ENDBRANCH   6  31
TORSDOF 4
ENDMDL
MODEL 8
REMARK VINA RESULT:     -10.1      5.303      8.619
REMARK  4 active torsions:
REMARK  status: ('A' for Active; 'I' for Inactive)
REMARK    1  A    between atoms: N_7  and  N_8 
REMARK       I    between atoms: N_8  and  C_9 
REMARK    2  A    between atoms: C_9  and  C_10 
REMARK    3  A    between atoms: C_15  and  C_16 
REMARK    4  A    between atoms: C_24  and  C_25 
ROOT
HETATM    1  C   UNL     1      26.544  41.739  50.998  1.00  0.00     0.150 A 
HETATM    2  N   UNL     1      25.715  42.635  51.581  1.00  0.00    -0.165 NA
HETATM    3  N   UNL     1      26.551  43.441  52.256  1.00  0.00    -0.240 N 
HETATM    4  C   UNL     1      27.860  43.054  52.209  1.00  0.00     0.123 A 
HETATM    5  N   UNL     1      28.804  43.682  52.939  1.00  0.00    -0.366 N 
HETATM    6  C   UNL     1      28.484  44.772  53.859  1.00  0.00     0.118 C 
HETATM    7  C   UNL     1      26.997  44.735  54.267  1.00  0.00     0.066 C 
HETATM    8  C   UNL     1      26.075  44.555  53.050  1.00  0.00     0.221 C 
HETATM    9  C   UNL     1      27.902  41.987  51.352  1.00  0.00     0.089 A 
HETATM   10  H   UNL     1      29.795  43.469  52.825  1.00  0.00     0.161 HD
ENDROOT
BRANCH   1  11
HETATM   11  C   UNL     1      26.047  40.646  50.148  1.00  0.00     0.292 C 
HETATM   12  N   UNL     1      26.741  39.462  50.349  1.00  0.00    -0.241 N 
HETATM   13  H   UNL     1      27.498  39.468  51.041  1.00  0.00     0.192 HD
HETATM   14  O   UNL     1      25.130  40.807  49.346  1.00  0.00    -0.264 OA
BRANCH  12  15
HETATM   15  N   UNL     1      26.450  38.340  49.630  1.00  0.00    -0.165 NA
HETATM   16  C   UNL     1      27.254  38.045  48.660  1.00  0.00     0.157 A 
HETATM   17  C   UNL     1      27.123  36.889  47.781  1.00  0.00     0.027 A 
HETATM   18  C   UNL     1      28.505  38.791  48.182  1.00  0.00     0.277 A 
HETATM   19  C   UNL     1      26.179  35.882  47.752  1.00  0.00     0.016 A 
HETATM   20  C   UNL     1      28.188  36.944  46.885  1.00  0.00     0.048 A 
HETATM   21  C   UNL     1      26.332  34.900  46.771  1.00  0.00     0.001 A 
HETATM   22  C   UNL     1      27.410  34.949  45.862  1.00  0.00     0.002 A 
HETATM   23  C   UNL     1      28.354  35.982  45.912  1.00  0.00     0.030 A 
HETATM   24  N   UNL     1      28.992  38.054  47.123  1.00  0.00    -0.321 N 
HETATM   25  H   UNL     1      29.820  38.310  46.606  1.00  0.00     0.169 HD
HETATM   26  O   UNL     1      28.938  39.816  48.663  1.00  0.00    -0.266 OA
ENDBRANCH  12  15
ENDBRANCH   1  11
BRANCH   8  27
HETATM   27  C   UNL     1      25.990  45.799  52.195  1.00  0.00     0.409 C 
HETATM   28  F   UNL     1      26.805  45.751  51.121  1.00  0.00    -0.169 F 
HETATM   29  F   UNL     1      24.726  45.938  51.714  1.00  0.00    -0.169 F 
HETATM   30  F   UNL     1      26.266  46.935  52.872  1.00  0.00    -0.169 F 
ENDBRANCH   8  27
BRANCH   6  31
HETATM   31  C   UNL     1      29.372  44.674  55.091  1.00  0.00    -0.035 A 
HETATM   32  C   UNL     1      30.279  43.611  55.225  1.00  0.00     0.012 A 
HETATM   33  C   UNL     1      31.111  43.527  56.345  1.00  0.00     0.043 A 
HETATM   34  C   UNL     1      31.042  44.506  57.330  1.00  0.00     0.116 A 
HETATM   35  F   UNL     1      31.841  44.422  58.400  1.00  0.00    -0.206 F 
HETATM   36  C   UNL     1      30.156  45.569  57.217  1.00  0.00     0.043 A 
HETATM   37  C   UNL     1      29.326  45.656  56.100  1.00  0.00     0.012 A 
ENDBRANCH   6  31
TORSDOF 4
ENDMDL
MODEL 9
REMARK VINA RESULT:      -9.7      2.967      4.438
REMARK  4 active torsions:
REMARK  status: ('A' for Active; 'I' for Inactive)
REMARK    1  A    between atoms: N_7  and  N_8 
REMARK       I    between atoms: N_8  and  C_9 
REMARK    2  A    between atoms: C_9  and  C_10 
REMARK    3  A    between atoms: C_15  and  C_16 
REMARK    4  A    between atoms: C_24  and  C_25 
ROOT
HETATM    1  C   UNL     1      22.828  46.771  48.790  1.00  0.00     0.150 A 
HETATM    2  N   UNL     1      23.630  47.630  49.461  1.00  0.00    -0.165 NA
HETATM    3  N   UNL     1      24.727  46.899  49.717  1.00  0.00    -0.240 N 
HETATM    4  C   UNL     1      24.633  45.594  49.325  1.00  0.00     0.123 A 
HETATM    5  N   UNL     1      25.597  44.700  49.626  1.00  0.00    -0.366 N 
HETATM    6  C   UNL     1      26.767  45.051  50.428  1.00  0.00     0.118 C 
HETATM    7  C   UNL     1      26.499  46.311  51.277  1.00  0.00     0.066 C 
HETATM    8  C   UNL     1      25.858  47.435  50.446  1.00  0.00     0.221 C 
HETATM    9  C   UNL     1      23.437  45.489  48.666  1.00  0.00     0.089 A 
HETATM   10  H   UNL     1      25.584  43.754  49.244  1.00  0.00     0.161 HD
ENDROOT
BRANCH   1  11
HETATM   11  C   UNL     1      21.493  47.157  48.307  1.00  0.00     0.292 C 
HETATM   12  N   UNL     1      20.817  47.963  49.210  1.00  0.00    -0.241 N 
HETATM   13  H   UNL     1      21.295  48.199  50.085  1.00  0.00     0.192 HD
HETATM   14  O   UNL     1      21.053  46.772  47.226  1.00  0.00    -0.264 OA
BRANCH  12  15
HETATM   15  N   UNL     1      19.549  48.399  48.958  1.00  0.00    -0.165 NA
HETATM   16  C   UNL     1      19.284  49.628  49.264  1.00  0.00     0.157 A 
HETATM   17  C   UNL     1      17.998  50.285  49.067  1.00  0.00     0.027 A 
HETATM   18  C   UNL     1      20.200  50.686  49.891  1.00  0.00     0.277 A 
HETATM   19  C   UNL     1      16.813  49.807  48.546  1.00  0.00     0.016 A 
HETATM   20  C   UNL     1      18.142  51.594  49.524  1.00  0.00     0.048 A 
HETATM   21  C   UNL     1      15.741  50.701  48.490  1.00  0.00     0.001 A 
HETATM   22  C   UNL     1      15.881  52.027  48.948  1.00  0.00     0.002 A 
HETATM   23  C   UNL     1      17.094  52.488  49.475  1.00  0.00     0.030 A 
HETATM   24  N   UNL     1      19.429  51.823  50.002  1.00  0.00    -0.321 N 
HETATM   25  H   UNL     1      19.774  52.690  50.386  1.00  0.00     0.169 HD
HETATM   26  O   UNL     1      21.356  50.512  50.210  1.00  0.00    -0.266 OA
ENDBRANCH  12  15
ENDBRANCH   1  11
BRANCH   8  27
HETATM   27  C   UNL     1      26.833  48.077  49.485  1.00  0.00     0.409 C 
HETATM   28  F   UNL     1      26.221  48.814  48.534  1.00  0.00    -0.169 F 
HETATM   29  F   UNL     1      27.652  48.923  50.162  1.00  0.00    -0.169 F 
HETATM   30  F   UNL     1      27.636  47.187  48.863  1.00  0.00    -0.169 F 
ENDBRANCH   8  27
BRANCH   6  31
HETATM   31  C   UNL     1      27.139  43.880  51.325  1.00  0.00    -0.035 A 
HETATM   32  C   UNL     1      26.935  42.562  50.885  1.00  0.00     0.012 A 
HETATM   33  C   UNL     1      27.295  41.482  51.696  1.00  0.00     0.043 A 
HETATM   34  C   UNL     1      27.860  41.715  52.944  1.00  0.00     0.116 A 
HETATM   35  F   UNL     1      28.203  40.678  53.718  1.00  0.00    -0.206 F 
HETATM   36  C   UNL     1      28.076  43.010  53.399  1.00  0.00     0.043 A 
HETATM   37  C   UNL     1      27.720  44.089  52.591  1.00  0.00     0.012 A 
ENDBRANCH   6  31
TORSDOF 4
ENDMDL
MODEL 10
REMARK VINA RESULT:      -9.6      2.590      3.145
REMARK  4 active torsions:
REMARK  status: ('A' for Active; 'I' for Inactive)
REMARK    1  A    between atoms: N_7  and  N_8 
REMARK       I    between atoms: N_8  and  C_9 
REMARK    2  A    between atoms: C_9  and  C_10 
REMARK    3  A    between atoms: C_15  and  C_16 
REMARK    4  A    between atoms: C_24  and  C_25 
ROOT
HETATM    1  C   UNL     1      26.322  44.429  50.494  1.00  0.00     0.150 A 
HETATM    2  N   UNL     1      27.353  43.594  50.226  1.00  0.00    -0.165 NA
HETATM    3  N   UNL     1      27.805  43.254  51.444  1.00  0.00    -0.240 N 
HETATM    4  C   UNL     1      27.177  43.897  52.472  1.00  0.00     0.123 A 
HETATM    5  N   UNL     1      27.600  43.762  53.746  1.00  0.00    -0.366 N 
HETATM    6  C   UNL     1      28.777  42.972  54.100  1.00  0.00     0.118 C 
HETATM    7  C   UNL     1      29.710  42.792  52.884  1.00  0.00     0.066 C 
HETATM    8  C   UNL     1      28.934  42.366  51.626  1.00  0.00     0.221 C 
HETATM    9  C   UNL     1      26.168  44.622  51.897  1.00  0.00     0.089 A 
HETATM   10  H   UNL     1      27.071  44.151  54.527  1.00  0.00     0.161 HD
ENDROOT
BRANCH   1  11
HETATM   11  C   UNL     1      25.522  45.056  49.431  1.00  0.00     0.292 C 
HETATM   12  N   UNL     1      24.656  44.160  48.823  1.00  0.00    -0.241 N 
HETATM   13  H   UNL     1      24.660  43.192  49.162  1.00  0.00     0.192 HD
HETATM   14  O   UNL     1      25.648  46.241  49.131  1.00  0.00    -0.264 OA
BRANCH  12  15
HETATM   15  N   UNL     1      23.850  44.543  47.791  1.00  0.00    -0.165 NA
HETATM   16  C   UNL     1      22.599  44.725  48.064  1.00  0.00     0.157 A 
HETATM   17  C   UNL     1      21.580  45.140  47.108  1.00  0.00     0.027 A 
HETATM   18  C   UNL     1      21.869  44.559  49.403  1.00  0.00     0.277 A 
HETATM   19  C   UNL     1      21.673  45.426  45.761  1.00  0.00     0.016 A 
HETATM   20  C   UNL     1      20.379  45.218  47.809  1.00  0.00     0.048 A 
HETATM   21  C   UNL     1      20.496  45.804  45.112  1.00  0.00     0.001 A 
HETATM   22  C   UNL     1      19.277  45.887  45.817  1.00  0.00     0.002 A 
HETATM   23  C   UNL     1      19.208  45.591  47.184  1.00  0.00     0.030 A 
HETATM   24  N   UNL     1      20.553  44.879  49.148  1.00  0.00    -0.321 N 
HETATM   25  H   UNL     1      19.832  44.859  49.854  1.00  0.00     0.169 HD
HETATM   26  O   UNL     1      22.384  44.212  50.444  1.00  0.00    -0.266 OA
ENDBRANCH  12  15
ENDBRANCH   1  11
BRANCH   8  27
HETATM   27  C   UNL     1      28.458  40.933  51.694  1.00  0.00     0.409 C 
HETATM   28  F   UNL     1      29.149  40.194  52.587  1.00  0.00    -0.169 F 
HETATM   29  F   UNL     1      27.158  40.902  52.091  1.00  0.00    -0.169 F 
HETATM   30  F   UNL     1      28.508  40.294  50.505  1.00  0.00    -0.169 F 
ENDBRANCH   8  27
BRANCH   6  31
HETATM   31  C   UNL     1      29.522  43.650  55.240  1.00  0.00    -0.035 A 
HETATM   32  C   UNL     1      30.599  43.001  55.865  1.00  0.00     0.012 A 
HETATM   33  C   UNL     1      31.299  43.627  56.899  1.00  0.00     0.043 A 
HETATM   34  C   UNL     1      30.928  44.903  57.309  1.00  0.00     0.116 A 
HETATM   35  F   UNL     1      31.602  45.499  58.300  1.00  0.00    -0.206 F 
HETATM   36  C   UNL     1      29.869  45.567  56.704  1.00  0.00     0.043 A 
HETATM   37  C   UNL     1      29.170  44.945  55.670  1.00  0.00     0.012 A 
ENDBRANCH   6  31
TORSDOF 4
ENDMDL
