MODEL 1
REMARK VINA RESULT:      -7.8      0.000      0.000
REMARK  5 active torsions:
REMARK  status: ('A' for Active; 'I' for Inactive)
REMARK    1  A    between atoms: C_2  and  C_3 
REMARK    2  A    between atoms: C_3  and  N_4 
REMARK    3  A    between atoms: C_3  and  C_19 
REMARK       I    between atoms: N_4  and  C_5 
REMARK    4  A    between atoms: C_5  and  C_6 
REMARK    5  A    between atoms: C_7  and  C_8 
ROOT
HETATM    1  N   UNL     1      27.470  43.220  51.656  1.00  0.00    -0.345 N 
HETATM    2  C   UNL     1      26.231  43.810  51.679  1.00  0.00     0.255 C 
HETATM    3  O   UNL     1      25.207  43.182  51.928  1.00  0.00    -0.268 OA
HETATM    4  H   UNL     1      28.260  43.733  51.294  1.00  0.00     0.163 HD
ENDROOT
BRANCH   2   5
HETATM    5  C   UNL     1      26.232  45.240  51.410  1.00  0.00     0.075 A 
HETATM    6  C   UNL     1      26.088  46.314  52.345  1.00  0.00     0.076 A 
HETATM    7  N   UNL     1      26.135  47.505  51.728  1.00  0.00    -0.178 NA
HETATM    8  N   UNL     1      26.298  47.207  50.434  1.00  0.00    -0.288 N 
HETATM    9  H   UNL     1      26.350  47.974  49.771  1.00  0.00     0.188 HD
HETATM   10  C   UNL     1      26.375  45.871  50.189  1.00  0.00     0.128 A 
BRANCH   6  11
HETATM   11  C   UNL     1      25.922  46.213  53.849  1.00  0.00     0.040 C 
HETATM   12  C   UNL     1      26.745  45.056  54.448  1.00  0.00     0.011 C 
HETATM   13  C   UNL     1      28.231  45.381  54.565  1.00  0.00     0.001 C 
HETATM   14  C   UNL     1      28.456  46.647  55.384  1.00  0.00     0.000 C 
HETATM   15  C   UNL     1      27.688  47.830  54.810  1.00  0.00     0.001 C 
HETATM   16  C   UNL     1      26.200  47.519  54.621  1.00  0.00     0.011 C 
ENDBRANCH   6  11
ENDBRANCH   2   5
BRANCH   1  17
HETATM   17  C   UNL     1      27.645  41.794  51.859  1.00  0.00     0.154 C 
BRANCH  17  18
HETATM   18  C   UNL     1      28.762  41.515  52.873  1.00  0.00     0.028 C 
HETATM   19  C   UNL     1      29.844  42.589  52.850  1.00  0.00     0.007 C 
ENDBRANCH  17  18
BRANCH  17  20
HETATM   20  C   UNL     1      27.950  41.196  50.519  1.00  0.00     0.127 A 
HETATM   21  N   UNL     1      27.527  41.602  49.337  1.00  0.00    -0.237 NA
HETATM   22  C   UNL     1      28.071  40.734  48.422  1.00  0.00     0.048 A 
HETATM   23  C   UNL     1      27.826  40.906  46.973  1.00  0.00     0.072 C 
HETATM   24  C   UNL     1      28.820  39.772  49.064  1.00  0.00     0.116 A 
HETATM   25  N   UNL     1      28.723  40.067  50.395  1.00  0.00    -0.351 N 
HETATM   26  H   UNL     1      29.124  39.547  51.165  1.00  0.00     0.166 HD
ENDBRANCH  17  20
ENDBRANCH   1  17
TORSDOF 5
ENDMDL
MODEL 2
REMARK VINA RESULT:      -7.7      2.921      5.720
REMARK  5 active torsions:
REMARK  status: ('A' for Active; 'I' for Inactive)
REMARK    1  A    between atoms: C_2  and  C_3 
REMARK    2  A    between atoms: C_3  and  N_4 
REMARK    3  A    between atoms: C_3  and  C_19 
REMARK       I    between atoms: N_4  and  C_5 
REMARK    4  A    between atoms: C_5  and  C_6 
REMARK    5  A    between atoms: C_7  and  C_8 
ROOT
HETATM    1  N   UNL     1      25.677  46.084  51.737  1.00  0.00    -0.345 N 
HETATM    2  C   UNL     1      25.639  45.593  53.019  1.00  0.00     0.255 C 
HETATM    3  O   UNL     1      24.760  44.828  53.405  1.00  0.00    -0.268 OA
HETATM    4  H   UNL     1      26.319  46.828  51.508  1.00  0.00     0.163 HD
ENDROOT
BRANCH   2   5
HETATM    5  C   UNL     1      26.735  46.028  53.871  1.00  0.00     0.075 A 
HETATM    6  C   UNL     1      27.721  45.221  54.523  1.00  0.00     0.076 A 
HETATM    7  N   UNL     1      28.575  45.976  55.232  1.00  0.00    -0.178 NA
HETATM    8  N   UNL     1      28.149  47.230  55.048  1.00  0.00    -0.288 N 
HETATM    9  H   UNL     1      28.653  47.979  55.512  1.00  0.00     0.188 HD
HETATM   10  C   UNL     1      27.061  47.321  54.235  1.00  0.00     0.128 A 
BRANCH   6  11
HETATM   11  C   UNL     1      27.870  43.714  54.458  1.00  0.00     0.040 C 
HETATM   12  C   UNL     1      27.805  43.185  53.013  1.00  0.00     0.011 C 
HETATM   13  C   UNL     1      29.099  43.413  52.237  1.00  0.00     0.001 C 
HETATM   14  C   UNL     1      30.291  42.792  52.957  1.00  0.00     0.000 C 
HETATM   15  C   UNL     1      30.417  43.312  54.384  1.00  0.00     0.001 C 
HETATM   16  C   UNL     1      29.115  43.154  55.175  1.00  0.00     0.011 C 
ENDBRANCH   6  11
ENDBRANCH   2   5
BRANCH   1  17
HETATM   17  C   UNL     1      24.639  45.786  50.770  1.00  0.00     0.154 C 
BRANCH  17  18
HETATM   18  C   UNL     1      25.060  44.637  49.845  1.00  0.00     0.028 C 
HETATM   19  C   UNL     1      26.574  44.546  49.692  1.00  0.00     0.007 C 
ENDBRANCH  17  18
BRANCH  17  20
HETATM   20  C   UNL     1      24.379  47.049  50.003  1.00  0.00     0.127 A 
HETATM   21  N   UNL     1      25.266  47.911  49.542  1.00  0.00    -0.237 NA
HETATM   22  C   UNL     1      24.542  48.897  48.917  1.00  0.00     0.048 A 
HETATM   23  C   UNL     1      25.222  50.030  48.252  1.00  0.00     0.072 C 
HETATM   24  C   UNL     1      23.193  48.639  49.021  1.00  0.00     0.116 A 
HETATM   25  N   UNL     1      23.102  47.471  49.726  1.00  0.00    -0.351 N 
HETATM   26  H   UNL     1      22.255  46.999  50.018  1.00  0.00     0.166 HD
ENDBRANCH  17  20
ENDBRANCH   1  17
TORSDOF 5
ENDMDL
MODEL 3
REMARK VINA RESULT:      -7.5      5.286      8.304
REMARK  5 active torsions:
REMARK  status: ('A' for Active; 'I' for Inactive)
REMARK    1  A    between atoms: C_2  and  C_3 
REMARK    2  A    between atoms: C_3  and  N_4 
REMARK    3  A    between atoms: C_3  and  C_19 
REMARK       I    between atoms: N_4  and  C_5 
REMARK    4  A    between atoms: C_5  and  C_6 
REMARK    5  A    between atoms: C_7  and  C_8 
ROOT
HETATM    1  N   UNL     1      23.055  49.874  49.243  1.00  0.00    -0.345 N 
HETATM    2  C   UNL     1      24.013  49.844  48.261  1.00  0.00     0.255 C 
HETATM    3  O   UNL     1      23.790  50.212  47.111  1.00  0.00    -0.268 OA
HETATM    4  H   UNL     1      23.231  49.418  50.126  1.00  0.00     0.163 HD
ENDROOT
BRANCH   2   5
HETATM    5  C   UNL     1      25.317  49.368  48.696  1.00  0.00     0.075 A 
HETATM    6  C   UNL     1      25.609  48.316  49.621  1.00  0.00     0.076 A 
HETATM    7  N   UNL     1      26.933  48.161  49.780  1.00  0.00    -0.178 NA
HETATM    8  N   UNL     1      27.477  49.090  48.987  1.00  0.00    -0.288 N 
HETATM    9  H   UNL     1      28.490  49.160  48.959  1.00  0.00     0.188 HD
HETATM   10  C   UNL     1      26.560  49.831  48.307  1.00  0.00     0.128 A 
BRANCH   6  11
HETATM   11  C   UNL     1      24.620  47.428  50.352  1.00  0.00     0.040 C 
HETATM   12  C   UNL     1      24.088  46.292  49.457  1.00  0.00     0.011 C 
HETATM   13  C   UNL     1      25.088  45.152  49.286  1.00  0.00     0.001 C 
HETATM   14  C   UNL     1      25.515  44.584  50.635  1.00  0.00     0.000 C 
HETATM   15  C   UNL     1      26.081  45.668  51.545  1.00  0.00     0.001 C 
HETATM   16  C   UNL     1      25.128  46.858  51.692  1.00  0.00     0.011 C 
ENDBRANCH   6  11
ENDBRANCH   2   5
BRANCH   1  17
HETATM   17  C   UNL     1      21.689  50.280  48.971  1.00  0.00     0.154 C 
BRANCH  17  18
HETATM   18  C   UNL     1      21.055  50.942  50.201  1.00  0.00     0.028 C 
HETATM   19  C   UNL     1      19.653  51.467  49.915  1.00  0.00     0.007 C 
ENDBRANCH  17  18
BRANCH  17  20
HETATM   20  C   UNL     1      20.942  49.048  48.556  1.00  0.00     0.127 A 
HETATM   21  N   UNL     1      20.355  48.810  47.399  1.00  0.00    -0.237 NA
HETATM   22  C   UNL     1      19.806  47.555  47.505  1.00  0.00     0.048 A 
HETATM   23  C   UNL     1      19.084  46.944  46.368  1.00  0.00     0.072 C 
HETATM   24  C   UNL     1      20.046  47.034  48.758  1.00  0.00     0.116 A 
HETATM   25  N   UNL     1      20.754  47.997  49.420  1.00  0.00    -0.351 N 
HETATM   26  H   UNL     1      21.073  47.967  50.380  1.00  0.00     0.166 HD
ENDBRANCH  17  20
ENDBRANCH   1  17
TORSDOF 5
ENDMDL
MODEL 4
REMARK VINA RESULT:      -7.4      2.736      6.390
REMARK  5 active torsions:
REMARK  status: ('A' for Active; 'I' for Inactive)
REMARK    1  A    between atoms: C_2  and  C_3 
REMARK    2  A    between atoms: C_3  and  N_4 
REMARK    3  A    between atoms: C_3  and  C_19 
REMARK       I    between atoms: N_4  and  C_5 
REMARK    4  A    between atoms: C_5  and  C_6 
REMARK    5  A    between atoms: C_7  and  C_8 
ROOT
HETATM    1  N   UNL     1      27.961  45.020  54.223  1.00  0.00    -0.345 N 
HETATM    2  C   UNL     1      27.123  43.938  54.106  1.00  0.00     0.255 C 
HETATM    3  O   UNL     1      26.294  43.651  54.965  1.00  0.00    -0.268 OA
HETATM    4  H   UNL     1      28.728  45.127  53.577  1.00  0.00     0.163 HD
ENDROOT
BRANCH   2   5
HETATM    5  C   UNL     1      27.279  43.177  52.877  1.00  0.00     0.075 A 
HETATM    6  C   UNL     1      26.372  43.087  51.773  1.00  0.00     0.076 A 
HETATM    7  N   UNL     1      26.853  42.283  50.813  1.00  0.00    -0.178 NA
HETATM    8  N   UNL     1      28.032  41.863  51.284  1.00  0.00    -0.288 N 
HETATM    9  H   UNL     1      28.574  41.223  50.713  1.00  0.00     0.188 HD
HETATM   10  C   UNL     1      28.342  42.374  52.508  1.00  0.00     0.128 A 
BRANCH   6  11
HETATM   11  C   UNL     1      25.037  43.788  51.616  1.00  0.00     0.040 C 
HETATM   12  C   UNL     1      25.082  45.244  52.120  1.00  0.00     0.011 C 
HETATM   13  C   UNL     1      25.771  46.191  51.142  1.00  0.00     0.001 C 
HETATM   14  C   UNL     1      25.109  46.145  49.770  1.00  0.00     0.000 C 
HETATM   15  C   UNL     1      25.071  44.727  49.213  1.00  0.00     0.001 C 
HETATM   16  C   UNL     1      24.439  43.735  50.195  1.00  0.00     0.011 C 
ENDBRANCH   6  11
ENDBRANCH   2   5
BRANCH   1  17
HETATM   17  C   UNL     1      27.969  45.860  55.405  1.00  0.00     0.154 C 
BRANCH  17  18
HETATM   18  C   UNL     1      28.040  47.345  55.025  1.00  0.00     0.028 C 
HETATM   19  C   UNL     1      26.661  47.992  54.966  1.00  0.00     0.007 C 
ENDBRANCH  17  18
BRANCH  17  20
HETATM   20  C   UNL     1      29.148  45.442  56.231  1.00  0.00     0.127 A 
HETATM   21  N   UNL     1      30.002  44.465  55.986  1.00  0.00    -0.237 NA
HETATM   22  C   UNL     1      30.896  44.475  57.028  1.00  0.00     0.048 A 
HETATM   23  C   UNL     1      32.023  43.519  57.069  1.00  0.00     0.072 C 
HETATM   24  C   UNL     1      30.565  45.461  57.932  1.00  0.00     0.116 A 
HETATM   25  N   UNL     1      29.445  46.057  57.423  1.00  0.00    -0.351 N 
HETATM   26  H   UNL     1      28.907  46.804  57.843  1.00  0.00     0.166 HD
ENDBRANCH  17  20
ENDBRANCH   1  17
TORSDOF 5
ENDMDL
MODEL 5
REMARK VINA RESULT:      -7.3      2.741      6.290
REMARK  5 active torsions:
REMARK  status: ('A' for Active; 'I' for Inactive)
REMARK    1  A    between atoms: C_2  and  C_3 
REMARK    2  A    between atoms: C_3  and  N_4 
REMARK    3  A    between atoms: C_3  and  C_19 
REMARK       I    between atoms: N_4  and  C_5 
REMARK    4  A    between atoms: C_5  and  C_6 
REMARK    5  A    between atoms: C_7  and  C_8 
ROOT
HETATM    1  N   UNL     1      29.471  42.945  54.448  1.00  0.00    -0.345 N 
HETATM    2  C   UNL     1      29.743  42.807  53.109  1.00  0.00     0.255 C 
HETATM    3  O   UNL     1      30.723  43.323  52.580  1.00  0.00    -0.268 OA
HETATM    4  H   UNL     1      28.579  42.641  54.808  1.00  0.00     0.163 HD
ENDROOT
BRANCH   2   5
HETATM    5  C   UNL     1      28.796  41.981  52.377  1.00  0.00     0.075 A 
HETATM    6  C   UNL     1      27.764  42.405  51.481  1.00  0.00     0.076 A 
HETATM    7  N   UNL     1      27.082  41.357  50.993  1.00  0.00    -0.178 NA
HETATM    8  N   UNL     1      27.654  40.290  51.561  1.00  0.00    -0.288 N 
HETATM    9  H   UNL     1      27.282  39.373  51.336  1.00  0.00     0.188 HD
HETATM   10  C   UNL     1      28.689  40.603  52.387  1.00  0.00     0.128 A 
BRANCH   6  11
HETATM   11  C   UNL     1      27.428  43.824  51.064  1.00  0.00     0.040 C 
HETATM   12  C   UNL     1      26.533  43.866  49.811  1.00  0.00     0.011 C 
HETATM   13  C   UNL     1      25.073  43.537  50.111  1.00  0.00     0.001 C 
HETATM   14  C   UNL     1      24.505  44.467  51.176  1.00  0.00     0.000 C 
HETATM   15  C   UNL     1      25.340  44.435  52.451  1.00  0.00     0.001 C 
HETATM   16  C   UNL     1      26.823  44.701  52.180  1.00  0.00     0.011 C 
ENDBRANCH   6  11
ENDBRANCH   2   5
BRANCH   1  17
HETATM   17  C   UNL     1      30.288  43.770  55.316  1.00  0.00     0.154 C 
BRANCH  17  18
HETATM   18  C   UNL     1      30.727  42.991  56.564  1.00  0.00     0.028 C 
HETATM   19  C   UNL     1      32.124  43.385  57.027  1.00  0.00     0.007 C 
ENDBRANCH  17  18
BRANCH  17  20
HETATM   20  C   UNL     1      29.469  44.974  55.673  1.00  0.00     0.127 A 
HETATM   21  N   UNL     1      28.786  45.758  54.860  1.00  0.00    -0.237 NA
HETATM   22  C   UNL     1      28.211  46.718  55.656  1.00  0.00     0.048 A 
HETATM   23  C   UNL     1      27.340  47.763  55.075  1.00  0.00     0.072 C 
HETATM   24  C   UNL     1      28.570  46.525  56.972  1.00  0.00     0.116 A 
HETATM   25  N   UNL     1      29.381  45.425  56.968  1.00  0.00    -0.351 N 
HETATM   26  H   UNL     1      29.855  45.014  57.762  1.00  0.00     0.166 HD
ENDBRANCH  17  20
ENDBRANCH   1  17
TORSDOF 5
ENDMDL
MODEL 6
REMARK VINA RESULT:      -7.2      2.346      5.429
REMARK  5 active torsions:
REMARK  status: ('A' for Active; 'I' for Inactive)
REMARK    1  A    between atoms: C_2  and  C_3 
REMARK    2  A    between atoms: C_3  and  N_4 
REMARK    3  A    between atoms: C_3  and  C_19 
REMARK       I    between atoms: N_4  and  C_5 
REMARK    4  A    between atoms: C_5  and  C_6 
REMARK    5  A    between atoms: C_7  and  C_8 
ROOT
HETATM    1  N   UNL     1      25.724  45.173  50.799  1.00  0.00    -0.345 N 
HETATM    2  C   UNL     1      25.723  44.256  51.821  1.00  0.00     0.255 C 
HETATM    3  O   UNL     1      24.688  43.790  52.288  1.00  0.00    -0.268 OA
HETATM    4  H   UNL     1      26.581  45.646  50.555  1.00  0.00     0.163 HD
ENDROOT
BRANCH   2   5
HETATM    5  C   UNL     1      27.044  43.863  52.288  1.00  0.00     0.075 A 
HETATM    6  C   UNL     1      27.650  44.137  53.555  1.00  0.00     0.076 A 
HETATM    7  N   UNL     1      28.885  43.617  53.626  1.00  0.00    -0.178 NA
HETATM    8  N   UNL     1      29.072  43.030  52.439  1.00  0.00    -0.288 N 
HETATM    9  H   UNL     1      29.961  42.573  52.267  1.00  0.00     0.188 HD
HETATM   10  C   UNL     1      28.001  43.136  51.605  1.00  0.00     0.128 A 
BRANCH   6  11
HETATM   11  C   UNL     1      27.044  44.888  54.725  1.00  0.00     0.040 C 
HETATM   12  C   UNL     1      28.119  45.437  55.683  1.00  0.00     0.011 C 
HETATM   13  C   UNL     1      28.808  46.690  55.149  1.00  0.00     0.001 C 
HETATM   14  C   UNL     1      27.795  47.785  54.834  1.00  0.00     0.000 C 
HETATM   15  C   UNL     1      26.727  47.298  53.862  1.00  0.00     0.001 C 
HETATM   16  C   UNL     1      26.055  46.006  54.336  1.00  0.00     0.011 C 
ENDBRANCH   6  11
ENDBRANCH   2   5
BRANCH   1  17
HETATM   17  C   UNL     1      24.494  45.705  50.245  1.00  0.00     0.154 C 
BRANCH  17  18
HETATM   18  C   UNL     1      23.936  44.783  49.153  1.00  0.00     0.028 C 
HETATM   19  C   UNL     1      22.603  44.160  49.551  1.00  0.00     0.007 C 
ENDBRANCH  17  18
BRANCH  17  20
HETATM   20  C   UNL     1      24.810  47.070  49.710  1.00  0.00     0.127 A 
HETATM   21  N   UNL     1      25.998  47.626  49.565  1.00  0.00    -0.237 NA
HETATM   22  C   UNL     1      25.768  48.876  49.043  1.00  0.00     0.048 A 
HETATM   23  C   UNL     1      26.892  49.782  48.722  1.00  0.00     0.072 C 
HETATM   24  C   UNL     1      24.416  49.089  48.891  1.00  0.00     0.116 A 
HETATM   25  N   UNL     1      23.818  47.942  49.332  1.00  0.00    -0.351 N 
HETATM   26  H   UNL     1      22.824  47.757  49.396  1.00  0.00     0.166 HD
ENDBRANCH  17  20
ENDBRANCH   1  17
TORSDOF 5
ENDMDL
MODEL 7
REMARK VINA RESULT:      -7.2     12.216     14.404
REMARK  5 active torsions:
REMARK  status: ('A' for Active; 'I' for Inactive)
REMARK    1  A    between atoms: C_2  and  C_3 
REMARK    2  A    between atoms: C_3  and  N_4 
REMARK    3  A    between atoms: C_3  and  C_19 
REMARK       I    between atoms: N_4  and  C_5 
REMARK    4  A    between atoms: C_5  and  C_6 
REMARK    5  A    between atoms: C_7  and  C_8 
ROOT
HETATM    1  N   UNL     1      32.282  50.038  41.649  1.00  0.00    -0.345 N 
HETATM    2  C   UNL     1      31.334  49.057  41.802  1.00  0.00     0.255 C 
HETATM    3  O   UNL     1      31.031  48.599  42.900  1.00  0.00    -0.268 OA
HETATM    4  H   UNL     1      32.613  50.271  40.725  1.00  0.00     0.163 HD
ENDROOT
BRANCH   2   5
HETATM    5  C   UNL     1      30.701  48.622  40.567  1.00  0.00     0.075 A 
HETATM    6  C   UNL     1      29.537  49.162  39.934  1.00  0.00     0.076 A 
HETATM    7  N   UNL     1      29.246  48.498  38.804  1.00  0.00    -0.178 NA
HETATM    8  N   UNL     1      30.190  47.556  38.715  1.00  0.00    -0.288 N 
HETATM    9  H   UNL     1      30.156  46.919  37.925  1.00  0.00     0.188 HD
HETATM   10  C   UNL     1      31.092  47.590  39.734  1.00  0.00     0.128 A 
BRANCH   6  11
HETATM   11  C   UNL     1      28.697  50.337  40.395  1.00  0.00     0.040 C 
HETATM   12  C   UNL     1      29.520  51.635  40.498  1.00  0.00     0.011 C 
HETATM   13  C   UNL     1      29.793  52.276  39.140  1.00  0.00     0.001 C 
HETATM   14  C   UNL     1      28.496  52.551  38.389  1.00  0.00     0.000 C 
HETATM   15  C   UNL     1      27.660  51.287  38.231  1.00  0.00     0.001 C 
HETATM   16  C   UNL     1      27.417  50.582  39.569  1.00  0.00     0.011 C 
ENDBRANCH   6  11
ENDBRANCH   2   5
BRANCH   1  17
HETATM   17  C   UNL     1      33.041  50.554  42.772  1.00  0.00     0.154 C 
BRANCH  17  18
HETATM   18  C   UNL     1      32.323  51.744  43.422  1.00  0.00     0.028 C 
HETATM   19  C   UNL     1      32.766  51.968  44.863  1.00  0.00     0.007 C 
ENDBRANCH  17  18
BRANCH  17  20
HETATM   20  C   UNL     1      34.391  50.940  42.247  1.00  0.00     0.127 A 
HETATM   21  N   UNL     1      34.719  52.034  41.584  1.00  0.00    -0.237 NA
HETATM   22  C   UNL     1      36.063  51.927  41.320  1.00  0.00     0.048 A 
HETATM   23  C   UNL     1      36.783  53.002  40.604  1.00  0.00     0.072 C 
HETATM   24  C   UNL     1      36.552  50.737  41.812  1.00  0.00     0.116 A 
HETATM   25  N   UNL     1      35.479  50.113  42.385  1.00  0.00    -0.351 N 
HETATM   26  H   UNL     1      35.465  49.198  42.818  1.00  0.00     0.166 HD
ENDBRANCH  17  20
ENDBRANCH   1  17
TORSDOF 5
ENDMDL
MODEL 8
REMARK VINA RESULT:      -7.1      2.779      5.468
REMARK  5 active torsions:
REMARK  status: ('A' for Active; 'I' for Inactive)
REMARK    1  A    between atoms: C_2  and  C_3 
REMARK    2  A    between atoms: C_3  and  N_4 
REMARK    3  A    between atoms: C_3  and  C_19 
REMARK       I    between atoms: N_4  and  C_5 
REMARK    4  A    between atoms: C_5  and  C_6 
REMARK    5  A    between atoms: C_7  and  C_8 
ROOT
HETATM    1  N   UNL     1      25.681  44.524  50.813  1.00  0.00    -0.345 N 
HETATM    2  C   UNL     1      26.593  43.649  50.276  1.00  0.00     0.255 C 
HETATM    3  O   UNL     1      27.096  43.818  49.169  1.00  0.00    -0.268 OA
HETATM    4  H   UNL     1      25.177  44.268  51.648  1.00  0.00     0.163 HD
ENDROOT
BRANCH   2   5
HETATM    5  C   UNL     1      26.935  42.524  51.132  1.00  0.00     0.075 A 
HETATM    6  C   UNL     1      27.999  42.429  52.084  1.00  0.00     0.076 A 
HETATM    7  N   UNL     1      28.006  41.230  52.687  1.00  0.00    -0.178 NA
HETATM    8  N   UNL     1      26.982  40.570  52.137  1.00  0.00    -0.288 N 
HETATM    9  H   UNL     1      26.806  39.619  52.445  1.00  0.00     0.188 HD
HETATM   10  C   UNL     1      26.300  41.298  51.211  1.00  0.00     0.128 A 
BRANCH   6  11
HETATM   11  C   UNL     1      29.014  43.497  52.442  1.00  0.00     0.040 C 
HETATM   12  C   UNL     1      28.396  44.624  53.291  1.00  0.00     0.011 C 
HETATM   13  C   UNL     1      28.195  44.229  54.751  1.00  0.00     0.001 C 
HETATM   14  C   UNL     1      29.504  43.772  55.384  1.00  0.00     0.000 C 
HETATM   15  C   UNL     1      30.138  42.631  54.597  1.00  0.00     0.001 C 
HETATM   16  C   UNL     1      30.300  42.970  53.112  1.00  0.00     0.011 C 
ENDBRANCH   6  11
ENDBRANCH   2   5
BRANCH   1  17
HETATM   17  C   UNL     1      25.197  45.676  50.076  1.00  0.00     0.154 C 
BRANCH  17  18
HETATM   18  C   UNL     1      25.159  46.924  50.967  1.00  0.00     0.028 C 
HETATM   19  C   UNL     1      25.399  46.592  52.435  1.00  0.00     0.007 C 
ENDBRANCH  17  18
BRANCH  17  20
HETATM   20  C   UNL     1      23.835  45.322  49.558  1.00  0.00     0.127 A 
HETATM   21  N   UNL     1      23.232  45.791  48.482  1.00  0.00    -0.237 NA
HETATM   22  C   UNL     1      22.008  45.169  48.433  1.00  0.00     0.048 A 
HETATM   23  C   UNL     1      21.063  45.440  47.328  1.00  0.00     0.072 C 
HETATM   24  C   UNL     1      21.859  44.325  49.511  1.00  0.00     0.116 A 
HETATM   25  N   UNL     1      23.019  44.442  50.225  1.00  0.00    -0.351 N 
HETATM   26  H   UNL     1      23.245  43.986  51.101  1.00  0.00     0.166 HD
ENDBRANCH  17  20
ENDBRANCH   1  17
TORSDOF 5
ENDMDL
MODEL 9
REMARK VINA RESULT:      -7.1      6.080      8.189
REMARK  5 active torsions:
REMARK  status: ('A' for Active; 'I' for Inactive)
REMARK    1  A    between atoms: C_2  and  C_3 
REMARK    2  A    between atoms: C_3  and  N_4 
REMARK    3  A    between atoms: C_3  and  C_19 
REMARK       I    between atoms: N_4  and  C_5 
REMARK    4  A    between atoms: C_5  and  C_6 
REMARK    5  A    between atoms: C_7  and  C_8 
ROOT
HETATM    1  N   UNL     1      22.494  46.100  49.273  1.00  0.00    -0.345 N 
HETATM    2  C   UNL     1      21.972  47.137  48.540  1.00  0.00     0.255 C 
HETATM    3  O   UNL     1      22.625  47.739  47.693  1.00  0.00    -0.268 OA
HETATM    4  H   UNL     1      21.980  45.741  50.064  1.00  0.00     0.163 HD
ENDROOT
BRANCH   2   5
HETATM    5  C   UNL     1      20.580  47.447  48.828  1.00  0.00     0.075 A 
HETATM    6  C   UNL     1      20.009  48.717  49.157  1.00  0.00     0.076 A 
HETATM    7  N   UNL     1      18.686  48.616  49.361  1.00  0.00    -0.178 NA
HETATM    8  N   UNL     1      18.414  47.320  49.175  1.00  0.00    -0.288 N 
HETATM    9  H   UNL     1      17.454  47.012  49.293  1.00  0.00     0.188 HD
HETATM   10  C   UNL     1      19.506  46.577  48.843  1.00  0.00     0.128 A 
BRANCH   6  11
HETATM   11  C   UNL     1      20.721  50.051  49.261  1.00  0.00     0.040 C 
HETATM   12  C   UNL     1      20.822  50.764  47.899  1.00  0.00     0.011 C 
HETATM   13  C   UNL     1      19.512  51.420  47.473  1.00  0.00     0.001 C 
HETATM   14  C   UNL     1      19.017  52.402  48.529  1.00  0.00     0.000 C 
HETATM   15  C   UNL     1      18.869  51.733  49.890  1.00  0.00     0.001 C 
HETATM   16  C   UNL     1      20.148  51.011  50.324  1.00  0.00     0.011 C 
ENDBRANCH   6  11
ENDBRANCH   2   5
BRANCH   1  17
HETATM   17  C   UNL     1      23.879  45.690  49.144  1.00  0.00     0.154 C 
BRANCH  17  18
HETATM   18  C   UNL     1      23.981  44.251  48.622  1.00  0.00     0.028 C 
HETATM   19  C   UNL     1      22.664  43.494  48.756  1.00  0.00     0.007 C 
ENDBRANCH  17  18
BRANCH  17  20
HETATM   20  C   UNL     1      24.506  45.835  50.499  1.00  0.00     0.127 A 
HETATM   21  N   UNL     1      24.657  44.906  51.424  1.00  0.00    -0.237 NA
HETATM   22  C   UNL     1      25.279  45.524  52.481  1.00  0.00     0.048 A 
HETATM   23  C   UNL     1      25.633  44.766  53.701  1.00  0.00     0.072 C 
HETATM   24  C   UNL     1      25.488  46.856  52.199  1.00  0.00     0.116 A 
HETATM   25  N   UNL     1      24.980  47.045  50.945  1.00  0.00    -0.351 N 
HETATM   26  H   UNL     1      24.934  47.915  50.430  1.00  0.00     0.166 HD
ENDBRANCH  17  20
ENDBRANCH   1  17
TORSDOF 5
ENDMDL
MODEL 10
REMARK VINA RESULT:      -7.1      2.588      4.024
REMARK  5 active torsions:
REMARK  status: ('A' for Active; 'I' for Inactive)
REMARK    1  A    between atoms: C_2  and  C_3 
REMARK    2  A    between atoms: C_3  and  N_4 
REMARK    3  A    between atoms: C_3  and  C_19 
REMARK       I    between atoms: N_4  and  C_5 
REMARK    4  A    between atoms: C_5  and  C_6 
REMARK    5  A    between atoms: C_7  and  C_8 
ROOT
HETATM    1  N   UNL     1      28.278  40.108  49.344  1.00  0.00    -0.345 N 
HETATM    2  C   UNL     1      27.173  40.523  50.045  1.00  0.00     0.255 C 
HETATM    3  O   UNL     1      26.295  39.747  50.411  1.00  0.00    -0.268 OA
HETATM    4  H   UNL     1      28.890  40.793  48.928  1.00  0.00     0.163 HD
ENDROOT
BRANCH   2   5
HETATM    5  C   UNL     1      27.139  41.946  50.342  1.00  0.00     0.075 A 
HETATM    6  C   UNL     1      27.394  42.594  51.592  1.00  0.00     0.076 A 
HETATM    7  N   UNL     1      27.265  43.926  51.485  1.00  0.00    -0.178 NA
HETATM    8  N   UNL     1      26.931  44.130  50.206  1.00  0.00    -0.288 N 
HETATM    9  H   UNL     1      26.771  45.085  49.901  1.00  0.00     0.188 HD
HETATM   10  C   UNL     1      26.853  42.984  49.475  1.00  0.00     0.128 A 
BRANCH   6  11
HETATM   11  C   UNL     1      27.784  41.945  52.905  1.00  0.00     0.040 C 
HETATM   12  C   UNL     1      29.259  41.500  52.918  1.00  0.00     0.011 C 
HETATM   13  C   UNL     1      30.229  42.660  53.125  1.00  0.00     0.001 C 
HETATM   14  C   UNL     1      29.914  43.421  54.407  1.00  0.00     0.000 C 
HETATM   15  C   UNL     1      28.472  43.912  54.427  1.00  0.00     0.001 C 
HETATM   16  C   UNL     1      27.470  42.783  54.162  1.00  0.00     0.011 C 
ENDBRANCH   6  11
ENDBRANCH   2   5
BRANCH   1  17
HETATM   17  C   UNL     1      28.449  38.729  48.927  1.00  0.00     0.154 C 
BRANCH  17  18
HETATM   18  C   UNL     1      29.817  38.188  49.361  1.00  0.00     0.028 C 
HETATM   19  C   UNL     1      29.875  37.899  50.856  1.00  0.00     0.007 C 
ENDBRANCH  17  18
BRANCH  17  20
HETATM   20  C   UNL     1      28.288  38.700  47.436  1.00  0.00     0.127 A 
HETATM   21  N   UNL     1      27.937  39.693  46.642  1.00  0.00    -0.237 NA
HETATM   22  C   UNL     1      27.926  39.173  45.370  1.00  0.00     0.048 A 
HETATM   23  C   UNL     1      27.598  40.024  44.205  1.00  0.00     0.072 C 
HETATM   24  C   UNL     1      28.255  37.835  45.399  1.00  0.00     0.116 A 
HETATM   25  N   UNL     1      28.467  37.543  46.717  1.00  0.00    -0.351 N 
HETATM   26  H   UNL     1      28.695  36.640  47.113  1.00  0.00     0.166 HD
ENDBRANCH  17  20
ENDBRANCH   1  17
TORSDOF 5
ENDMDL
