MODEL 1
REMARK VINA RESULT:      -9.9      0.000      0.000
REMARK  12 active torsions:
REMARK  status: ('A' for Active; 'I' for Inactive)
REMARK    1  A    between atoms: C_9  and  S_10 
REMARK    2  A    between atoms: S_10  and  C_11 
REMARK    3  A    between atoms: C_11  and  C_12 
REMARK       I    between atoms: C_12  and  N_13 
REMARK    4  A    between atoms: N_13  and  C_14 
REMARK    5  A    between atoms: C_14  and  C_15 
REMARK    6  A    between atoms: C_15  and  C_16 
REMARK    7  A    between atoms: C_19  and  S_20 
REMARK    8  A    between atoms: S_20  and  N_21 
REMARK    9  A    between atoms: N_27  and  C_28 
REMARK   10  A    between atoms: C_31  and  O_32 
REMARK   11  A    between atoms: O_32  and  C_33 
REMARK   12  A    between atoms: C_41  and  N_42 
ROOT
HETATM    1  C   UNL     1      22.433  41.797  47.364  1.00  0.00     0.073 C 
HETATM    2  C   UNL     1      22.586  43.240  47.689  1.00  0.00     0.068 A 
HETATM    3  N   UNL     1      21.771  44.127  47.106  1.00  0.00    -0.177 NA
HETATM    4  N   UNL     1      22.147  45.308  47.616  1.00  0.00    -0.260 N 
HETATM    5  H   UNL     1      21.654  46.147  47.328  1.00  0.00     0.191 HD
HETATM    6  C   UNL     1      23.189  45.202  48.492  1.00  0.00     0.162 A 
HETATM    7  C   UNL     1      23.510  43.866  48.581  1.00  0.00     0.081 A 
HETATM    8  N   UNL     1      23.779  46.206  49.133  1.00  0.00    -0.204 NA
HETATM    9  C   UNL     1      24.753  45.784  49.970  1.00  0.00     0.177 A 
HETATM   10  N   UNL     1      25.122  44.481  50.148  1.00  0.00    -0.276 N 
HETATM   11  C   UNL     1      24.561  43.465  49.423  1.00  0.00     0.124 A 
ENDROOT
BRANCH   9  12
HETATM   12  S   UNL     1      25.487  47.139  50.887  1.00  0.00    -0.082 SA
BRANCH  12  13
HETATM   13  C   UNL     1      26.823  47.571  49.722  1.00  0.00     0.185 C 
BRANCH  13  14
HETATM   14  C   UNL     1      26.625  48.945  49.101  1.00  0.00     0.227 C 
HETATM   15  N   UNL     1      25.295  49.220  48.835  1.00  0.00    -0.360 N 
HETATM   16  H   UNL     1      24.584  48.646  49.271  1.00  0.00     0.162 HD
HETATM   17  O   UNL     1      27.544  49.695  48.798  1.00  0.00    -0.273 OA
BRANCH  15  18
HETATM   18  C   UNL     1      24.863  50.523  48.348  1.00  0.00     0.127 C 
BRANCH  18  19
HETATM   19  C   UNL     1      23.673  50.397  47.394  1.00  0.00     0.058 C 
BRANCH  19  20
HETATM   20  C   UNL     1      22.387  50.134  48.137  1.00  0.00    -0.057 A 
HETATM   21  C   UNL     1      21.735  48.898  48.021  1.00  0.00     0.009 A 
HETATM   22  C   UNL     1      20.520  48.676  48.673  1.00  0.00     0.025 A 
HETATM   23  C   UNL     1      19.958  49.693  49.449  1.00  0.00     0.074 A 
HETATM   24  C   UNL     1      20.592  50.931  49.568  1.00  0.00     0.025 A 
HETATM   25  C   UNL     1      21.806  51.147  48.916  1.00  0.00     0.009 A 
BRANCH  23  26
HETATM   26  S   UNL     1      18.385  49.442  50.220  1.00  0.00     0.239 S 
HETATM   27  O   UNL     1      17.717  50.717  50.351  1.00  0.00    -0.206 OA
HETATM   28  O   UNL     1      17.747  48.290  49.632  1.00  0.00    -0.206 OA
BRANCH  26  29
HETATM   29  N   UNL     1      18.825  48.988  51.775  1.00  0.00    -0.225 NA
HETATM   30  H   UNL     1      18.080  48.434  52.197  1.00  0.00     0.136 HD
HETATM   31  H   UNL     1      19.726  48.506  51.749  1.00  0.00     0.136 HD
ENDBRANCH  26  29
ENDBRANCH  23  26
ENDBRANCH  19  20
ENDBRANCH  18  19
ENDBRANCH  15  18
ENDBRANCH  13  14
ENDBRANCH  12  13
ENDBRANCH   9  12
BRANCH  10  32
HETATM   32  C   UNL     1      26.084  44.134  51.169  1.00  0.00     0.043 A 
HETATM   33  C   UNL     1      25.610  43.827  52.447  1.00  0.00     0.033 A 
HETATM   34  C   UNL     1      26.512  43.386  53.414  1.00  0.00     0.039 A 
HETATM   35  C   UNL     1      27.876  43.262  53.118  1.00  0.00     0.076 A 
HETATM   36  C   UNL     1      28.337  43.594  51.837  1.00  0.00     0.039 A 
HETATM   37  C   UNL     1      27.437  44.010  50.847  1.00  0.00     0.033 A 
BRANCH  35  38
HETATM   38  O   UNL     1      28.640  42.809  54.169  1.00  0.00    -0.311 OA
BRANCH  38  39
HETATM   39  C   UNL     1      29.367  43.705  54.909  1.00  0.00     0.076 A 
HETATM   40  C   UNL     1      28.815  44.966  55.130  1.00  0.00     0.037 A 
HETATM   41  C   UNL     1      29.483  45.880  55.944  1.00  0.00     0.003 A 
HETATM   42  C   UNL     1      30.694  45.527  56.540  1.00  0.00     0.000 A 
HETATM   43  C   UNL     1      31.231  44.254  56.336  1.00  0.00     0.003 A 
HETATM   44  C   UNL     1      30.560  43.334  55.532  1.00  0.00     0.037 A 
ENDBRANCH  38  39
ENDBRANCH  35  38
ENDBRANCH  10  32
BRANCH  11  45
HETATM   45  N   UNL     1      24.989  42.144  49.506  1.00  0.00    -0.384 N 
HETATM   46  H   UNL     1      24.471  41.398  49.054  1.00  0.00     0.157 HD
HETATM   47  H   UNL     1      25.484  41.851  50.343  1.00  0.00     0.157 HD
ENDBRANCH  11  45
TORSDOF 12
ENDMDL
MODEL 2
REMARK VINA RESULT:      -9.7      2.118      2.954
REMARK  12 active torsions:
REMARK  status: ('A' for Active; 'I' for Inactive)
REMARK    1  A    between atoms: C_9  and  S_10 
REMARK    2  A    between atoms: S_10  and  C_11 
REMARK    3  A    between atoms: C_11  and  C_12 
REMARK       I    between atoms: C_12  and  N_13 
REMARK    4  A    between atoms: N_13  and  C_14 
REMARK    5  A    between atoms: C_14  and  C_15 
REMARK    6  A    between atoms: C_15  and  C_16 
REMARK    7  A    between atoms: C_19  and  S_20 
REMARK    8  A    between atoms: S_20  and  N_21 
REMARK    9  A    between atoms: N_27  and  C_28 
REMARK   10  A    between atoms: C_31  and  O_32 
REMARK   11  A    between atoms: O_32  and  C_33 
REMARK   12  A    between atoms: C_41  and  N_42 
ROOT
HETATM    1  C   UNL     1      25.553  39.618  47.705  1.00  0.00     0.073 C 
HETATM    2  C   UNL     1      24.880  40.727  48.431  1.00  0.00     0.068 A 
HETATM    3  N   UNL     1      23.631  41.065  48.087  1.00  0.00    -0.177 NA
HETATM    4  N   UNL     1      23.313  42.059  48.927  1.00  0.00    -0.260 N 
HETATM    5  H   UNL     1      22.390  42.478  48.867  1.00  0.00     0.191 HD
HETATM    6  C   UNL     1      24.328  42.379  49.782  1.00  0.00     0.162 A 
HETATM    7  C   UNL     1      25.377  41.531  49.503  1.00  0.00     0.081 A 
HETATM    8  N   UNL     1      24.303  43.335  50.707  1.00  0.00    -0.204 NA
HETATM    9  C   UNL     1      25.443  43.383  51.432  1.00  0.00     0.177 A 
HETATM   10  N   UNL     1      26.521  42.565  51.250  1.00  0.00    -0.276 N 
HETATM   11  C   UNL     1      26.566  41.639  50.243  1.00  0.00     0.124 A 
ENDROOT
BRANCH   9  12
HETATM   12  S   UNL     1      25.366  44.621  52.726  1.00  0.00    -0.082 SA
BRANCH  12  13
HETATM   13  C   UNL     1      26.246  45.972  51.871  1.00  0.00     0.185 C 
BRANCH  13  14
HETATM   14  C   UNL     1      25.662  46.262  50.498  1.00  0.00     0.227 C 
HETATM   15  N   UNL     1      24.333  46.644  50.555  1.00  0.00    -0.360 N 
HETATM   16  H   UNL     1      23.948  46.928  51.447  1.00  0.00     0.162 HD
HETATM   17  O   UNL     1      26.275  46.102  49.449  1.00  0.00    -0.273 OA
BRANCH  15  18
HETATM   18  C   UNL     1      23.609  47.081  49.370  1.00  0.00     0.127 C 
BRANCH  18  19
HETATM   19  C   UNL     1      23.729  48.593  49.166  1.00  0.00     0.058 C 
BRANCH  19  20
HETATM   20  C   UNL     1      22.378  49.248  49.030  1.00  0.00    -0.057 A 
HETATM   21  C   UNL     1      22.260  50.645  49.014  1.00  0.00     0.009 A 
HETATM   22  C   UNL     1      21.001  51.247  48.935  1.00  0.00     0.025 A 
HETATM   23  C   UNL     1      19.857  50.447  48.868  1.00  0.00     0.074 A 
HETATM   24  C   UNL     1      19.960  49.055  48.890  1.00  0.00     0.025 A 
HETATM   25  C   UNL     1      21.218  48.459  48.968  1.00  0.00     0.009 A 
BRANCH  23  26
HETATM   26  S   UNL     1      18.257  51.203  48.840  1.00  0.00     0.239 S 
HETATM   27  O   UNL     1      17.476  50.608  47.780  1.00  0.00    -0.206 OA
HETATM   28  O   UNL     1      17.766  51.323  50.190  1.00  0.00    -0.206 OA
BRANCH  26  29
HETATM   29  N   UNL     1      18.615  52.762  48.333  1.00  0.00    -0.225 NA
HETATM   30  H   UNL     1      17.986  53.426  48.787  1.00  0.00     0.136 HD
HETATM   31  H   UNL     1      19.604  52.959  48.500  1.00  0.00     0.136 HD
ENDBRANCH  26  29
ENDBRANCH  23  26
ENDBRANCH  19  20
ENDBRANCH  18  19
ENDBRANCH  15  18
ENDBRANCH  13  14
ENDBRANCH  12  13
ENDBRANCH   9  12
BRANCH  10  32
HETATM   32  C   UNL     1      27.633  42.616  52.172  1.00  0.00     0.043 A 
HETATM   33  C   UNL     1      28.739  43.401  51.833  1.00  0.00     0.033 A 
HETATM   34  C   UNL     1      29.772  43.547  52.757  1.00  0.00     0.039 A 
HETATM   35  C   UNL     1      29.714  42.909  54.003  1.00  0.00     0.076 A 
HETATM   36  C   UNL     1      28.609  42.109  54.318  1.00  0.00     0.039 A 
HETATM   37  C   UNL     1      27.550  41.977  53.411  1.00  0.00     0.033 A 
BRANCH  35  38
HETATM   38  O   UNL     1      30.803  43.153  54.809  1.00  0.00    -0.311 OA
BRANCH  38  39
HETATM   39  C   UNL     1      30.654  43.941  55.921  1.00  0.00     0.076 A 
HETATM   40  C   UNL     1      31.455  43.664  57.028  1.00  0.00     0.037 A 
HETATM   41  C   UNL     1      31.394  44.490  58.150  1.00  0.00     0.003 A 
HETATM   42  C   UNL     1      30.540  45.592  58.157  1.00  0.00     0.000 A 
HETATM   43  C   UNL     1      29.757  45.881  57.037  1.00  0.00     0.003 A 
HETATM   44  C   UNL     1      29.824  45.064  55.909  1.00  0.00     0.037 A 
ENDBRANCH  38  39
ENDBRANCH  35  38
ENDBRANCH  10  32
BRANCH  11  45
HETATM   45  N   UNL     1      27.689  40.867  49.968  1.00  0.00    -0.384 N 
HETATM   46  H   UNL     1      28.059  40.219  50.656  1.00  0.00     0.157 HD
HETATM   47  H   UNL     1      28.394  41.247  49.344  1.00  0.00     0.157 HD
ENDBRANCH  11  45
TORSDOF 12
ENDMDL
MODEL 3
REMARK VINA RESULT:      -9.7      1.510      1.970
REMARK  12 active torsions:
REMARK  status: ('A' for Active; 'I' for Inactive)
REMARK    1  A    between atoms: C_9  and  S_10 
REMARK    2  A    between atoms: S_10  and  C_11 
REMARK    3  A    between atoms: C_11  and  C_12 
REMARK       I    between atoms: C_12  and  N_13 
REMARK    4  A    between atoms: N_13  and  C_14 
REMARK    5  A    between atoms: C_14  and  C_15 
REMARK    6  A    between atoms: C_15  and  C_16 
REMARK    7  A    between atoms: C_19  and  S_20 
REMARK    8  A    between atoms: S_20  and  N_21 
REMARK    9  A    between atoms: N_27  and  C_28 
REMARK   10  A    between atoms: C_31  and  O_32 
REMARK   11  A    between atoms: O_32  and  C_33 
REMARK   12  A    between atoms: C_41  and  N_42 
ROOT
HETATM    1  C   UNL     1      21.977  42.412  46.569  1.00  0.00     0.073 C 
HETATM    2  C   UNL     1      22.052  43.830  47.010  1.00  0.00     0.068 A 
HETATM    3  N   UNL     1      21.193  44.718  46.493  1.00  0.00    -0.177 NA
HETATM    4  N   UNL     1      21.503  45.871  47.100  1.00  0.00    -0.260 N 
HETATM    5  H   UNL     1      20.967  46.704  46.876  1.00  0.00     0.191 HD
HETATM    6  C   UNL     1      22.545  45.751  47.973  1.00  0.00     0.162 A 
HETATM    7  C   UNL     1      22.938  44.431  47.957  1.00  0.00     0.081 A 
HETATM    8  N   UNL     1      23.078  46.730  48.698  1.00  0.00    -0.204 NA
HETATM    9  C   UNL     1      24.070  46.294  49.506  1.00  0.00     0.177 A 
HETATM   10  N   UNL     1      24.507  45.002  49.581  1.00  0.00    -0.276 N 
HETATM   11  C   UNL     1      24.005  44.019  48.772  1.00  0.00     0.124 A 
ENDROOT
BRANCH   9  12
HETATM   12  S   UNL     1      24.728  47.607  50.535  1.00  0.00    -0.082 SA
BRANCH  12  13
HETATM   13  C   UNL     1      25.993  48.251  49.390  1.00  0.00     0.185 C 
BRANCH  13  14
HETATM   14  C   UNL     1      25.477  49.410  48.552  1.00  0.00     0.227 C 
HETATM   15  N   UNL     1      24.095  49.436  48.476  1.00  0.00    -0.360 N 
HETATM   16  H   UNL     1      23.562  48.884  49.136  1.00  0.00     0.162 HD
HETATM   17  O   UNL     1      26.203  50.190  47.948  1.00  0.00    -0.273 OA
BRANCH  15  18
HETATM   18  C   UNL     1      23.383  50.525  47.823  1.00  0.00     0.127 C 
BRANCH  18  19
HETATM   19  C   UNL     1      22.143  50.939  48.618  1.00  0.00     0.058 C 
BRANCH  19  20
HETATM   20  C   UNL     1      21.030  49.931  48.481  1.00  0.00    -0.057 A 
HETATM   21  C   UNL     1      20.664  49.119  49.564  1.00  0.00     0.009 A 
HETATM   22  C   UNL     1      19.664  48.154  49.417  1.00  0.00     0.025 A 
HETATM   23  C   UNL     1      19.025  48.004  48.183  1.00  0.00     0.074 A 
HETATM   24  C   UNL     1      19.384  48.802  47.095  1.00  0.00     0.025 A 
HETATM   25  C   UNL     1      20.382  49.764  47.247  1.00  0.00     0.009 A 
BRANCH  23  26
HETATM   26  S   UNL     1      17.808  46.738  47.972  1.00  0.00     0.239 S 
HETATM   27  O   UNL     1      16.732  46.959  48.911  1.00  0.00    -0.206 OA
HETATM   28  O   UNL     1      17.577  46.532  46.563  1.00  0.00    -0.206 OA
BRANCH  26  29
HETATM   29  N   UNL     1      18.623  45.374  48.514  1.00  0.00    -0.225 NA
HETATM   30  H   UNL     1      19.606  45.430  48.245  1.00  0.00     0.136 HD
HETATM   31  H   UNL     1      18.483  45.268  49.520  1.00  0.00     0.136 HD
ENDBRANCH  26  29
ENDBRANCH  23  26
ENDBRANCH  19  20
ENDBRANCH  18  19
ENDBRANCH  15  18
ENDBRANCH  13  14
ENDBRANCH  12  13
ENDBRANCH   9  12
BRANCH  10  32
HETATM   32  C   UNL     1      25.482  44.624  50.579  1.00  0.00     0.043 A 
HETATM   33  C   UNL     1      25.020  44.159  51.814  1.00  0.00     0.033 A 
HETATM   34  C   UNL     1      25.943  43.690  52.747  1.00  0.00     0.039 A 
HETATM   35  C   UNL     1      27.315  43.694  52.462  1.00  0.00     0.076 A 
HETATM   36  C   UNL     1      27.762  44.183  51.229  1.00  0.00     0.039 A 
HETATM   37  C   UNL     1      26.844  44.630  50.270  1.00  0.00     0.033 A 
BRANCH  35  38
HETATM   38  O   UNL     1      28.100  43.194  53.477  1.00  0.00    -0.311 OA
BRANCH  38  39
HETATM   39  C   UNL     1      28.667  44.058  54.378  1.00  0.00     0.076 A 
HETATM   40  C   UNL     1      29.890  43.700  54.943  1.00  0.00     0.037 A 
HETATM   41  C   UNL     1      30.541  44.586  55.801  1.00  0.00     0.003 A 
HETATM   42  C   UNL     1      29.970  45.827  56.084  1.00  0.00     0.000 A 
HETATM   43  C   UNL     1      28.757  46.192  55.497  1.00  0.00     0.003 A 
HETATM   44  C   UNL     1      28.109  45.313  54.628  1.00  0.00     0.037 A 
ENDBRANCH  38  39
ENDBRANCH  35  38
ENDBRANCH  10  32
BRANCH  11  45
HETATM   45  N   UNL     1      24.502  42.720  48.753  1.00  0.00    -0.384 N 
HETATM   46  H   UNL     1      24.716  42.256  47.876  1.00  0.00     0.157 HD
HETATM   47  H   UNL     1      24.221  42.087  49.495  1.00  0.00     0.157 HD
ENDBRANCH  11  45
TORSDOF 12
ENDMDL
MODEL 4
REMARK VINA RESULT:      -9.5      2.663      3.937
REMARK  12 active torsions:
REMARK  status: ('A' for Active; 'I' for Inactive)
REMARK    1  A    between atoms: C_9  and  S_10 
REMARK    2  A    between atoms: S_10  and  C_11 
REMARK    3  A    between atoms: C_11  and  C_12 
REMARK       I    between atoms: C_12  and  N_13 
REMARK    4  A    between atoms: N_13  and  C_14 
REMARK    5  A    between atoms: C_14  and  C_15 
REMARK    6  A    between atoms: C_15  and  C_16 
REMARK    7  A    between atoms: C_19  and  S_20 
REMARK    8  A    between atoms: S_20  and  N_21 
REMARK    9  A    between atoms: N_27  and  C_28 
REMARK   10  A    between atoms: C_31  and  O_32 
REMARK   11  A    between atoms: O_32  and  C_33 
REMARK   12  A    between atoms: C_41  and  N_42 
ROOT
HETATM    1  C   UNL     1      29.247  37.855  50.177  1.00  0.00     0.073 C 
HETATM    2  C   UNL     1      27.989  38.555  49.806  1.00  0.00     0.068 A 
HETATM    3  N   UNL     1      27.160  37.978  48.927  1.00  0.00    -0.177 NA
HETATM    4  N   UNL     1      26.134  38.834  48.828  1.00  0.00    -0.260 N 
HETATM    5  H   UNL     1      25.357  38.602  48.217  1.00  0.00     0.191 HD
HETATM    6  C   UNL     1      26.293  39.947  49.601  1.00  0.00     0.162 A 
HETATM    7  C   UNL     1      27.490  39.811  50.269  1.00  0.00     0.081 A 
HETATM    8  N   UNL     1      25.446  40.970  49.687  1.00  0.00    -0.204 NA
HETATM    9  C   UNL     1      25.854  41.905  50.573  1.00  0.00     0.177 A 
HETATM   10  N   UNL     1      27.008  41.843  51.302  1.00  0.00    -0.276 N 
HETATM   11  C   UNL     1      27.909  40.825  51.145  1.00  0.00     0.124 A 
ENDROOT
BRANCH   9  12
HETATM   12  S   UNL     1      24.668  43.239  50.738  1.00  0.00    -0.082 SA
BRANCH  12  13
HETATM   13  C   UNL     1      25.119  44.199  49.254  1.00  0.00     0.185 C 
BRANCH  13  14
HETATM   14  C   UNL     1      25.328  45.673  49.562  1.00  0.00     0.227 C 
HETATM   15  N   UNL     1      24.141  46.384  49.592  1.00  0.00    -0.360 N 
HETATM   16  H   UNL     1      23.270  45.871  49.656  1.00  0.00     0.162 HD
HETATM   17  O   UNL     1      26.430  46.192  49.695  1.00  0.00    -0.273 OA
BRANCH  15  18
HETATM   18  C   UNL     1      24.095  47.786  49.982  1.00  0.00     0.127 C 
BRANCH  18  19
HETATM   19  C   UNL     1      23.911  48.699  48.768  1.00  0.00     0.058 C 
BRANCH  19  20
HETATM   20  C   UNL     1      22.533  49.308  48.730  1.00  0.00    -0.057 A 
HETATM   21  C   UNL     1      22.367  50.691  48.562  1.00  0.00     0.009 A 
HETATM   22  C   UNL     1      21.089  51.257  48.576  1.00  0.00     0.025 A 
HETATM   23  C   UNL     1      19.973  50.435  48.754  1.00  0.00     0.074 A 
HETATM   24  C   UNL     1      20.124  49.058  48.928  1.00  0.00     0.025 A 
HETATM   25  C   UNL     1      21.401  48.498  48.913  1.00  0.00     0.009 A 
BRANCH  23  26
HETATM   26  S   UNL     1      18.358  51.153  48.842  1.00  0.00     0.239 S 
HETATM   27  O   UNL     1      17.526  50.563  47.819  1.00  0.00    -0.206 OA
HETATM   28  O   UNL     1      17.950  51.233  50.223  1.00  0.00    -0.206 OA
BRANCH  26  29
HETATM   29  N   UNL     1      18.649  52.731  48.350  1.00  0.00    -0.225 NA
HETATM   30  H   UNL     1      19.067  53.260  49.116  1.00  0.00     0.136 HD
HETATM   31  H   UNL     1      19.219  52.726  47.501  1.00  0.00     0.136 HD
ENDBRANCH  26  29
ENDBRANCH  23  26
ENDBRANCH  19  20
ENDBRANCH  18  19
ENDBRANCH  15  18
ENDBRANCH  13  14
ENDBRANCH  12  13
ENDBRANCH   9  12
BRANCH  10  32
HETATM   32  C   UNL     1      27.277  42.834  52.319  1.00  0.00     0.043 A 
HETATM   33  C   UNL     1      26.943  42.532  53.642  1.00  0.00     0.033 A 
HETATM   34  C   UNL     1      27.293  43.431  54.649  1.00  0.00     0.039 A 
HETATM   35  C   UNL     1      27.957  44.626  54.343  1.00  0.00     0.076 A 
HETATM   36  C   UNL     1      28.264  44.923  53.009  1.00  0.00     0.039 A 
HETATM   37  C   UNL     1      27.945  44.016  51.991  1.00  0.00     0.033 A 
BRANCH  35  38
HETATM   38  O   UNL     1      28.242  45.406  55.441  1.00  0.00    -0.311 OA
BRANCH  38  39
HETATM   39  C   UNL     1      29.355  45.130  56.193  1.00  0.00     0.076 A 
HETATM   40  C   UNL     1      29.473  45.755  57.434  1.00  0.00     0.037 A 
HETATM   41  C   UNL     1      30.547  45.440  58.266  1.00  0.00     0.003 A 
HETATM   42  C   UNL     1      31.492  44.499  57.858  1.00  0.00     0.000 A 
HETATM   43  C   UNL     1      31.356  43.857  56.624  1.00  0.00     0.003 A 
HETATM   44  C   UNL     1      30.277  44.161  55.795  1.00  0.00     0.037 A 
ENDBRANCH  38  39
ENDBRANCH  35  38
ENDBRANCH  10  32
BRANCH  11  45
HETATM   45  N   UNL     1      29.138  40.789  51.796  1.00  0.00    -0.384 N 
HETATM   46  H   UNL     1      30.006  40.863  51.276  1.00  0.00     0.157 HD
HETATM   47  H   UNL     1      29.215  40.243  52.648  1.00  0.00     0.157 HD
ENDBRANCH  11  45
TORSDOF 12
ENDMDL
MODEL 5
REMARK VINA RESULT:      -9.4      3.834      8.148
REMARK  12 active torsions:
REMARK  status: ('A' for Active; 'I' for Inactive)
REMARK    1  A    between atoms: C_9  and  S_10 
REMARK    2  A    between atoms: S_10  and  C_11 
REMARK    3  A    between atoms: C_11  and  C_12 
REMARK       I    between atoms: C_12  and  N_13 
REMARK    4  A    between atoms: N_13  and  C_14 
REMARK    5  A    between atoms: C_14  and  C_15 
REMARK    6  A    between atoms: C_15  and  C_16 
REMARK    7  A    between atoms: C_19  and  S_20 
REMARK    8  A    between atoms: S_20  and  N_21 
REMARK    9  A    between atoms: N_27  and  C_28 
REMARK   10  A    between atoms: C_31  and  O_32 
REMARK   11  A    between atoms: O_32  and  C_33 
REMARK   12  A    between atoms: C_41  and  N_42 
ROOT
HETATM    1  C   UNL     1      23.461  49.689  48.908  1.00  0.00     0.073 C 
HETATM    2  C   UNL     1      23.082  48.312  48.492  1.00  0.00     0.068 A 
HETATM    3  N   UNL     1      22.210  48.154  47.489  1.00  0.00    -0.177 NA
HETATM    4  N   UNL     1      22.102  46.825  47.350  1.00  0.00    -0.260 N 
HETATM    5  H   UNL     1      21.495  46.454  46.626  1.00  0.00     0.191 HD
HETATM    6  C   UNL     1      22.863  46.133  48.247  1.00  0.00     0.162 A 
HETATM    7  C   UNL     1      23.532  47.061  49.015  1.00  0.00     0.081 A 
HETATM    8  N   UNL     1      22.939  44.810  48.355  1.00  0.00    -0.204 NA
HETATM    9  C   UNL     1      23.814  44.417  49.307  1.00  0.00     0.177 A 
HETATM   10  N   UNL     1      24.543  45.261  50.096  1.00  0.00    -0.276 N 
HETATM   11  C   UNL     1      24.397  46.620  50.030  1.00  0.00     0.124 A 
ENDROOT
BRANCH   9  12
HETATM   12  S   UNL     1      23.965  42.633  49.389  1.00  0.00    -0.082 SA
BRANCH  12  13
HETATM   13  C   UNL     1      23.507  42.234  47.669  1.00  0.00     0.185 C 
BRANCH  13  14
HETATM   14  C   UNL     1      24.367  41.124  47.086  1.00  0.00     0.227 C 
HETATM   15  N   UNL     1      24.871  41.442  45.837  1.00  0.00    -0.360 N 
HETATM   16  H   UNL     1      24.847  42.409  45.536  1.00  0.00     0.162 HD
HETATM   17  O   UNL     1      24.534  40.037  47.626  1.00  0.00    -0.273 OA
BRANCH  15  18
HETATM   18  C   UNL     1      25.813  40.574  45.145  1.00  0.00     0.127 C 
BRANCH  18  19
HETATM   19  C   UNL     1      27.259  41.004  45.398  1.00  0.00     0.058 C 
BRANCH  19  20
HETATM   20  C   UNL     1      27.863  40.270  46.569  1.00  0.00    -0.057 A 
HETATM   21  C   UNL     1      28.040  38.879  46.527  1.00  0.00     0.009 A 
HETATM   22  C   UNL     1      28.556  38.198  47.632  1.00  0.00     0.025 A 
HETATM   23  C   UNL     1      28.901  38.912  48.782  1.00  0.00     0.074 A 
HETATM   24  C   UNL     1      28.725  40.296  48.841  1.00  0.00     0.025 A 
HETATM   25  C   UNL     1      28.210  40.971  47.735  1.00  0.00     0.009 A 
BRANCH  23  26
HETATM   26  S   UNL     1      29.489  38.048  50.210  1.00  0.00     0.239 S 
HETATM   27  O   UNL     1      28.588  36.956  50.502  1.00  0.00    -0.206 OA
HETATM   28  O   UNL     1      30.915  37.867  50.100  1.00  0.00    -0.206 OA
BRANCH  26  29
HETATM   29  N   UNL     1      29.254  39.180  51.427  1.00  0.00    -0.225 NA
HETATM   30  H   UNL     1      28.256  39.352  51.551  1.00  0.00     0.136 HD
HETATM   31  H   UNL     1      29.722  38.869  52.280  1.00  0.00     0.136 HD
ENDBRANCH  26  29
ENDBRANCH  23  26
ENDBRANCH  19  20
ENDBRANCH  18  19
ENDBRANCH  15  18
ENDBRANCH  13  14
ENDBRANCH  12  13
ENDBRANCH   9  12
BRANCH  10  32
HETATM   32  C   UNL     1      25.548  44.731  50.989  1.00  0.00     0.043 A 
HETATM   33  C   UNL     1      25.161  44.373  52.283  1.00  0.00     0.033 A 
HETATM   34  C   UNL     1      26.092  43.761  53.121  1.00  0.00     0.039 A 
HETATM   35  C   UNL     1      27.400  43.519  52.683  1.00  0.00     0.076 A 
HETATM   36  C   UNL     1      27.777  43.904  51.390  1.00  0.00     0.039 A 
HETATM   37  C   UNL     1      26.844  44.493  50.527  1.00  0.00     0.033 A 
BRANCH  35  38
HETATM   38  O   UNL     1      28.201  42.903  53.618  1.00  0.00    -0.311 OA
BRANCH  38  39
HETATM   39  C   UNL     1      29.003  43.667  54.426  1.00  0.00     0.076 A 
HETATM   40  C   UNL     1      28.527  44.916  54.823  1.00  0.00     0.037 A 
HETATM   41  C   UNL     1      29.274  45.691  55.709  1.00  0.00     0.003 A 
HETATM   42  C   UNL     1      30.489  45.211  56.200  1.00  0.00     0.000 A 
HETATM   43  C   UNL     1      30.950  43.949  55.819  1.00  0.00     0.003 A 
HETATM   44  C   UNL     1      30.200  43.167  54.942  1.00  0.00     0.037 A 
ENDBRANCH  38  39
ENDBRANCH  35  38
ENDBRANCH  10  32
BRANCH  11  45
HETATM   45  N   UNL     1      25.046  47.499  50.891  1.00  0.00    -0.384 N 
HETATM   46  H   UNL     1      26.060  47.536  50.932  1.00  0.00     0.157 HD
HETATM   47  H   UNL     1      24.591  47.739  51.766  1.00  0.00     0.157 HD
ENDBRANCH  11  45
TORSDOF 12
ENDMDL
MODEL 6
REMARK VINA RESULT:      -9.4      1.602      1.752
REMARK  12 active torsions:
REMARK  status: ('A' for Active; 'I' for Inactive)
REMARK    1  A    between atoms: C_9  and  S_10 
REMARK    2  A    between atoms: S_10  and  C_11 
REMARK    3  A    between atoms: C_11  and  C_12 
REMARK       I    between atoms: C_12  and  N_13 
REMARK    4  A    between atoms: N_13  and  C_14 
REMARK    5  A    between atoms: C_14  and  C_15 
REMARK    6  A    between atoms: C_15  and  C_16 
REMARK    7  A    between atoms: C_19  and  S_20 
REMARK    8  A    between atoms: S_20  and  N_21 
REMARK    9  A    between atoms: N_27  and  C_28 
REMARK   10  A    between atoms: C_31  and  O_32 
REMARK   11  A    between atoms: O_32  and  C_33 
REMARK   12  A    between atoms: C_41  and  N_42 
ROOT
HETATM    1  C   UNL     1      22.845  41.729  46.626  1.00  0.00     0.073 C 
HETATM    2  C   UNL     1      22.801  43.158  47.035  1.00  0.00     0.068 A 
HETATM    3  N   UNL     1      21.948  43.985  46.419  1.00  0.00    -0.177 NA
HETATM    4  N   UNL     1      22.136  45.166  47.022  1.00  0.00    -0.260 N 
HETATM    5  H   UNL     1      21.579  45.962  46.728  1.00  0.00     0.191 HD
HETATM    6  C   UNL     1      23.097  45.122  47.990  1.00  0.00     0.162 A 
HETATM    7  C   UNL     1      23.561  43.826  48.044  1.00  0.00     0.081 A 
HETATM    8  N   UNL     1      23.506  46.145  48.736  1.00  0.00    -0.204 NA
HETATM    9  C   UNL     1      24.440  45.782  49.643  1.00  0.00     0.177 A 
HETATM   10  N   UNL     1      24.938  44.519  49.792  1.00  0.00    -0.276 N 
HETATM   11  C   UNL     1      24.568  43.493  48.965  1.00  0.00     0.124 A 
ENDROOT
BRANCH   9  12
HETATM   12  S   UNL     1      24.926  47.151  50.694  1.00  0.00    -0.082 SA
BRANCH  12  13
HETATM   13  C   UNL     1      26.074  47.987  49.550  1.00  0.00     0.185 C 
BRANCH  13  14
HETATM   14  C   UNL     1      25.435  49.185  48.866  1.00  0.00     0.227 C 
HETATM   15  N   UNL     1      24.100  49.337  49.197  1.00  0.00    -0.360 N 
HETATM   16  H   UNL     1      23.739  48.837  50.000  1.00  0.00     0.162 HD
HETATM   17  O   UNL     1      26.014  49.895  48.052  1.00  0.00    -0.273 OA
BRANCH  15  18
HETATM   18  C   UNL     1      23.323  50.484  48.749  1.00  0.00     0.127 C 
BRANCH  18  19
HETATM   19  C   UNL     1      22.410  50.118  47.576  1.00  0.00     0.058 C 
BRANCH  19  20
HETATM   20  C   UNL     1      20.977  50.505  47.842  1.00  0.00    -0.057 A 
HETATM   21  C   UNL     1      19.925  49.828  47.209  1.00  0.00     0.009 A 
HETATM   22  C   UNL     1      18.601  50.222  47.422  1.00  0.00     0.025 A 
HETATM   23  C   UNL     1      18.330  51.295  48.275  1.00  0.00     0.074 A 
HETATM   24  C   UNL     1      19.368  51.982  48.907  1.00  0.00     0.025 A 
HETATM   25  C   UNL     1      20.687  51.584  48.692  1.00  0.00     0.009 A 
BRANCH  23  26
HETATM   26  S   UNL     1      16.662  51.844  48.494  1.00  0.00     0.239 S 
HETATM   27  O   UNL     1      15.779  50.702  48.419  1.00  0.00    -0.206 OA
HETATM   28  O   UNL     1      16.614  52.791  49.580  1.00  0.00    -0.206 OA
BRANCH  26  29
HETATM   29  N   UNL     1      16.397  52.728  47.092  1.00  0.00    -0.225 NA
HETATM   30  H   UNL     1      17.291  52.984  46.671  1.00  0.00     0.136 HD
HETATM   31  H   UNL     1      15.788  52.201  46.464  1.00  0.00     0.136 HD
ENDBRANCH  26  29
ENDBRANCH  23  26
ENDBRANCH  19  20
ENDBRANCH  18  19
ENDBRANCH  15  18
ENDBRANCH  13  14
ENDBRANCH  12  13
ENDBRANCH   9  12
BRANCH  10  32
HETATM   32  C   UNL     1      25.835  44.217  50.884  1.00  0.00     0.043 A 
HETATM   33  C   UNL     1      25.280  43.846  52.113  1.00  0.00     0.033 A 
HETATM   34  C   UNL     1      26.129  43.449  53.145  1.00  0.00     0.039 A 
HETATM   35  C   UNL     1      27.517  43.431  52.963  1.00  0.00     0.076 A 
HETATM   36  C   UNL     1      28.058  43.827  51.733  1.00  0.00     0.039 A 
HETATM   37  C   UNL     1      27.216  44.200  50.678  1.00  0.00     0.033 A 
BRANCH  35  38
HETATM   38  O   UNL     1      28.223  43.009  54.068  1.00  0.00    -0.311 OA
BRANCH  38  39
HETATM   39  C   UNL     1      28.999  43.907  54.754  1.00  0.00     0.076 A 
HETATM   40  C   UNL     1      28.429  45.132  55.097  1.00  0.00     0.037 A 
HETATM   41  C   UNL     1      29.156  46.041  55.865  1.00  0.00     0.003 A 
HETATM   42  C   UNL     1      30.444  45.719  56.293  1.00  0.00     0.000 A 
HETATM   43  C   UNL     1      31.002  44.481  55.968  1.00  0.00     0.003 A 
HETATM   44  C   UNL     1      30.273  43.564  55.210  1.00  0.00     0.037 A 
ENDBRANCH  38  39
ENDBRANCH  35  38
ENDBRANCH  10  32
BRANCH  11  45
HETATM   45  N   UNL     1      25.135  42.224  49.025  1.00  0.00    -0.384 N 
HETATM   46  H   UNL     1      25.373  41.800  49.916  1.00  0.00     0.157 HD
HETATM   47  H   UNL     1      25.727  41.925  48.256  1.00  0.00     0.157 HD
ENDBRANCH  11  45
TORSDOF 12
ENDMDL
MODEL 7
REMARK VINA RESULT:      -8.9     11.751     14.418
REMARK  12 active torsions:
REMARK  status: ('A' for Active; 'I' for Inactive)
REMARK    1  A    between atoms: C_9  and  S_10 
REMARK    2  A    between atoms: S_10  and  C_11 
REMARK    3  A    between atoms: C_11  and  C_12 
REMARK       I    between atoms: C_12  and  N_13 
REMARK    4  A    between atoms: N_13  and  C_14 
REMARK    5  A    between atoms: C_14  and  C_15 
REMARK    6  A    between atoms: C_15  and  C_16 
REMARK    7  A    between atoms: C_19  and  S_20 
REMARK    8  A    between atoms: S_20  and  N_21 
REMARK    9  A    between atoms: N_27  and  C_28 
REMARK   10  A    between atoms: C_31  and  O_32 
REMARK   11  A    between atoms: O_32  and  C_33 
REMARK   12  A    between atoms: C_41  and  N_42 
ROOT
HETATM    1  C   UNL     1      20.567  49.710  38.324  1.00  0.00     0.073 C 
HETATM    2  C   UNL     1      21.532  48.692  37.831  1.00  0.00     0.068 A 
HETATM    3  N   UNL     1      21.079  47.670  37.094  1.00  0.00    -0.177 NA
HETATM    4  N   UNL     1      22.177  46.962  36.797  1.00  0.00    -0.260 N 
HETATM    5  H   UNL     1      22.085  46.131  36.222  1.00  0.00     0.191 HD
HETATM    6  C   UNL     1      23.313  47.491  37.338  1.00  0.00     0.162 A 
HETATM    7  C   UNL     1      22.947  48.630  38.020  1.00  0.00     0.081 A 
HETATM    8  N   UNL     1      24.541  46.992  37.225  1.00  0.00    -0.204 NA
HETATM    9  C   UNL     1      25.470  47.763  37.832  1.00  0.00     0.177 A 
HETATM   10  N   UNL     1      25.208  48.922  38.504  1.00  0.00    -0.276 N 
HETATM   11  C   UNL     1      23.931  49.383  38.682  1.00  0.00     0.124 A 
ENDROOT
BRANCH   9  12
HETATM   12  S   UNL     1      27.129  47.122  37.606  1.00  0.00    -0.082 SA
BRANCH  12  13
HETATM   13  C   UNL     1      27.319  46.267  39.206  1.00  0.00     0.185 C 
BRANCH  13  14
HETATM   14  C   UNL     1      28.758  46.269  39.694  1.00  0.00     0.227 C 
HETATM   15  N   UNL     1      29.245  47.547  39.908  1.00  0.00    -0.360 N 
HETATM   16  H   UNL     1      28.587  48.314  39.968  1.00  0.00     0.162 HD
HETATM   17  O   UNL     1      29.439  45.258  39.813  1.00  0.00    -0.273 OA
BRANCH  15  18
HETATM   18  C   UNL     1      30.561  47.781  40.487  1.00  0.00     0.127 C 
BRANCH  18  19
HETATM   19  C   UNL     1      30.467  48.599  41.777  1.00  0.00     0.058 C 
BRANCH  19  20
HETATM   20  C   UNL     1      31.742  49.356  42.051  1.00  0.00    -0.057 A 
HETATM   21  C   UNL     1      31.750  50.445  42.935  1.00  0.00     0.009 A 
HETATM   22  C   UNL     1      32.923  51.173  43.150  1.00  0.00     0.025 A 
HETATM   23  C   UNL     1      34.093  50.807  42.481  1.00  0.00     0.074 A 
HETATM   24  C   UNL     1      34.099  49.729  41.593  1.00  0.00     0.025 A 
HETATM   25  C   UNL     1      32.925  49.005  41.383  1.00  0.00     0.009 A 
BRANCH  23  26
HETATM   26  S   UNL     1      35.565  51.767  42.694  1.00  0.00     0.239 S 
HETATM   27  O   UNL     1      35.882  52.423  41.446  1.00  0.00    -0.206 OA
HETATM   28  O   UNL     1      35.488  52.478  43.947  1.00  0.00    -0.206 OA
BRANCH  26  29
HETATM   29  N   UNL     1      36.731  50.579  42.903  1.00  0.00    -0.225 NA
HETATM   30  H   UNL     1      37.003  50.531  43.886  1.00  0.00     0.136 HD
HETATM   31  H   UNL     1      36.387  49.691  42.533  1.00  0.00     0.136 HD
ENDBRANCH  26  29
ENDBRANCH  23  26
ENDBRANCH  19  20
ENDBRANCH  18  19
ENDBRANCH  15  18
ENDBRANCH  13  14
ENDBRANCH  12  13
ENDBRANCH   9  12
BRANCH  10  32
HETATM   32  C   UNL     1      26.295  49.736  38.998  1.00  0.00     0.043 A 
HETATM   33  C   UNL     1      26.898  50.640  38.118  1.00  0.00     0.033 A 
HETATM   34  C   UNL     1      27.874  51.507  38.605  1.00  0.00     0.039 A 
HETATM   35  C   UNL     1      28.259  51.469  39.951  1.00  0.00     0.076 A 
HETATM   36  C   UNL     1      27.660  50.543  40.815  1.00  0.00     0.039 A 
HETATM   37  C   UNL     1      26.657  49.685  40.346  1.00  0.00     0.033 A 
BRANCH  35  38
HETATM   38  O   UNL     1      29.227  52.390  40.285  1.00  0.00    -0.311 OA
BRANCH  38  39
HETATM   39  C   UNL     1      30.494  52.247  39.780  1.00  0.00     0.076 A 
HETATM   40  C   UNL     1      31.485  53.105  40.255  1.00  0.00     0.037 A 
HETATM   41  C   UNL     1      32.803  52.942  39.829  1.00  0.00     0.003 A 
HETATM   42  C   UNL     1      33.125  51.918  38.938  1.00  0.00     0.000 A 
HETATM   43  C   UNL     1      32.134  51.046  38.483  1.00  0.00     0.003 A 
HETATM   44  C   UNL     1      30.817  51.199  38.916  1.00  0.00     0.037 A 
ENDBRANCH  38  39
ENDBRANCH  35  38
ENDBRANCH  10  32
BRANCH  11  45
HETATM   45  N   UNL     1      23.625  50.501  39.450  1.00  0.00    -0.384 N 
HETATM   46  H   UNL     1      24.277  51.275  39.529  1.00  0.00     0.157 HD
HETATM   47  H   UNL     1      23.035  50.376  40.267  1.00  0.00     0.157 HD
ENDBRANCH  11  45
TORSDOF 12
ENDMDL
MODEL 8
REMARK VINA RESULT:      -8.6      2.972      4.809
REMARK  12 active torsions:
REMARK  status: ('A' for Active; 'I' for Inactive)
REMARK    1  A    between atoms: C_9  and  S_10 
REMARK    2  A    between atoms: S_10  and  C_11 
REMARK    3  A    between atoms: C_11  and  C_12 
REMARK       I    between atoms: C_12  and  N_13 
REMARK    4  A    between atoms: N_13  and  C_14 
REMARK    5  A    between atoms: C_14  and  C_15 
REMARK    6  A    between atoms: C_15  and  C_16 
REMARK    7  A    between atoms: C_19  and  S_20 
REMARK    8  A    between atoms: S_20  and  N_21 
REMARK    9  A    between atoms: N_27  and  C_28 
REMARK   10  A    between atoms: C_31  and  O_32 
REMARK   11  A    between atoms: O_32  and  C_33 
REMARK   12  A    between atoms: C_41  and  N_42 
ROOT
HETATM    1  C   UNL     1      29.457  37.272  50.193  1.00  0.00     0.073 C 
HETATM    2  C   UNL     1      28.219  38.004  49.816  1.00  0.00     0.068 A 
HETATM    3  N   UNL     1      27.376  37.446  48.938  1.00  0.00    -0.177 NA
HETATM    4  N   UNL     1      26.374  38.329  48.833  1.00  0.00    -0.260 N 
HETATM    5  H   UNL     1      25.592  38.115  48.222  1.00  0.00     0.191 HD
HETATM    6  C   UNL     1      26.561  39.441  49.602  1.00  0.00     0.162 A 
HETATM    7  C   UNL     1      27.753  39.276  50.272  1.00  0.00     0.081 A 
HETATM    8  N   UNL     1      25.742  40.486  49.682  1.00  0.00    -0.204 NA
HETATM    9  C   UNL     1      26.174  41.415  50.565  1.00  0.00     0.177 A 
HETATM   10  N   UNL     1      27.324  41.325  51.296  1.00  0.00    -0.276 N 
HETATM   11  C   UNL     1      28.198  40.282  51.145  1.00  0.00     0.124 A 
ENDROOT
BRANCH   9  12
HETATM   12  S   UNL     1      25.024  42.781  50.722  1.00  0.00    -0.082 SA
BRANCH  12  13
HETATM   13  C   UNL     1      23.942  42.399  49.303  1.00  0.00     0.185 C 
BRANCH  13  14
HETATM   14  C   UNL     1      22.753  43.343  49.214  1.00  0.00     0.227 C 
HETATM   15  N   UNL     1      22.329  43.542  47.912  1.00  0.00    -0.360 N 
HETATM   16  H   UNL     1      22.646  42.902  47.195  1.00  0.00     0.162 HD
HETATM   17  O   UNL     1      22.271  43.924  50.179  1.00  0.00    -0.273 OA
BRANCH  15  18
HETATM   18  C   UNL     1      21.134  44.316  47.604  1.00  0.00     0.127 C 
BRANCH  18  19
HETATM   19  C   UNL     1      21.481  45.606  46.858  1.00  0.00     0.058 C 
BRANCH  19  20
HETATM   20  C   UNL     1      21.128  46.830  47.665  1.00  0.00    -0.057 A 
HETATM   21  C   UNL     1      19.897  46.916  48.331  1.00  0.00     0.009 A 
HETATM   22  C   UNL     1      19.556  48.072  49.038  1.00  0.00     0.025 A 
HETATM   23  C   UNL     1      20.452  49.143  49.083  1.00  0.00     0.074 A 
HETATM   24  C   UNL     1      21.678  49.074  48.420  1.00  0.00     0.025 A 
HETATM   25  C   UNL     1      22.015  47.918  47.716  1.00  0.00     0.009 A 
BRANCH  23  26
HETATM   26  S   UNL     1      19.996  50.636  49.918  1.00  0.00     0.239 S 
HETATM   27  O   UNL     1      20.059  51.735  48.982  1.00  0.00    -0.206 OA
HETATM   28  O   UNL     1      18.839  50.384  50.741  1.00  0.00    -0.206 OA
BRANCH  26  29
HETATM   29  N   UNL     1      21.282  50.852  50.975  1.00  0.00    -0.225 NA
HETATM   30  H   UNL     1      21.893  50.034  50.948  1.00  0.00     0.136 HD
HETATM   31  H   UNL     1      21.763  51.726  50.756  1.00  0.00     0.136 HD
ENDBRANCH  26  29
ENDBRANCH  23  26
ENDBRANCH  19  20
ENDBRANCH  18  19
ENDBRANCH  15  18
ENDBRANCH  13  14
ENDBRANCH  12  13
ENDBRANCH   9  12
BRANCH  10  32
HETATM   32  C   UNL     1      27.618  42.313  52.308  1.00  0.00     0.043 A 
HETATM   33  C   UNL     1      28.230  43.505  51.912  1.00  0.00     0.033 A 
HETATM   34  C   UNL     1      28.423  44.512  52.857  1.00  0.00     0.039 A 
HETATM   35  C   UNL     1      28.023  44.332  54.187  1.00  0.00     0.076 A 
HETATM   36  C   UNL     1      27.430  43.123  54.572  1.00  0.00     0.039 A 
HETATM   37  C   UNL     1      27.204  42.114  53.627  1.00  0.00     0.033 A 
BRANCH  35  38
HETATM   38  O   UNL     1      28.272  45.415  54.999  1.00  0.00    -0.311 OA
BRANCH  38  39
HETATM   39  C   UNL     1      29.127  45.278  56.062  1.00  0.00     0.076 A 
HETATM   40  C   UNL     1      30.247  44.464  55.895  1.00  0.00     0.037 A 
HETATM   41  C   UNL     1      31.185  44.360  56.922  1.00  0.00     0.003 A 
HETATM   42  C   UNL     1      31.004  45.076  58.105  1.00  0.00     0.000 A 
HETATM   43  C   UNL     1      29.894  45.909  58.259  1.00  0.00     0.003 A 
HETATM   44  C   UNL     1      28.960  46.024  57.230  1.00  0.00     0.037 A 
ENDBRANCH  38  39
ENDBRANCH  35  38
ENDBRANCH  10  32
BRANCH  11  45
HETATM   45  N   UNL     1      29.424  40.216  51.798  1.00  0.00    -0.384 N 
HETATM   46  H   UNL     1      30.079  40.991  51.759  1.00  0.00     0.157 HD
HETATM   47  H   UNL     1      29.869  39.308  51.896  1.00  0.00     0.157 HD
ENDBRANCH  11  45
TORSDOF 12
ENDMDL
MODEL 9
REMARK VINA RESULT:      -8.5      2.422      3.212
REMARK  12 active torsions:
REMARK  status: ('A' for Active; 'I' for Inactive)
REMARK    1  A    between atoms: C_9  and  S_10 
REMARK    2  A    between atoms: S_10  and  C_11 
REMARK    3  A    between atoms: C_11  and  C_12 
REMARK       I    between atoms: C_12  and  N_13 
REMARK    4  A    between atoms: N_13  and  C_14 
REMARK    5  A    between atoms: C_14  and  C_15 
REMARK    6  A    between atoms: C_15  and  C_16 
REMARK    7  A    between atoms: C_19  and  S_20 
REMARK    8  A    between atoms: S_20  and  N_21 
REMARK    9  A    between atoms: N_27  and  C_28 
REMARK   10  A    between atoms: C_31  and  O_32 
REMARK   11  A    between atoms: O_32  and  C_33 
REMARK   12  A    between atoms: C_41  and  N_42 
ROOT
HETATM    1  C   UNL     1      21.656  42.705  45.637  1.00  0.00     0.073 C 
HETATM    2  C   UNL     1      21.661  44.094  46.167  1.00  0.00     0.068 A 
HETATM    3  N   UNL     1      20.772  44.975  45.691  1.00  0.00    -0.177 NA
HETATM    4  N   UNL     1      21.020  46.100  46.374  1.00  0.00    -0.260 N 
HETATM    5  H   UNL     1      20.451  46.921  46.192  1.00  0.00     0.191 HD
HETATM    6  C   UNL     1      22.053  45.969  47.257  1.00  0.00     0.162 A 
HETATM    7  C   UNL     1      22.504  44.671  47.166  1.00  0.00     0.081 A 
HETATM    8  N   UNL     1      22.530  46.923  48.051  1.00  0.00    -0.204 NA
HETATM    9  C   UNL     1      23.528  46.480  48.849  1.00  0.00     0.177 A 
HETATM   10  N   UNL     1      24.021  45.206  48.852  1.00  0.00    -0.276 N 
HETATM   11  C   UNL     1      23.575  44.256  47.974  1.00  0.00     0.124 A 
ENDROOT
BRANCH   9  12
HETATM   12  S   UNL     1      24.109  47.753  49.970  1.00  0.00    -0.082 SA
BRANCH  12  13
HETATM   13  C   UNL     1      23.917  49.199  48.874  1.00  0.00     0.185 C 
BRANCH  13  14
HETATM   14  C   UNL     1      22.986  50.247  49.462  1.00  0.00     0.227 C 
HETATM   15  N   UNL     1      21.683  49.794  49.581  1.00  0.00    -0.360 N 
HETATM   16  H   UNL     1      21.508  48.799  49.516  1.00  0.00     0.162 HD
HETATM   17  O   UNL     1      23.331  51.392  49.729  1.00  0.00    -0.273 OA
BRANCH  15  18
HETATM   18  C   UNL     1      20.650  50.591  50.227  1.00  0.00     0.127 C 
BRANCH  18  19
HETATM   19  C   UNL     1      19.747  51.276  49.198  1.00  0.00     0.058 C 
BRANCH  19  20
HETATM   20  C   UNL     1      19.137  50.283  48.242  1.00  0.00    -0.057 A 
HETATM   21  C   UNL     1      18.342  49.230  48.717  1.00  0.00     0.009 A 
HETATM   22  C   UNL     1      17.817  48.285  47.831  1.00  0.00     0.025 A 
HETATM   23  C   UNL     1      18.086  48.397  46.464  1.00  0.00     0.074 A 
HETATM   24  C   UNL     1      18.881  49.437  45.978  1.00  0.00     0.025 A 
HETATM   25  C   UNL     1      19.401  50.378  46.867  1.00  0.00     0.009 A 
BRANCH  23  26
HETATM   26  S   UNL     1      17.484  47.165  45.346  1.00  0.00     0.239 S 
HETATM   27  O   UNL     1      17.349  45.913  46.055  1.00  0.00    -0.206 OA
HETATM   28  O   UNL     1      16.419  47.726  44.552  1.00  0.00    -0.206 OA
BRANCH  26  29
HETATM   29  N   UNL     1      18.787  46.970  44.305  1.00  0.00    -0.225 NA
HETATM   30  H   UNL     1      18.481  47.101  43.340  1.00  0.00     0.136 HD
HETATM   31  H   UNL     1      19.543  47.599  44.580  1.00  0.00     0.136 HD
ENDBRANCH  26  29
ENDBRANCH  23  26
ENDBRANCH  19  20
ENDBRANCH  18  19
ENDBRANCH  15  18
ENDBRANCH  13  14
ENDBRANCH  12  13
ENDBRANCH   9  12
BRANCH  10  32
HETATM   32  C   UNL     1      24.995  44.809  49.842  1.00  0.00     0.043 A 
HETATM   33  C   UNL     1      24.541  44.170  50.999  1.00  0.00     0.033 A 
HETATM   34  C   UNL     1      25.474  43.684  51.914  1.00  0.00     0.039 A 
HETATM   35  C   UNL     1      26.848  43.843  51.688  1.00  0.00     0.076 A 
HETATM   36  C   UNL     1      27.285  44.505  50.534  1.00  0.00     0.039 A 
HETATM   37  C   UNL     1      26.360  44.972  49.592  1.00  0.00     0.033 A 
BRANCH  35  38
HETATM   38  O   UNL     1      27.645  43.306  52.674  1.00  0.00    -0.311 OA
BRANCH  38  39
HETATM   39  C   UNL     1      28.181  44.130  53.629  1.00  0.00     0.076 A 
HETATM   40  C   UNL     1      27.479  45.288  53.959  1.00  0.00     0.037 A 
HETATM   41  C   UNL     1      27.946  46.112  54.982  1.00  0.00     0.003 A 
HETATM   42  C   UNL     1      29.108  45.771  55.675  1.00  0.00     0.000 A 
HETATM   43  C   UNL     1      29.795  44.597  55.358  1.00  0.00     0.003 A 
HETATM   44  C   UNL     1      29.324  43.765  54.343  1.00  0.00     0.037 A 
ENDBRANCH  38  39
ENDBRANCH  35  38
ENDBRANCH  10  32
BRANCH  11  45
HETATM   45  N   UNL     1      24.130  42.983  47.883  1.00  0.00    -0.384 N 
HETATM   46  H   UNL     1      23.749  42.292  47.245  1.00  0.00     0.157 HD
HETATM   47  H   UNL     1      24.556  42.584  48.714  1.00  0.00     0.157 HD
ENDBRANCH  11  45
TORSDOF 12
ENDMDL
MODEL 10
REMARK VINA RESULT:      -8.4      3.708      6.463
REMARK  12 active torsions:
REMARK  status: ('A' for Active; 'I' for Inactive)
REMARK    1  A    between atoms: C_9  and  S_10 
REMARK    2  A    between atoms: S_10  and  C_11 
REMARK    3  A    between atoms: C_11  and  C_12 
REMARK       I    between atoms: C_12  and  N_13 
REMARK    4  A    between atoms: N_13  and  C_14 
REMARK    5  A    between atoms: C_14  and  C_15 
REMARK    6  A    between atoms: C_15  and  C_16 
REMARK    7  A    between atoms: C_19  and  S_20 
REMARK    8  A    between atoms: S_20  and  N_21 
REMARK    9  A    between atoms: N_27  and  C_28 
REMARK   10  A    between atoms: C_31  and  O_32 
REMARK   11  A    between atoms: O_32  and  C_33 
REMARK   12  A    between atoms: C_41  and  N_42 
ROOT
HETATM    1  C   UNL     1      31.062  43.388  55.734  1.00  0.00     0.073 C 
HETATM    2  C   UNL     1      29.888  44.250  55.437  1.00  0.00     0.068 A 
HETATM    3  N   UNL     1      29.707  45.370  56.147  1.00  0.00    -0.177 NA
HETATM    4  N   UNL     1      28.598  45.916  55.629  1.00  0.00    -0.260 N 
HETATM    5  H   UNL     1      28.264  46.798  56.004  1.00  0.00     0.191 HD
HETATM    6  C   UNL     1      28.056  45.168  54.624  1.00  0.00     0.162 A 
HETATM    7  C   UNL     1      28.867  44.068  54.453  1.00  0.00     0.081 A 
HETATM    8  N   UNL     1      26.950  45.454  53.943  1.00  0.00    -0.204 NA
HETATM    9  C   UNL     1      26.690  44.548  52.974  1.00  0.00     0.177 A 
HETATM   10  N   UNL     1      27.451  43.444  52.711  1.00  0.00    -0.276 N 
HETATM   11  C   UNL     1      28.541  43.118  53.471  1.00  0.00     0.124 A 
ENDROOT
BRANCH   9  12
HETATM   12  S   UNL     1      25.242  44.985  52.013  1.00  0.00    -0.082 SA
BRANCH  12  13
HETATM   13  C   UNL     1      25.667  46.721  51.643  1.00  0.00     0.185 C 
BRANCH  13  14
HETATM   14  C   UNL     1      25.246  47.131  50.241  1.00  0.00     0.227 C 
HETATM   15  N   UNL     1      23.875  47.276  50.119  1.00  0.00    -0.360 N 
HETATM   16  H   UNL     1      23.317  47.345  50.961  1.00  0.00     0.162 HD
HETATM   17  O   UNL     1      26.024  47.246  49.302  1.00  0.00    -0.273 OA
BRANCH  15  18
HETATM   18  C   UNL     1      23.262  47.776  48.896  1.00  0.00     0.127 C 
BRANCH  18  19
HETATM   19  C   UNL     1      23.233  49.306  48.870  1.00  0.00     0.058 C 
BRANCH  19  20
HETATM   20  C   UNL     1      21.825  49.839  48.932  1.00  0.00    -0.057 A 
HETATM   21  C   UNL     1      20.758  49.001  49.289  1.00  0.00     0.009 A 
HETATM   22  C   UNL     1      19.449  49.489  49.300  1.00  0.00     0.025 A 
HETATM   23  C   UNL     1      19.207  50.822  48.957  1.00  0.00     0.074 A 
HETATM   24  C   UNL     1      20.258  51.666  48.593  1.00  0.00     0.025 A 
HETATM   25  C   UNL     1      21.563  51.174  48.585  1.00  0.00     0.009 A 
BRANCH  23  26
HETATM   26  S   UNL     1      17.545  51.426  48.900  1.00  0.00     0.239 S 
HETATM   27  O   UNL     1      16.910  50.944  47.695  1.00  0.00    -0.206 OA
HETATM   28  O   UNL     1      16.944  51.282  50.203  1.00  0.00    -0.206 OA
BRANCH  26  29
HETATM   29  N   UNL     1      17.778  53.073  48.674  1.00  0.00    -0.225 NA
HETATM   30  H   UNL     1      16.876  53.551  48.656  1.00  0.00     0.136 HD
HETATM   31  H   UNL     1      18.413  53.431  49.390  1.00  0.00     0.136 HD
ENDBRANCH  26  29
ENDBRANCH  23  26
ENDBRANCH  19  20
ENDBRANCH  18  19
ENDBRANCH  15  18
ENDBRANCH  13  14
ENDBRANCH  12  13
ENDBRANCH   9  12
BRANCH  10  32
HETATM   32  C   UNL     1      27.153  42.616  51.564  1.00  0.00     0.043 A 
HETATM   33  C   UNL     1      26.586  41.358  51.786  1.00  0.00     0.033 A 
HETATM   34  C   UNL     1      26.194  40.591  50.690  1.00  0.00     0.039 A 
HETATM   35  C   UNL     1      26.375  41.064  49.384  1.00  0.00     0.076 A 
HETATM   36  C   UNL     1      26.964  42.318  49.179  1.00  0.00     0.039 A 
HETATM   37  C   UNL     1      27.336  43.112  50.272  1.00  0.00     0.033 A 
BRANCH  35  38
HETATM   38  O   UNL     1      25.933  40.200  48.407  1.00  0.00    -0.311 OA
BRANCH  38  39
HETATM   39  C   UNL     1      26.839  39.411  47.746  1.00  0.00     0.076 A 
HETATM   40  C   UNL     1      27.819  38.770  48.502  1.00  0.00     0.037 A 
HETATM   41  C   UNL     1      28.709  37.895  47.880  1.00  0.00     0.003 A 
HETATM   42  C   UNL     1      28.611  37.660  46.509  1.00  0.00     0.000 A 
HETATM   43  C   UNL     1      27.613  38.285  45.759  1.00  0.00     0.003 A 
HETATM   44  C   UNL     1      26.713  39.151  46.380  1.00  0.00     0.037 A 
ENDBRANCH  38  39
ENDBRANCH  35  38
ENDBRANCH  10  32
BRANCH  11  45
HETATM   45  N   UNL     1      29.272  41.948  53.292  1.00  0.00    -0.384 N 
HETATM   46  H   UNL     1      29.942  41.861  52.535  1.00  0.00     0.157 HD
HETATM   47  H   UNL     1      28.845  41.068  53.565  1.00  0.00     0.157 HD
ENDBRANCH  11  45
TORSDOF 12
ENDMDL
