MODEL 1
REMARK VINA RESULT:      -8.9      0.000      0.000
REMARK  7 active torsions:
REMARK  status: ('A' for Active; 'I' for Inactive)
REMARK    1  A    between atoms: O_2  and  C_3 
REMARK    2  A    between atoms: C_5  and  N_6 
REMARK    3  A    between atoms: C_7  and  C_9 
REMARK    4  A    between atoms: C_7  and  O_8 
REMARK       I    between atoms: C_9  and  N_10 
REMARK    5  A    between atoms: N_10  and  C_11 
REMARK    6  A    between atoms: C_11  and  C_12 
REMARK    7  A    between atoms: C_12  and  C_13 
ROOT
HETATM    1  N   UNL     1      27.359  43.167  52.254  1.00  0.00    -0.254 N 
HETATM    2  C   UNL     1      26.319  44.166  52.611  1.00  0.00     0.256 C 
HETATM    3  C   UNL     1      26.743  45.236  53.595  1.00  0.00     0.034 A 
HETATM    4  C   UNL     1      28.012  45.198  54.140  1.00  0.00     0.048 A 
HETATM    5  N   UNL     1      28.849  44.153  53.800  1.00  0.00    -0.308 N 
HETATM    6  C   UNL     1      28.565  43.135  52.947  1.00  0.00     0.330 C 
HETATM    7  O   UNL     1      29.428  42.260  52.863  1.00  0.00    -0.246 OA
HETATM    8  C   UNL     1      25.874  46.269  53.993  1.00  0.00     0.015 A 
HETATM    9  C   UNL     1      26.296  47.248  54.894  1.00  0.00     0.001 A 
HETATM   10  C   UNL     1      27.586  47.202  55.414  1.00  0.00     0.002 A 
HETATM   11  C   UNL     1      28.446  46.170  55.043  1.00  0.00     0.030 A 
HETATM   12  H   UNL     1      29.750  44.069  54.252  1.00  0.00     0.170 HD
ENDROOT
BRANCH   2  13
HETATM   13  C   UNL     1      25.886  44.933  51.269  1.00  0.00     0.279 C 
HETATM   14  N   UNL     1      26.832  45.814  50.765  1.00  0.00    -0.356 N 
HETATM   15  H   UNL     1      27.700  45.937  51.272  1.00  0.00     0.162 HD
HETATM   16  O   UNL     1      24.776  44.800  50.750  1.00  0.00    -0.268 OA
BRANCH  14  17
HETATM   17  C   UNL     1      26.631  46.566  49.541  1.00  0.00     0.127 C 
BRANCH  17  18
HETATM   18  C   UNL     1      26.471  48.080  49.735  1.00  0.00     0.058 C 
BRANCH  18  19
HETATM   19  C   UNL     1      25.172  48.652  49.216  1.00  0.00    -0.057 A 
HETATM   20  C   UNL     1      23.938  48.086  49.563  1.00  0.00     0.009 A 
HETATM   21  C   UNL     1      22.746  48.640  49.088  1.00  0.00     0.024 A 
HETATM   22  C   UNL     1      22.782  49.769  48.273  1.00  0.00     0.034 A 
HETATM   23 CL   UNL     1      21.315  50.451  47.688  1.00  0.00    -0.084 Cl
HETATM   24  C   UNL     1      23.999  50.352  47.932  1.00  0.00     0.024 A 
HETATM   25  C   UNL     1      25.189  49.795  48.402  1.00  0.00     0.009 A 
ENDBRANCH  18  19
ENDBRANCH  17  18
ENDBRANCH  14  17
ENDBRANCH   2  13
BRANCH   2  26
HETATM   26  O   UNL     1      25.295  43.467  53.301  1.00  0.00    -0.359 OA
HETATM   27  H   UNL     1      25.742  42.720  53.727  1.00  0.00     0.213 HD
ENDBRANCH   2  26
BRANCH   1  28
HETATM   28  C   UNL     1      27.079  42.197  51.189  1.00  0.00     0.045 A 
HETATM   29  C   UNL     1      27.469  42.429  49.854  1.00  0.00     0.066 A 
HETATM   30  C   UNL     1      27.220  41.505  48.830  1.00  0.00     0.070 A 
HETATM   31  C   UNL     1      26.528  40.334  49.115  1.00  0.00     0.037 A 
HETATM   32  C   UNL     1      26.105  40.081  50.413  1.00  0.00     0.005 A 
HETATM   33  C   UNL     1      26.378  41.000  51.433  1.00  0.00     0.030 A 
BRANCH  30  34
HETATM   34  O   UNL     1      27.579  41.650  47.517  1.00  0.00    -0.356 OA
HETATM   35  C   UNL     1      28.033  40.478  46.847  1.00  0.00     0.210 C 
ENDBRANCH  30  34
ENDBRANCH   1  28
TORSDOF 7
ENDMDL
MODEL 2
REMARK VINA RESULT:      -8.8      2.289      3.764
REMARK  7 active torsions:
REMARK  status: ('A' for Active; 'I' for Inactive)
REMARK    1  A    between atoms: O_2  and  C_3 
REMARK    2  A    between atoms: C_5  and  N_6 
REMARK    3  A    between atoms: C_7  and  C_9 
REMARK    4  A    between atoms: C_7  and  O_8 
REMARK       I    between atoms: C_9  and  N_10 
REMARK    5  A    between atoms: N_10  and  C_11 
REMARK    6  A    between atoms: C_11  and  C_12 
REMARK    7  A    between atoms: C_12  and  C_13 
ROOT
HETATM    1  N   UNL     1      25.540  42.726  50.903  1.00  0.00    -0.254 N 
HETATM    2  C   UNL     1      25.955  43.741  51.905  1.00  0.00     0.256 C 
HETATM    3  C   UNL     1      27.115  43.352  52.797  1.00  0.00     0.034 A 
HETATM    4  C   UNL     1      27.673  42.093  52.680  1.00  0.00     0.048 A 
HETATM    5  N   UNL     1      27.125  41.206  51.775  1.00  0.00    -0.308 N 
HETATM    6  C   UNL     1      26.077  41.443  50.944  1.00  0.00     0.330 C 
HETATM    7  O   UNL     1      25.696  40.474  50.285  1.00  0.00    -0.246 OA
HETATM    8  C   UNL     1      27.638  44.229  53.764  1.00  0.00     0.015 A 
HETATM    9  C   UNL     1      28.716  43.847  54.565  1.00  0.00     0.001 A 
HETATM   10  C   UNL     1      29.277  42.582  54.415  1.00  0.00     0.002 A 
HETATM   11  C   UNL     1      28.750  41.698  53.476  1.00  0.00     0.030 A 
HETATM   12  H   UNL     1      27.471  40.256  51.735  1.00  0.00     0.170 HD
ENDROOT
BRANCH   2  13
HETATM   13  C   UNL     1      26.415  45.060  51.114  1.00  0.00     0.279 C 
HETATM   14  N   UNL     1      25.657  46.193  51.371  1.00  0.00    -0.356 N 
HETATM   15  H   UNL     1      24.868  46.117  52.002  1.00  0.00     0.162 HD
HETATM   16  O   UNL     1      27.335  45.062  50.293  1.00  0.00    -0.268 OA
BRANCH  14  17
HETATM   17  C   UNL     1      25.949  47.483  50.778  1.00  0.00     0.127 C 
BRANCH  17  18
HETATM   18  C   UNL     1      25.501  47.635  49.317  1.00  0.00     0.058 C 
BRANCH  18  19
HETATM   19  C   UNL     1      24.343  48.582  49.103  1.00  0.00    -0.057 A 
HETATM   20  C   UNL     1      24.550  49.890  48.643  1.00  0.00     0.009 A 
HETATM   21  C   UNL     1      23.466  50.747  48.432  1.00  0.00     0.024 A 
HETATM   22  C   UNL     1      22.170  50.296  48.672  1.00  0.00     0.034 A 
HETATM   23 CL   UNL     1      20.835  51.351  48.414  1.00  0.00    -0.084 Cl
HETATM   24  C   UNL     1      21.947  48.996  49.115  1.00  0.00     0.024 A 
HETATM   25  C   UNL     1      23.030  48.143  49.330  1.00  0.00     0.009 A 
ENDBRANCH  18  19
ENDBRANCH  17  18
ENDBRANCH  14  17
ENDBRANCH   2  13
BRANCH   2  26
HETATM   26  O   UNL     1      24.874  43.890  52.813  1.00  0.00    -0.359 OA
HETATM   27  H   UNL     1      24.528  44.781  52.650  1.00  0.00     0.213 HD
ENDBRANCH   2  26
BRANCH   1  28
HETATM   28  C   UNL     1      24.534  43.087  49.898  1.00  0.00     0.045 A 
HETATM   29  C   UNL     1      23.268  43.588  50.263  1.00  0.00     0.066 A 
HETATM   30  C   UNL     1      22.303  43.951  49.312  1.00  0.00     0.070 A 
HETATM   31  C   UNL     1      22.572  43.774  47.960  1.00  0.00     0.037 A 
HETATM   32  C   UNL     1      23.797  43.259  47.562  1.00  0.00     0.005 A 
HETATM   33  C   UNL     1      24.763  42.922  48.518  1.00  0.00     0.030 A 
BRANCH  30  34
HETATM   34  O   UNL     1      21.061  44.457  49.586  1.00  0.00    -0.356 OA
HETATM   35  C   UNL     1      20.463  45.260  48.574  1.00  0.00     0.210 C 
ENDBRANCH  30  34
ENDBRANCH   1  28
TORSDOF 7
ENDMDL
MODEL 3
REMARK VINA RESULT:      -8.7     10.095     12.569
REMARK  7 active torsions:
REMARK  status: ('A' for Active; 'I' for Inactive)
REMARK    1  A    between atoms: O_2  and  C_3 
REMARK    2  A    between atoms: C_5  and  N_6 
REMARK    3  A    between atoms: C_7  and  C_9 
REMARK    4  A    between atoms: C_7  and  O_8 
REMARK       I    between atoms: C_9  and  N_10 
REMARK    5  A    between atoms: N_10  and  C_11 
REMARK    6  A    between atoms: C_11  and  C_12 
REMARK    7  A    between atoms: C_12  and  C_13 
ROOT
HETATM    1  N   UNL     1      28.691  47.441  40.621  1.00  0.00    -0.254 N 
HETATM    2  C   UNL     1      29.014  48.548  41.557  1.00  0.00     0.256 C 
HETATM    3  C   UNL     1      30.479  48.911  41.668  1.00  0.00     0.034 A 
HETATM    4  C   UNL     1      31.418  48.181  40.965  1.00  0.00     0.048 A 
HETATM    5  N   UNL     1      30.993  47.108  40.207  1.00  0.00    -0.308 N 
HETATM    6  C   UNL     1      29.711  46.685  40.053  1.00  0.00     0.330 C 
HETATM    7  O   UNL     1      29.572  45.647  39.404  1.00  0.00    -0.246 OA
HETATM    8  C   UNL     1      30.927  49.964  42.487  1.00  0.00     0.015 A 
HETATM    9  C   UNL     1      32.284  50.282  42.562  1.00  0.00     0.001 A 
HETATM   10  C   UNL     1      33.210  49.548  41.827  1.00  0.00     0.002 A 
HETATM   11  C   UNL     1      32.778  48.488  41.032  1.00  0.00     0.030 A 
HETATM   12  H   UNL     1      31.676  46.517  39.751  1.00  0.00     0.170 HD
ENDROOT
BRANCH   2  13
HETATM   13  C   UNL     1      28.259  49.868  41.044  1.00  0.00     0.279 C 
HETATM   14  N   UNL     1      28.496  50.202  39.718  1.00  0.00    -0.356 N 
HETATM   15  H   UNL     1      29.131  49.626  39.179  1.00  0.00     0.162 HD
HETATM   16  O   UNL     1      27.566  50.573  41.781  1.00  0.00    -0.268 OA
BRANCH  14  17
HETATM   17  C   UNL     1      27.871  51.339  39.071  1.00  0.00     0.127 C 
BRANCH  17  18
HETATM   18  C   UNL     1      28.767  52.578  38.943  1.00  0.00     0.058 C 
BRANCH  18  19
HETATM   19  C   UNL     1      30.251  52.297  38.992  1.00  0.00    -0.057 A 
HETATM   20  C   UNL     1      30.871  51.493  38.025  1.00  0.00     0.009 A 
HETATM   21  C   UNL     1      32.248  51.259  38.076  1.00  0.00     0.024 A 
HETATM   22  C   UNL     1      33.012  51.835  39.087  1.00  0.00     0.034 A 
HETATM   23 CL   UNL     1      34.708  51.546  39.150  1.00  0.00    -0.084 Cl
HETATM   24  C   UNL     1      32.414  52.648  40.046  1.00  0.00     0.024 A 
HETATM   25  C   UNL     1      31.039  52.877  39.998  1.00  0.00     0.009 A 
ENDBRANCH  18  19
ENDBRANCH  17  18
ENDBRANCH  14  17
ENDBRANCH   2  13
BRANCH   2  26
HETATM   26  O   UNL     1      28.684  48.094  42.861  1.00  0.00    -0.359 OA
HETATM   27  H   UNL     1      28.163  48.812  43.254  1.00  0.00     0.213 HD
ENDBRANCH   2  26
BRANCH   1  28
HETATM   28  C   UNL     1      27.283  47.137  40.336  1.00  0.00     0.045 A 
HETATM   29  C   UNL     1      26.432  46.584  41.313  1.00  0.00     0.066 A 
HETATM   30  C   UNL     1      25.081  46.303  41.057  1.00  0.00     0.070 A 
HETATM   31  C   UNL     1      24.561  46.532  39.789  1.00  0.00     0.037 A 
HETATM   32  C   UNL     1      25.375  47.052  38.793  1.00  0.00     0.005 A 
HETATM   33  C   UNL     1      26.716  47.351  39.064  1.00  0.00     0.030 A 
BRANCH  30  34
HETATM   34  O   UNL     1      24.190  45.781  41.955  1.00  0.00    -0.356 OA
HETATM   35  C   UNL     1      24.687  44.784  42.841  1.00  0.00     0.210 C 
ENDBRANCH  30  34
ENDBRANCH   1  28
TORSDOF 7
ENDMDL
MODEL 4
REMARK VINA RESULT:      -8.6      1.471      2.019
REMARK  7 active torsions:
REMARK  status: ('A' for Active; 'I' for Inactive)
REMARK    1  A    between atoms: O_2  and  C_3 
REMARK    2  A    between atoms: C_5  and  N_6 
REMARK    3  A    between atoms: C_7  and  C_9 
REMARK    4  A    between atoms: C_7  and  O_8 
REMARK       I    between atoms: C_9  and  N_10 
REMARK    5  A    between atoms: N_10  and  C_11 
REMARK    6  A    between atoms: C_11  and  C_12 
REMARK    7  A    between atoms: C_12  and  C_13 
ROOT
HETATM    1  N   UNL     1      26.605  43.814  52.045  1.00  0.00    -0.254 N 
HETATM    2  C   UNL     1      25.830  45.039  52.371  1.00  0.00     0.256 C 
HETATM    3  C   UNL     1      26.396  45.903  53.478  1.00  0.00     0.034 A 
HETATM    4  C   UNL     1      27.533  45.494  54.149  1.00  0.00     0.048 A 
HETATM    5  N   UNL     1      28.100  44.280  53.815  1.00  0.00    -0.308 N 
HETATM    6  C   UNL     1      27.665  43.421  52.856  1.00  0.00     0.330 C 
HETATM    7  O   UNL     1      28.270  42.350  52.793  1.00  0.00    -0.246 OA
HETATM    8  C   UNL     1      25.788  47.111  53.866  1.00  0.00     0.015 A 
HETATM    9  C   UNL     1      26.338  47.892  54.884  1.00  0.00     0.001 A 
HETATM   10  C   UNL     1      27.497  47.472  55.530  1.00  0.00     0.002 A 
HETATM   11  C   UNL     1      28.093  46.265  55.169  1.00  0.00     0.030 A 
HETATM   12  H   UNL     1      28.884  43.931  54.351  1.00  0.00     0.170 HD
ENDROOT
BRANCH   2  13
HETATM   13  C   UNL     1      25.783  45.961  51.058  1.00  0.00     0.279 C 
HETATM   14  N   UNL     1      24.532  46.473  50.744  1.00  0.00    -0.356 N 
HETATM   15  H   UNL     1      23.744  46.221  51.328  1.00  0.00     0.162 HD
HETATM   16  O   UNL     1      26.767  46.158  50.342  1.00  0.00    -0.268 OA
BRANCH  14  17
HETATM   17  C   UNL     1      24.306  47.356  49.616  1.00  0.00     0.127 C 
BRANCH  17  18
HETATM   18  C   UNL     1      22.928  47.213  48.955  1.00  0.00     0.058 C 
BRANCH  18  19
HETATM   19  C   UNL     1      22.135  48.495  48.856  1.00  0.00    -0.057 A 
HETATM   20  C   UNL     1      22.773  49.741  48.776  1.00  0.00     0.009 A 
HETATM   21  C   UNL     1      22.024  50.915  48.666  1.00  0.00     0.024 A 
HETATM   22  C   UNL     1      20.634  50.849  48.626  1.00  0.00     0.034 A 
HETATM   23 CL   UNL     1      19.711  52.295  48.490  1.00  0.00    -0.084 Cl
HETATM   24  C   UNL     1      19.985  49.619  48.688  1.00  0.00     0.024 A 
HETATM   25  C   UNL     1      20.734  48.447  48.803  1.00  0.00     0.009 A 
ENDBRANCH  18  19
ENDBRANCH  17  18
ENDBRANCH  14  17
ENDBRANCH   2  13
BRANCH   2  26
HETATM   26  O   UNL     1      24.580  44.610  52.891  1.00  0.00    -0.359 OA
HETATM   27  H   UNL     1      24.068  44.329  52.117  1.00  0.00     0.213 HD
ENDBRANCH   2  26
BRANCH   1  28
HETATM   28  C   UNL     1      26.213  43.012  50.881  1.00  0.00     0.045 A 
HETATM   29  C   UNL     1      27.124  42.709  49.849  1.00  0.00     0.066 A 
HETATM   30  C   UNL     1      26.766  41.931  48.738  1.00  0.00     0.070 A 
HETATM   31  C   UNL     1      25.460  41.472  48.614  1.00  0.00     0.037 A 
HETATM   32  C   UNL     1      24.527  41.772  49.597  1.00  0.00     0.005 A 
HETATM   33  C   UNL     1      24.900  42.529  50.714  1.00  0.00     0.030 A 
BRANCH  30  34
HETATM   34  O   UNL     1      27.594  41.583  47.705  1.00  0.00    -0.356 OA
HETATM   35  C   UNL     1      27.035  40.751  46.694  1.00  0.00     0.210 C 
ENDBRANCH  30  34
ENDBRANCH   1  28
TORSDOF 7
ENDMDL
MODEL 5
REMARK VINA RESULT:      -8.5      3.426      7.628
REMARK  7 active torsions:
REMARK  status: ('A' for Active; 'I' for Inactive)
REMARK    1  A    between atoms: O_2  and  C_3 
REMARK    2  A    between atoms: C_5  and  N_6 
REMARK    3  A    between atoms: C_7  and  C_9 
REMARK    4  A    between atoms: C_7  and  O_8 
REMARK       I    between atoms: C_9  and  N_10 
REMARK    5  A    between atoms: N_10  and  C_11 
REMARK    6  A    between atoms: C_11  and  C_12 
REMARK    7  A    between atoms: C_12  and  C_13 
ROOT
HETATM    1  N   UNL     1      23.515  45.093  48.746  1.00  0.00    -0.254 N 
HETATM    2  C   UNL     1      24.080  44.489  49.981  1.00  0.00     0.256 C 
HETATM    3  C   UNL     1      24.725  43.129  49.814  1.00  0.00     0.034 A 
HETATM    4  C   UNL     1      24.705  42.511  48.578  1.00  0.00     0.048 A 
HETATM    5  N   UNL     1      24.055  43.138  47.533  1.00  0.00    -0.308 N 
HETATM    6  C   UNL     1      23.429  44.344  47.577  1.00  0.00     0.330 C 
HETATM    7  O   UNL     1      22.835  44.668  46.548  1.00  0.00    -0.246 OA
HETATM    8  C   UNL     1      25.334  42.456  50.889  1.00  0.00     0.015 A 
HETATM    9  C   UNL     1      25.931  41.208  50.703  1.00  0.00     0.001 A 
HETATM   10  C   UNL     1      25.918  40.614  49.444  1.00  0.00     0.002 A 
HETATM   11  C   UNL     1      25.296  41.263  48.379  1.00  0.00     0.030 A 
HETATM   12  H   UNL     1      23.963  42.663  46.645  1.00  0.00     0.170 HD
ENDROOT
BRANCH   2  13
HETATM   13  C   UNL     1      25.225  45.468  50.533  1.00  0.00     0.279 C 
HETATM   14  N   UNL     1      24.926  46.109  51.726  1.00  0.00    -0.356 N 
HETATM   15  H   UNL     1      24.020  45.946  52.150  1.00  0.00     0.162 HD
HETATM   16  O   UNL     1      26.273  45.686  49.920  1.00  0.00    -0.268 OA
BRANCH  14  17
HETATM   17  C   UNL     1      25.854  47.000  52.394  1.00  0.00     0.127 C 
BRANCH  17  18
HETATM   18  C   UNL     1      26.029  46.737  53.896  1.00  0.00     0.058 C 
BRANCH  18  19
HETATM   19  C   UNL     1      27.224  45.886  54.257  1.00  0.00    -0.057 A 
HETATM   20  C   UNL     1      28.190  46.337  55.167  1.00  0.00     0.009 A 
HETATM   21  C   UNL     1      29.279  45.528  55.503  1.00  0.00     0.024 A 
HETATM   22  C   UNL     1      29.403  44.261  54.938  1.00  0.00     0.034 A 
HETATM   23 CL   UNL     1      30.744  43.266  55.352  1.00  0.00    -0.084 Cl
HETATM   24  C   UNL     1      28.444  43.793  54.044  1.00  0.00     0.024 A 
HETATM   25  C   UNL     1      27.360  44.603  53.705  1.00  0.00     0.009 A 
ENDBRANCH  18  19
ENDBRANCH  17  18
ENDBRANCH  14  17
ENDBRANCH   2  13
BRANCH   2  26
HETATM   26  O   UNL     1      22.988  44.234  50.852  1.00  0.00    -0.359 OA
HETATM   27  H   UNL     1      22.253  44.754  50.494  1.00  0.00     0.213 HD
ENDBRANCH   2  26
BRANCH   1  28
HETATM   28  C   UNL     1      23.018  46.473  48.792  1.00  0.00     0.045 A 
HETATM   29  C   UNL     1      23.892  47.571  48.924  1.00  0.00     0.066 A 
HETATM   30  C   UNL     1      23.432  48.895  48.954  1.00  0.00     0.070 A 
HETATM   31  C   UNL     1      22.066  49.149  48.897  1.00  0.00     0.037 A 
HETATM   32  C   UNL     1      21.173  48.092  48.792  1.00  0.00     0.005 A 
HETATM   33  C   UNL     1      21.643  46.775  48.739  1.00  0.00     0.030 A 
BRANCH  30  34
HETATM   34  O   UNL     1      24.216  50.012  49.066  1.00  0.00    -0.356 OA
HETATM   35  C   UNL     1      25.237  50.173  48.087  1.00  0.00     0.210 C 
ENDBRANCH  30  34
ENDBRANCH   1  28
TORSDOF 7
ENDMDL
MODEL 6
REMARK VINA RESULT:      -8.5     12.052     14.731
REMARK  7 active torsions:
REMARK  status: ('A' for Active; 'I' for Inactive)
REMARK    1  A    between atoms: O_2  and  C_3 
REMARK    2  A    between atoms: C_5  and  N_6 
REMARK    3  A    between atoms: C_7  and  C_9 
REMARK    4  A    between atoms: C_7  and  O_8 
REMARK       I    between atoms: C_9  and  N_10 
REMARK    5  A    between atoms: N_10  and  C_11 
REMARK    6  A    between atoms: C_11  and  C_12 
REMARK    7  A    between atoms: C_12  and  C_13 
ROOT
HETATM    1  N   UNL     1      34.246  52.270  40.028  1.00  0.00    -0.254 N 
HETATM    2  C   UNL     1      34.751  51.226  40.957  1.00  0.00     0.256 C 
HETATM    3  C   UNL     1      36.102  51.499  41.583  1.00  0.00     0.034 A 
HETATM    4  C   UNL     1      36.803  52.635  41.227  1.00  0.00     0.048 A 
HETATM    5  N   UNL     1      36.264  53.474  40.272  1.00  0.00    -0.308 N 
HETATM    6  C   UNL     1      35.074  53.316  39.635  1.00  0.00     0.330 C 
HETATM    7  O   UNL     1      34.836  54.139  38.750  1.00  0.00    -0.246 OA
HETATM    8  C   UNL     1      36.685  50.616  42.511  1.00  0.00     0.015 A 
HETATM    9  C   UNL     1      37.928  50.898  43.080  1.00  0.00     0.001 A 
HETATM   10  C   UNL     1      38.606  52.060  42.723  1.00  0.00     0.002 A 
HETATM   11  C   UNL     1      38.047  52.928  41.787  1.00  0.00     0.030 A 
HETATM   12  H   UNL     1      36.801  54.266  39.943  1.00  0.00     0.170 HD
ENDROOT
BRANCH   2  13
HETATM   13  C   UNL     1      33.708  51.097  42.171  1.00  0.00     0.279 C 
HETATM   14  N   UNL     1      32.841  50.017  42.088  1.00  0.00    -0.356 N 
HETATM   15  H   UNL     1      32.898  49.410  41.278  1.00  0.00     0.162 HD
HETATM   16  O   UNL     1      33.637  51.922  43.084  1.00  0.00    -0.268 OA
BRANCH  14  17
HETATM   17  C   UNL     1      31.858  49.719  43.111  1.00  0.00     0.127 C 
BRANCH  17  18
HETATM   18  C   UNL     1      30.985  48.489  42.824  1.00  0.00     0.058 C 
BRANCH  18  19
HETATM   19  C   UNL     1      30.069  48.624  41.630  1.00  0.00    -0.057 A 
HETATM   20  C   UNL     1      30.462  48.182  40.359  1.00  0.00     0.009 A 
HETATM   21  C   UNL     1      29.595  48.298  39.270  1.00  0.00     0.024 A 
HETATM   22  C   UNL     1      28.328  48.849  39.447  1.00  0.00     0.034 A 
HETATM   23 CL   UNL     1      27.260  48.992  38.106  1.00  0.00    -0.084 Cl
HETATM   24  C   UNL     1      27.917  49.279  40.706  1.00  0.00     0.024 A 
HETATM   25  C   UNL     1      28.786  49.167  41.793  1.00  0.00     0.009 A 
ENDBRANCH  18  19
ENDBRANCH  17  18
ENDBRANCH  14  17
ENDBRANCH   2  13
BRANCH   2  26
HETATM   26  O   UNL     1      34.973  50.058  40.183  1.00  0.00    -0.359 OA
HETATM   27  H   UNL     1      35.530  49.490  40.737  1.00  0.00     0.213 HD
ENDBRANCH   2  26
BRANCH   1  28
HETATM   28  C   UNL     1      32.878  52.159  39.507  1.00  0.00     0.045 A 
HETATM   29  C   UNL     1      31.794  52.811  40.128  1.00  0.00     0.066 A 
HETATM   30  C   UNL     1      30.485  52.725  39.633  1.00  0.00     0.070 A 
HETATM   31  C   UNL     1      30.224  51.938  38.517  1.00  0.00     0.037 A 
HETATM   32  C   UNL     1      31.261  51.260  37.893  1.00  0.00     0.005 A 
HETATM   33  C   UNL     1      32.569  51.371  38.382  1.00  0.00     0.030 A 
BRANCH  30  34
HETATM   34  O   UNL     1      29.385  53.338  40.169  1.00  0.00    -0.356 OA
HETATM   35  C   UNL     1      28.851  52.764  41.357  1.00  0.00     0.210 C 
ENDBRANCH  30  34
ENDBRANCH   1  28
TORSDOF 7
ENDMDL
MODEL 7
REMARK VINA RESULT:      -8.4     11.776     13.958
REMARK  7 active torsions:
REMARK  status: ('A' for Active; 'I' for Inactive)
REMARK    1  A    between atoms: O_2  and  C_3 
REMARK    2  A    between atoms: C_5  and  N_6 
REMARK    3  A    between atoms: C_7  and  C_9 
REMARK    4  A    between atoms: C_7  and  O_8 
REMARK       I    between atoms: C_9  and  N_10 
REMARK    5  A    between atoms: N_10  and  C_11 
REMARK    6  A    between atoms: C_11  and  C_12 
REMARK    7  A    between atoms: C_12  and  C_13 
ROOT
HETATM    1  N   UNL     1      28.005  50.777  39.837  1.00  0.00    -0.254 N 
HETATM    2  C   UNL     1      29.125  50.611  38.876  1.00  0.00     0.256 C 
HETATM    3  C   UNL     1      30.376  51.410  39.177  1.00  0.00     0.034 A 
HETATM    4  C   UNL     1      30.393  52.269  40.259  1.00  0.00     0.048 A 
HETATM    5  N   UNL     1      29.246  52.407  41.015  1.00  0.00    -0.308 N 
HETATM    6  C   UNL     1      28.068  51.757  40.823  1.00  0.00     0.330 C 
HETATM    7  O   UNL     1      27.146  52.104  41.563  1.00  0.00    -0.246 OA
HETATM    8  C   UNL     1      31.528  51.322  38.374  1.00  0.00     0.015 A 
HETATM    9  C   UNL     1      32.670  52.062  38.682  1.00  0.00     0.001 A 
HETATM   10  C   UNL     1      32.673  52.904  39.790  1.00  0.00     0.002 A 
HETATM   11  C   UNL     1      31.528  53.017  40.577  1.00  0.00     0.030 A 
HETATM   12  H   UNL     1      29.218  53.091  41.761  1.00  0.00     0.170 HD
ENDROOT
BRANCH   2  13
HETATM   13  C   UNL     1      29.562  49.067  38.885  1.00  0.00     0.279 C 
HETATM   14  N   UNL     1      30.494  48.726  39.855  1.00  0.00    -0.356 N 
HETATM   15  H   UNL     1      30.851  49.454  40.462  1.00  0.00     0.162 HD
HETATM   16  O   UNL     1      29.151  48.250  38.059  1.00  0.00    -0.268 OA
BRANCH  14  17
HETATM   17  C   UNL     1      30.977  47.371  40.037  1.00  0.00     0.127 C 
BRANCH  17  18
HETATM   18  C   UNL     1      32.207  47.244  40.946  1.00  0.00     0.058 C 
BRANCH  18  19
HETATM   19  C   UNL     1      32.591  48.510  41.676  1.00  0.00    -0.057 A 
HETATM   20  C   UNL     1      31.760  49.063  42.660  1.00  0.00     0.009 A 
HETATM   21  C   UNL     1      32.140  50.224  43.338  1.00  0.00     0.024 A 
HETATM   22  C   UNL     1      33.356  50.834  43.042  1.00  0.00     0.034 A 
HETATM   23 CL   UNL     1      33.824  52.264  43.876  1.00  0.00    -0.084 Cl
HETATM   24  C   UNL     1      34.200  50.289  42.078  1.00  0.00     0.024 A 
HETATM   25  C   UNL     1      33.818  49.132  41.397  1.00  0.00     0.009 A 
ENDBRANCH  18  19
ENDBRANCH  17  18
ENDBRANCH  14  17
ENDBRANCH   2  13
BRANCH   2  26
HETATM   26  O   UNL     1      28.685  51.140  37.635  1.00  0.00    -0.359 OA
HETATM   27  H   UNL     1      29.439  51.645  37.294  1.00  0.00     0.213 HD
ENDBRANCH   2  26
BRANCH   1  28
HETATM   28  C   UNL     1      26.822  49.919  39.707  1.00  0.00     0.045 A 
HETATM   29  C   UNL     1      25.779  50.225  38.809  1.00  0.00     0.066 A 
HETATM   30  C   UNL     1      24.650  49.405  38.665  1.00  0.00     0.070 A 
HETATM   31  C   UNL     1      24.519  48.272  39.458  1.00  0.00     0.037 A 
HETATM   32  C   UNL     1      25.512  47.951  40.372  1.00  0.00     0.005 A 
HETATM   33  C   UNL     1      26.647  48.763  40.493  1.00  0.00     0.030 A 
BRANCH  30  34
HETATM   34  O   UNL     1      23.606  49.626  37.808  1.00  0.00    -0.356 OA
HETATM   35  C   UNL     1      22.367  50.006  38.397  1.00  0.00     0.210 C 
ENDBRANCH  30  34
ENDBRANCH   1  28
TORSDOF 7
ENDMDL
MODEL 8
REMARK VINA RESULT:      -8.3      3.164      6.913
REMARK  7 active torsions:
REMARK  status: ('A' for Active; 'I' for Inactive)
REMARK    1  A    between atoms: O_2  and  C_3 
REMARK    2  A    between atoms: C_5  and  N_6 
REMARK    3  A    between atoms: C_7  and  C_9 
REMARK    4  A    between atoms: C_7  and  O_8 
REMARK       I    between atoms: C_9  and  N_10 
REMARK    5  A    between atoms: N_10  and  C_11 
REMARK    6  A    between atoms: C_11  and  C_12 
REMARK    7  A    between atoms: C_12  and  C_13 
ROOT
HETATM    1  N   UNL     1      26.098  46.238  51.317  1.00  0.00    -0.254 N 
HETATM    2  C   UNL     1      26.546  44.915  50.813  1.00  0.00     0.256 C 
HETATM    3  C   UNL     1      27.107  43.968  51.853  1.00  0.00     0.034 A 
HETATM    4  C   UNL     1      27.227  44.388  53.164  1.00  0.00     0.048 A 
HETATM    5  N   UNL     1      26.867  45.683  53.481  1.00  0.00    -0.308 N 
HETATM    6  C   UNL     1      26.373  46.617  52.627  1.00  0.00     0.330 C 
HETATM    7  O   UNL     1      26.207  47.739  53.109  1.00  0.00    -0.246 OA
HETATM    8  C   UNL     1      27.535  42.668  51.525  1.00  0.00     0.015 A 
HETATM    9  C   UNL     1      28.039  41.814  52.507  1.00  0.00     0.001 A 
HETATM   10  C   UNL     1      28.129  42.251  53.825  1.00  0.00     0.002 A 
HETATM   11  C   UNL     1      27.731  43.545  54.155  1.00  0.00     0.030 A 
HETATM   12  H   UNL     1      27.024  46.030  54.419  1.00  0.00     0.170 HD
ENDROOT
BRANCH   2  13
HETATM   13  C   UNL     1      25.277  44.174  50.166  1.00  0.00     0.279 C 
HETATM   14  N   UNL     1      25.379  43.912  48.808  1.00  0.00    -0.356 N 
HETATM   15  H   UNL     1      26.210  44.218  48.315  1.00  0.00     0.162 HD
HETATM   16  O   UNL     1      24.259  43.906  50.808  1.00  0.00    -0.268 OA
BRANCH  14  17
HETATM   17  C   UNL     1      24.348  43.217  48.062  1.00  0.00     0.127 C 
BRANCH  17  18
HETATM   18  C   UNL     1      24.812  41.927  47.372  1.00  0.00     0.058 C 
BRANCH  18  19
HETATM   19  C   UNL     1      25.870  41.150  48.122  1.00  0.00    -0.057 A 
HETATM   20  C   UNL     1      25.543  40.372  49.241  1.00  0.00     0.009 A 
HETATM   21  C   UNL     1      26.531  39.645  49.911  1.00  0.00     0.024 A 
HETATM   22  C   UNL     1      27.848  39.687  49.461  1.00  0.00     0.034 A 
HETATM   23 CL   UNL     1      29.065  38.793  50.286  1.00  0.00    -0.084 Cl
HETATM   24  C   UNL     1      28.186  40.443  48.342  1.00  0.00     0.024 A 
HETATM   25  C   UNL     1      27.200  41.172  47.676  1.00  0.00     0.009 A 
ENDBRANCH  18  19
ENDBRANCH  17  18
ENDBRANCH  14  17
ENDBRANCH   2  13
BRANCH   2  26
HETATM   26  O   UNL     1      27.649  45.153  49.952  1.00  0.00    -0.359 OA
HETATM   27  H   UNL     1      27.279  45.131  49.056  1.00  0.00     0.213 HD
ENDBRANCH   2  26
BRANCH   1  28
HETATM   28  C   UNL     1      25.395  47.147  50.404  1.00  0.00     0.045 A 
HETATM   29  C   UNL     1      24.011  47.033  50.164  1.00  0.00     0.066 A 
HETATM   30  C   UNL     1      23.325  47.905  49.305  1.00  0.00     0.070 A 
HETATM   31  C   UNL     1      24.029  48.893  48.626  1.00  0.00     0.037 A 
HETATM   32  C   UNL     1      25.397  49.021  48.816  1.00  0.00     0.005 A 
HETATM   33  C   UNL     1      26.069  48.161  49.694  1.00  0.00     0.030 A 
BRANCH  30  34
HETATM   34  O   UNL     1      21.985  47.868  49.032  1.00  0.00    -0.356 OA
HETATM   35  C   UNL     1      21.602  48.125  47.685  1.00  0.00     0.210 C 
ENDBRANCH  30  34
ENDBRANCH   1  28
TORSDOF 7
ENDMDL
MODEL 9
REMARK VINA RESULT:      -8.2     11.335     13.150
REMARK  7 active torsions:
REMARK  status: ('A' for Active; 'I' for Inactive)
REMARK    1  A    between atoms: O_2  and  C_3 
REMARK    2  A    between atoms: C_5  and  N_6 
REMARK    3  A    between atoms: C_7  and  C_9 
REMARK    4  A    between atoms: C_7  and  O_8 
REMARK       I    between atoms: C_9  and  N_10 
REMARK    5  A    between atoms: N_10  and  C_11 
REMARK    6  A    between atoms: C_11  and  C_12 
REMARK    7  A    between atoms: C_12  and  C_13 
ROOT
HETATM    1  N   UNL     1      27.969  47.953  39.544  1.00  0.00    -0.254 N 
HETATM    2  C   UNL     1      28.389  48.489  40.864  1.00  0.00     0.256 C 
HETATM    3  C   UNL     1      29.862  48.360  41.190  1.00  0.00     0.034 A 
HETATM    4  C   UNL     1      30.704  47.718  40.301  1.00  0.00     0.048 A 
HETATM    5  N   UNL     1      30.165  47.173  39.152  1.00  0.00    -0.308 N 
HETATM    6  C   UNL     1      28.860  47.214  38.773  1.00  0.00     0.330 C 
HETATM    7  O   UNL     1      28.587  46.580  37.752  1.00  0.00    -0.246 OA
HETATM    8  C   UNL     1      30.408  48.857  42.387  1.00  0.00     0.015 A 
HETATM    9  C   UNL     1      31.772  48.733  42.656  1.00  0.00     0.001 A 
HETATM   10  C   UNL     1      32.604  48.103  41.736  1.00  0.00     0.002 A 
HETATM   11  C   UNL     1      32.069  47.585  40.558  1.00  0.00     0.030 A 
HETATM   12  H   UNL     1      30.754  46.632  38.532  1.00  0.00     0.170 HD
ENDROOT
BRANCH   2  13
HETATM   13  C   UNL     1      28.057  50.059  40.891  1.00  0.00     0.279 C 
HETATM   14  N   UNL     1      28.619  50.796  39.858  1.00  0.00    -0.356 N 
HETATM   15  H   UNL     1      29.208  50.319  39.186  1.00  0.00     0.162 HD
HETATM   16  O   UNL     1      27.401  50.590  41.790  1.00  0.00    -0.268 OA
BRANCH  14  17
HETATM   17  C   UNL     1      28.398  52.220  39.699  1.00  0.00     0.127 C 
BRANCH  17  18
HETATM   18  C   UNL     1      29.451  53.113  40.369  1.00  0.00     0.058 C 
BRANCH  18  19
HETATM   19  C   UNL     1      30.841  52.525  40.423  1.00  0.00    -0.057 A 
HETATM   20  C   UNL     1      31.516  52.366  41.642  1.00  0.00     0.009 A 
HETATM   21  C   UNL     1      32.795  51.803  41.675  1.00  0.00     0.024 A 
HETATM   22  C   UNL     1      33.400  51.387  40.492  1.00  0.00     0.034 A 
HETATM   23 CL   UNL     1      34.974  50.693  40.533  1.00  0.00    -0.084 Cl
HETATM   24  C   UNL     1      32.737  51.523  39.276  1.00  0.00     0.024 A 
HETATM   25  C   UNL     1      31.462  52.090  39.242  1.00  0.00     0.009 A 
ENDBRANCH  18  19
ENDBRANCH  17  18
ENDBRANCH  14  17
ENDBRANCH   2  13
BRANCH   2  26
HETATM   26  O   UNL     1      27.759  47.689  41.853  1.00  0.00    -0.359 OA
HETATM   27  H   UNL     1      27.727  48.247  42.646  1.00  0.00     0.213 HD
ENDBRANCH   2  26
BRANCH   1  28
HETATM   28  C   UNL     1      26.594  48.184  39.086  1.00  0.00     0.045 A 
HETATM   29  C   UNL     1      25.482  47.717  39.815  1.00  0.00     0.066 A 
HETATM   30  C   UNL     1      24.162  47.943  39.397  1.00  0.00     0.070 A 
HETATM   31  C   UNL     1      23.927  48.613  38.201  1.00  0.00     0.037 A 
HETATM   32  C   UNL     1      24.997  49.067  37.443  1.00  0.00     0.005 A 
HETATM   33  C   UNL     1      26.310  48.856  37.881  1.00  0.00     0.030 A 
BRANCH  30  34
HETATM   34  O   UNL     1      23.034  47.535  40.054  1.00  0.00    -0.356 OA
HETATM   35  C   UNL     1      22.109  48.553  40.423  1.00  0.00     0.210 C 
ENDBRANCH  30  34
ENDBRANCH   1  28
TORSDOF 7
ENDMDL
MODEL 10
REMARK VINA RESULT:      -8.2     17.425     20.134
REMARK  7 active torsions:
REMARK  status: ('A' for Active; 'I' for Inactive)
REMARK    1  A    between atoms: O_2  and  C_3 
REMARK    2  A    between atoms: C_5  and  N_6 
REMARK    3  A    between atoms: C_7  and  C_9 
REMARK    4  A    between atoms: C_7  and  O_8 
REMARK       I    between atoms: C_9  and  N_10 
REMARK    5  A    between atoms: N_10  and  C_11 
REMARK    6  A    between atoms: C_11  and  C_12 
REMARK    7  A    between atoms: C_12  and  C_13 
ROOT
HETATM    1  N   UNL     1      40.977  43.582  65.092  1.00  0.00    -0.254 N 
HETATM    2  C   UNL     1      40.106  43.001  64.038  1.00  0.00     0.256 C 
HETATM    3  C   UNL     1      40.170  41.496  63.886  1.00  0.00     0.034 A 
HETATM    4  C   UNL     1      41.048  40.768  64.665  1.00  0.00     0.048 A 
HETATM    5  N   UNL     1      41.878  41.444  65.537  1.00  0.00    -0.308 N 
HETATM    6  C   UNL     1      41.918  42.787  65.739  1.00  0.00     0.330 C 
HETATM    7  O   UNL     1      42.803  43.181  66.499  1.00  0.00    -0.246 OA
HETATM    8  C   UNL     1      39.371  40.806  62.955  1.00  0.00     0.015 A 
HETATM    9  C   UNL     1      39.444  39.417  62.844  1.00  0.00     0.001 A 
HETATM   10  C   UNL     1      40.320  38.702  63.655  1.00  0.00     0.002 A 
HETATM   11  C   UNL     1      41.132  39.378  64.563  1.00  0.00     0.030 A 
HETATM   12  H   UNL     1      42.581  40.932  66.056  1.00  0.00     0.170 HD
ENDROOT
BRANCH   2  13
HETATM   13  C   UNL     1      38.583  43.354  64.403  1.00  0.00     0.279 C 
HETATM   14  N   UNL     1      38.039  44.412  63.690  1.00  0.00    -0.356 N 
HETATM   15  H   UNL     1      38.624  44.900  63.022  1.00  0.00     0.162 HD
HETATM   16  O   UNL     1      37.955  42.773  65.290  1.00  0.00    -0.268 OA
BRANCH  14  17
HETATM   17  C   UNL     1      36.666  44.849  63.858  1.00  0.00     0.127 C 
BRANCH  17  18
HETATM   18  C   UNL     1      36.334  45.404  65.249  1.00  0.00     0.058 C 
BRANCH  18  19
HETATM   19  C   UNL     1      36.696  46.856  65.458  1.00  0.00    -0.057 A 
HETATM   20  C   UNL     1      36.553  47.469  66.710  1.00  0.00     0.009 A 
HETATM   21  C   UNL     1      36.910  48.808  66.888  1.00  0.00     0.024 A 
HETATM   22  C   UNL     1      37.422  49.538  65.818  1.00  0.00     0.034 A 
HETATM   23 CL   UNL     1      37.862  51.187  66.037  1.00  0.00    -0.084 Cl
HETATM   24  C   UNL     1      37.584  48.939  64.572  1.00  0.00     0.024 A 
HETATM   25  C   UNL     1      37.222  47.603  64.393  1.00  0.00     0.009 A 
ENDBRANCH  18  19
ENDBRANCH  17  18
ENDBRANCH  14  17
ENDBRANCH   2  13
BRANCH   2  26
HETATM   26  O   UNL     1      40.589  43.481  62.793  1.00  0.00    -0.359 OA
HETATM   27  H   UNL     1      41.373  42.944  62.602  1.00  0.00     0.213 HD
ENDBRANCH   2  26
BRANCH   1  28
HETATM   28  C   UNL     1      40.854  45.009  65.411  1.00  0.00     0.045 A 
HETATM   29  C   UNL     1      40.363  45.451  66.656  1.00  0.00     0.066 A 
HETATM   30  C   UNL     1      40.253  46.811  66.979  1.00  0.00     0.070 A 
HETATM   31  C   UNL     1      40.597  47.770  66.033  1.00  0.00     0.037 A 
HETATM   32  C   UNL     1      41.061  47.375  64.786  1.00  0.00     0.005 A 
HETATM   33  C   UNL     1      41.188  46.014  64.482  1.00  0.00     0.030 A 
BRANCH  30  34
HETATM   34  O   UNL     1      39.801  47.318  68.167  1.00  0.00    -0.356 OA
HETATM   35  C   UNL     1      40.259  48.618  68.521  1.00  0.00     0.210 C 
ENDBRANCH  30  34
ENDBRANCH   1  28
TORSDOF 7
ENDMDL
