MODEL 1
REMARK VINA RESULT:      -8.6      0.000      0.000
REMARK  2 active torsions:
REMARK  status: ('A' for Active; 'I' for Inactive)
REMARK       I    between atoms: C_2  and  N_3 
REMARK    1  A    between atoms: N_3  and  C_4 
REMARK    2  A    between atoms: C_13  and  N_14 
REMARK       I    between atoms: N_14  and  C_15 
ROOT
HETATM    1  C   UNL     1      25.393  46.047  51.404  1.00  0.00     0.035 A 
HETATM    2  C   UNL     1      25.780  46.488  52.668  1.00  0.00     0.038 A 
HETATM    3  C   UNL     1      26.855  45.862  53.291  1.00  0.00    -0.041 A 
HETATM    4  C   UNL     1      27.559  44.788  52.704  1.00  0.00    -0.016 A 
HETATM    5  C   UNL     1      28.613  44.353  53.624  1.00  0.00     0.008 A 
HETATM    6  C   UNL     1      28.590  45.232  54.740  1.00  0.00    -0.041 A 
HETATM    7  C   UNL     1      29.498  45.137  55.780  1.00  0.00     0.008 A 
HETATM    8  C   UNL     1      30.449  44.127  55.718  1.00  0.00     0.003 A 
HETATM    9  C   UNL     1      30.468  43.223  54.640  1.00  0.00     0.030 A 
HETATM   10  C   UNL     1      29.553  43.315  53.579  1.00  0.00     0.046 A 
HETATM   11  C   UNL     1      27.457  46.228  54.626  1.00  0.00     0.079 A 
HETATM   12  C   UNL     1      27.203  44.383  51.427  1.00  0.00     0.015 A 
HETATM   13  C   UNL     1      26.118  45.008  50.789  1.00  0.00     0.030 A 
ENDROOT
BRANCH   1  14
HETATM   14  N   UNL     1      24.313  46.591  50.679  1.00  0.00    -0.328 N 
HETATM   15  C   UNL     1      24.318  47.723  49.883  1.00  0.00     0.218 C 
HETATM   16  C   UNL     1      22.965  48.015  49.282  1.00  0.00     0.117 C 
HETATM   17  O   UNL     1      25.267  48.470  49.671  1.00  0.00    -0.274 OA
HETATM   18  H   UNL     1      23.430  46.105  50.774  1.00  0.00     0.169 HD
ENDBRANCH   1  14
BRANCH  10  19
HETATM   19  N   UNL     1      29.479  42.354  52.556  1.00  0.00    -0.327 N 
HETATM   20  C   UNL     1      28.751  41.216  52.386  1.00  0.00     0.218 C 
HETATM   21  C   UNL     1      27.979  40.602  53.517  1.00  0.00     0.117 C 
HETATM   22  O   UNL     1      28.779  40.667  51.281  1.00  0.00    -0.274 OA
HETATM   23  H   UNL     1      30.023  42.557  51.728  1.00  0.00     0.169 HD
ENDBRANCH  10  19
TORSDOF 2
ENDMDL
MODEL 2
REMARK VINA RESULT:      -8.6      2.614      5.609
REMARK  2 active torsions:
REMARK  status: ('A' for Active; 'I' for Inactive)
REMARK       I    between atoms: C_2  and  N_3 
REMARK    1  A    between atoms: N_3  and  C_4 
REMARK    2  A    between atoms: C_13  and  N_14 
REMARK       I    between atoms: N_14  and  C_15 
ROOT
HETATM    1  C   UNL     1      28.010  41.121  51.879  1.00  0.00     0.035 A 
HETATM    2  C   UNL     1      29.118  41.250  52.714  1.00  0.00     0.038 A 
HETATM    3  C   UNL     1      29.219  42.382  53.517  1.00  0.00    -0.041 A 
HETATM    4  C   UNL     1      28.255  43.413  53.507  1.00  0.00    -0.016 A 
HETATM    5  C   UNL     1      28.669  44.457  54.447  1.00  0.00     0.008 A 
HETATM    6  C   UNL     1      29.855  44.006  55.086  1.00  0.00    -0.041 A 
HETATM    7  C   UNL     1      30.487  44.732  56.080  1.00  0.00     0.008 A 
HETATM    8  C   UNL     1      29.934  45.953  56.440  1.00  0.00     0.003 A 
HETATM    9  C   UNL     1      28.780  46.438  55.795  1.00  0.00     0.030 A 
HETATM   10  C   UNL     1      28.131  45.705  54.789  1.00  0.00     0.046 A 
HETATM   11  C   UNL     1      30.306  42.677  54.521  1.00  0.00     0.079 A 
HETATM   12  C   UNL     1      27.131  43.261  52.711  1.00  0.00     0.015 A 
HETATM   13  C   UNL     1      27.019  42.121  51.896  1.00  0.00     0.030 A 
ENDROOT
BRANCH   1  14
HETATM   14  N   UNL     1      27.803  40.029  51.011  1.00  0.00    -0.328 N 
HETATM   15  C   UNL     1      28.008  39.991  49.643  1.00  0.00     0.218 C 
HETATM   16  C   UNL     1      27.654  38.653  49.041  1.00  0.00     0.117 C 
HETATM   17  O   UNL     1      28.398  40.910  48.930  1.00  0.00    -0.274 OA
HETATM   18  H   UNL     1      27.443  39.186  51.441  1.00  0.00     0.169 HD
ENDBRANCH   1  14
BRANCH  10  19
HETATM   19  N   UNL     1      27.051  46.221  54.052  1.00  0.00    -0.327 N 
HETATM   20  C   UNL     1      26.311  47.361  54.141  1.00  0.00     0.218 C 
HETATM   21  C   UNL     1      26.391  48.258  55.341  1.00  0.00     0.117 C 
HETATM   22  O   UNL     1      25.526  47.619  53.223  1.00  0.00    -0.274 OA
HETATM   23  H   UNL     1      26.785  45.685  53.237  1.00  0.00     0.169 HD
ENDBRANCH  10  19
TORSDOF 2
ENDMDL
MODEL 3
REMARK VINA RESULT:      -8.6      3.154      5.884
REMARK  2 active torsions:
REMARK  status: ('A' for Active; 'I' for Inactive)
REMARK       I    between atoms: C_2  and  N_3 
REMARK    1  A    between atoms: N_3  and  C_4 
REMARK    2  A    between atoms: C_13  and  N_14 
REMARK       I    between atoms: N_14  and  C_15 
ROOT
HETATM    1  C   UNL     1      28.544  41.452  52.278  1.00  0.00     0.035 A 
HETATM    2  C   UNL     1      27.355  42.160  52.109  1.00  0.00     0.038 A 
HETATM    3  C   UNL     1      27.221  43.396  52.732  1.00  0.00    -0.041 A 
HETATM    4  C   UNL     1      28.232  43.956  53.543  1.00  0.00    -0.016 A 
HETATM    5  C   UNL     1      27.768  45.247  54.056  1.00  0.00     0.008 A 
HETATM    6  C   UNL     1      26.494  45.498  53.478  1.00  0.00    -0.041 A 
HETATM    7  C   UNL     1      25.790  46.668  53.709  1.00  0.00     0.008 A 
HETATM    8  C   UNL     1      26.361  47.610  54.554  1.00  0.00     0.003 A 
HETATM    9  C   UNL     1      27.605  47.367  55.166  1.00  0.00     0.030 A 
HETATM   10  C   UNL     1      28.327  46.186  54.933  1.00  0.00     0.046 A 
HETATM   11  C   UNL     1      26.042  44.333  52.626  1.00  0.00     0.079 A 
HETATM   12  C   UNL     1      29.432  43.274  53.671  1.00  0.00     0.015 A 
HETATM   13  C   UNL     1      29.577  42.023  53.046  1.00  0.00     0.030 A 
ENDROOT
BRANCH   1  14
HETATM   14  N   UNL     1      28.792  40.186  51.710  1.00  0.00    -0.328 N 
HETATM   15  C   UNL     1      28.719  39.833  50.374  1.00  0.00     0.218 C 
HETATM   16  C   UNL     1      29.029  38.375  50.141  1.00  0.00     0.117 C 
HETATM   17  O   UNL     1      28.412  40.562  49.436  1.00  0.00    -0.274 OA
HETATM   18  H   UNL     1      29.030  39.450  52.363  1.00  0.00     0.169 HD
ENDBRANCH   1  14
BRANCH  10  19
HETATM   19  N   UNL     1      29.511  45.872  55.624  1.00  0.00    -0.327 N 
HETATM   20  C   UNL     1      29.814  45.699  56.940  1.00  0.00     0.218 C 
HETATM   21  C   UNL     1      28.855  46.096  58.025  1.00  0.00     0.117 C 
HETATM   22  O   UNL     1      30.926  45.248  57.227  1.00  0.00    -0.274 OA
HETATM   23  H   UNL     1      30.310  45.661  55.042  1.00  0.00     0.169 HD
ENDBRANCH  10  19
TORSDOF 2
ENDMDL
MODEL 4
REMARK VINA RESULT:      -8.5      1.801      5.816
REMARK  2 active torsions:
REMARK  status: ('A' for Active; 'I' for Inactive)
REMARK       I    between atoms: C_2  and  N_3 
REMARK    1  A    between atoms: N_3  and  C_4 
REMARK    2  A    between atoms: C_13  and  N_14 
REMARK       I    between atoms: N_14  and  C_15 
ROOT
HETATM    1  C   UNL     1      28.450  41.186  52.048  1.00  0.00     0.035 A 
HETATM    2  C   UNL     1      29.243  41.883  52.957  1.00  0.00     0.038 A 
HETATM    3  C   UNL     1      28.788  43.106  53.437  1.00  0.00    -0.041 A 
HETATM    4  C   UNL     1      27.564  43.680  53.028  1.00  0.00    -0.016 A 
HETATM    5  C   UNL     1      27.395  44.968  53.704  1.00  0.00     0.008 A 
HETATM    6  C   UNL     1      28.494  45.129  54.590  1.00  0.00    -0.041 A 
HETATM    7  C   UNL     1      28.619  46.222  55.430  1.00  0.00     0.008 A 
HETATM    8  C   UNL     1      27.629  47.194  55.377  1.00  0.00     0.003 A 
HETATM    9  C   UNL     1      26.550  47.074  54.481  1.00  0.00     0.030 A 
HETATM   10  C   UNL     1      26.415  45.966  53.629  1.00  0.00     0.046 A 
HETATM   11  C   UNL     1      29.470  43.980  54.462  1.00  0.00     0.079 A 
HETATM   12  C   UNL     1      26.755  42.963  52.161  1.00  0.00     0.015 A 
HETATM   13  C   UNL     1      27.206  41.726  51.669  1.00  0.00     0.030 A 
ENDROOT
BRANCH   1  14
HETATM   14  N   UNL     1      28.810  39.946  51.481  1.00  0.00    -0.328 N 
HETATM   15  C   UNL     1      28.854  39.615  50.138  1.00  0.00     0.218 C 
HETATM   16  C   UNL     1      29.260  38.181  49.906  1.00  0.00     0.117 C 
HETATM   17  O   UNL     1      28.575  40.344  49.191  1.00  0.00    -0.274 OA
HETATM   18  H   UNL     1      29.040  39.211  52.138  1.00  0.00     0.169 HD
ENDBRANCH   1  14
BRANCH  10  19
HETATM   19  N   UNL     1      25.413  45.884  52.646  1.00  0.00    -0.327 N 
HETATM   20  C   UNL     1      25.301  46.360  51.375  1.00  0.00     0.218 C 
HETATM   21  C   UNL     1      26.259  47.379  50.831  1.00  0.00     0.117 C 
HETATM   22  O   UNL     1      24.354  45.967  50.688  1.00  0.00    -0.274 OA
HETATM   23  H   UNL     1      24.622  45.300  52.880  1.00  0.00     0.169 HD
ENDBRANCH  10  19
TORSDOF 2
ENDMDL
MODEL 5
REMARK VINA RESULT:      -8.4      2.960      4.734
REMARK  2 active torsions:
REMARK  status: ('A' for Active; 'I' for Inactive)
REMARK       I    between atoms: C_2  and  N_3 
REMARK    1  A    between atoms: N_3  and  C_4 
REMARK    2  A    between atoms: C_13  and  N_14 
REMARK       I    between atoms: N_14  and  C_15 
ROOT
HETATM    1  C   UNL     1      27.125  42.919  52.105  1.00  0.00     0.035 A 
HETATM    2  C   UNL     1      28.418  42.618  52.531  1.00  0.00     0.038 A 
HETATM    3  C   UNL     1      28.918  43.268  53.654  1.00  0.00    -0.041 A 
HETATM    4  C   UNL     1      28.179  44.235  54.369  1.00  0.00    -0.016 A 
HETATM    5  C   UNL     1      28.998  44.733  55.477  1.00  0.00     0.008 A 
HETATM    6  C   UNL     1      30.212  43.996  55.470  1.00  0.00    -0.041 A 
HETATM    7  C   UNL     1      31.198  44.177  56.426  1.00  0.00     0.008 A 
HETATM    8  C   UNL     1      30.977  45.132  57.409  1.00  0.00     0.003 A 
HETATM    9  C   UNL     1      29.797  45.900  57.414  1.00  0.00     0.030 A 
HETATM   10  C   UNL     1      28.792  45.719  56.451  1.00  0.00     0.046 A 
HETATM   11  C   UNL     1      30.264  43.040  54.299  1.00  0.00     0.079 A 
HETATM   12  C   UNL     1      26.877  44.498  53.973  1.00  0.00     0.015 A 
HETATM   13  C   UNL     1      26.361  43.846  52.840  1.00  0.00     0.030 A 
ENDROOT
BRANCH   1  14
HETATM   14  N   UNL     1      26.514  42.337  50.976  1.00  0.00    -0.328 N 
HETATM   15  C   UNL     1      26.514  42.818  49.678  1.00  0.00     0.218 C 
HETATM   16  C   UNL     1      25.731  41.938  48.734  1.00  0.00     0.117 C 
HETATM   17  O   UNL     1      27.040  43.850  49.274  1.00  0.00    -0.274 OA
HETATM   18  H   UNL     1      25.999  41.482  51.145  1.00  0.00     0.169 HD
ENDBRANCH   1  14
BRANCH  10  19
HETATM   19  N   UNL     1      27.663  46.553  56.367  1.00  0.00    -0.327 N 
HETATM   20  C   UNL     1      27.264  47.510  55.485  1.00  0.00     0.218 C 
HETATM   21  C   UNL     1      28.200  48.062  54.450  1.00  0.00     0.117 C 
HETATM   22  O   UNL     1      26.117  47.954  55.586  1.00  0.00    -0.274 OA
HETATM   23  H   UNL     1      26.946  46.385  57.061  1.00  0.00     0.169 HD
ENDBRANCH  10  19
TORSDOF 2
ENDMDL
MODEL 6
REMARK VINA RESULT:      -8.2      2.523      6.088
REMARK  2 active torsions:
REMARK  status: ('A' for Active; 'I' for Inactive)
REMARK       I    between atoms: C_2  and  N_3 
REMARK    1  A    between atoms: N_3  and  C_4 
REMARK    2  A    between atoms: C_13  and  N_14 
REMARK       I    between atoms: N_14  and  C_15 
ROOT
HETATM    1  C   UNL     1      29.368  43.507  54.372  1.00  0.00     0.035 A 
HETATM    2  C   UNL     1      28.498  44.588  54.500  1.00  0.00     0.038 A 
HETATM    3  C   UNL     1      27.637  44.878  53.446  1.00  0.00    -0.041 A 
HETATM    4  C   UNL     1      27.622  44.135  52.246  1.00  0.00    -0.016 A 
HETATM    5  C   UNL     1      26.619  44.709  51.346  1.00  0.00     0.008 A 
HETATM    6  C   UNL     1      25.972  45.760  52.049  1.00  0.00    -0.041 A 
HETATM    7  C   UNL     1      24.925  46.485  51.505  1.00  0.00     0.008 A 
HETATM    8  C   UNL     1      24.520  46.167  50.216  1.00  0.00     0.003 A 
HETATM    9  C   UNL     1      25.171  45.155  49.486  1.00  0.00     0.030 A 
HETATM   10  C   UNL     1      26.231  44.413  50.033  1.00  0.00     0.046 A 
HETATM   11  C   UNL     1      26.589  45.964  53.415  1.00  0.00     0.079 A 
HETATM   12  C   UNL     1      28.455  43.032  52.140  1.00  0.00     0.015 A 
HETATM   13  C   UNL     1      29.328  42.730  53.199  1.00  0.00     0.030 A 
ENDROOT
BRANCH   1  14
HETATM   14  N   UNL     1      30.295  43.124  55.363  1.00  0.00    -0.328 N 
HETATM   15  C   UNL     1      30.996  43.949  56.225  1.00  0.00     0.218 C 
HETATM   16  C   UNL     1      31.922  43.182  57.137  1.00  0.00     0.117 C 
HETATM   17  O   UNL     1      30.947  45.174  56.276  1.00  0.00    -0.274 OA
HETATM   18  H   UNL     1      30.480  42.131  55.432  1.00  0.00     0.169 HD
ENDBRANCH   1  14
BRANCH  10  19
HETATM   19  N   UNL     1      26.971  43.482  49.283  1.00  0.00    -0.327 N 
HETATM   20  C   UNL     1      26.829  42.151  49.031  1.00  0.00     0.218 C 
HETATM   21  C   UNL     1      25.860  41.305  49.805  1.00  0.00     0.117 C 
HETATM   22  O   UNL     1      27.557  41.639  48.176  1.00  0.00    -0.274 OA
HETATM   23  H   UNL     1      27.743  43.865  48.754  1.00  0.00     0.169 HD
ENDBRANCH  10  19
TORSDOF 2
ENDMDL
MODEL 7
REMARK VINA RESULT:      -7.8      5.339      7.633
REMARK  2 active torsions:
REMARK  status: ('A' for Active; 'I' for Inactive)
REMARK       I    between atoms: C_2  and  N_3 
REMARK    1  A    between atoms: N_3  and  C_4 
REMARK    2  A    between atoms: C_13  and  N_14 
REMARK       I    between atoms: N_14  and  C_15 
ROOT
HETATM    1  C   UNL     1      20.090  49.669  48.328  1.00  0.00     0.035 A 
HETATM    2  C   UNL     1      21.161  50.482  47.962  1.00  0.00     0.038 A 
HETATM    3  C   UNL     1      22.453  50.049  48.243  1.00  0.00    -0.041 A 
HETATM    4  C   UNL     1      22.723  48.829  48.899  1.00  0.00    -0.016 A 
HETATM    5  C   UNL     1      24.173  48.685  49.054  1.00  0.00     0.008 A 
HETATM    6  C   UNL     1      24.779  49.797  48.410  1.00  0.00    -0.041 A 
HETATM    7  C   UNL     1      26.153  49.946  48.320  1.00  0.00     0.008 A 
HETATM    8  C   UNL     1      26.948  48.969  48.903  1.00  0.00     0.003 A 
HETATM    9  C   UNL     1      26.370  47.878  49.578  1.00  0.00     0.030 A 
HETATM   10  C   UNL     1      24.978  47.717  49.669  1.00  0.00     0.046 A 
HETATM   11  C   UNL     1      23.736  50.756  47.880  1.00  0.00     0.079 A 
HETATM   12  C   UNL     1      21.659  48.000  49.219  1.00  0.00     0.015 A 
HETATM   13  C   UNL     1      20.350  48.428  48.940  1.00  0.00     0.030 A 
ENDROOT
BRANCH   1  14
HETATM   14  N   UNL     1      18.738  50.005  48.109  1.00  0.00    -0.328 N 
HETATM   15  C   UNL     1      17.818  50.445  49.046  1.00  0.00     0.218 C 
HETATM   16  C   UNL     1      16.453  50.683  48.449  1.00  0.00     0.117 C 
HETATM   17  O   UNL     1      18.011  50.612  50.246  1.00  0.00    -0.274 OA
HETATM   18  H   UNL     1      18.403  49.888  47.161  1.00  0.00     0.169 HD
ENDBRANCH   1  14
BRANCH  10  19
HETATM   19  N   UNL     1      24.380  46.703  50.438  1.00  0.00    -0.327 N 
HETATM   20  C   UNL     1      24.163  45.374  50.235  1.00  0.00     0.218 C 
HETATM   21  C   UNL     1      24.345  44.746  48.884  1.00  0.00     0.117 C 
HETATM   22  O   UNL     1      23.762  44.698  51.186  1.00  0.00    -0.274 OA
HETATM   23  H   UNL     1      24.098  46.973  51.370  1.00  0.00     0.169 HD
ENDBRANCH  10  19
TORSDOF 2
ENDMDL
MODEL 8
REMARK VINA RESULT:      -7.8      2.724      6.391
REMARK  2 active torsions:
REMARK  status: ('A' for Active; 'I' for Inactive)
REMARK       I    between atoms: C_2  and  N_3 
REMARK    1  A    between atoms: N_3  and  C_4 
REMARK    2  A    between atoms: C_13  and  N_14 
REMARK       I    between atoms: N_14  and  C_15 
ROOT
HETATM    1  C   UNL     1      29.440  44.461  55.237  1.00  0.00     0.035 A 
HETATM    2  C   UNL     1      29.557  43.139  54.812  1.00  0.00     0.038 A 
HETATM    3  C   UNL     1      28.746  42.700  53.771  1.00  0.00    -0.041 A 
HETATM    4  C   UNL     1      27.796  43.532  53.139  1.00  0.00    -0.016 A 
HETATM    5  C   UNL     1      27.103  42.760  52.105  1.00  0.00     0.008 A 
HETATM    6  C   UNL     1      27.703  41.472  52.065  1.00  0.00    -0.041 A 
HETATM    7  C   UNL     1      27.321  40.502  51.154  1.00  0.00     0.008 A 
HETATM    8  C   UNL     1      26.301  40.814  50.267  1.00  0.00     0.003 A 
HETATM    9  C   UNL     1      25.667  42.070  50.312  1.00  0.00     0.030 A 
HETATM   10  C   UNL     1      26.051  43.061  51.230  1.00  0.00     0.046 A 
HETATM   11  C   UNL     1      28.762  41.331  53.136  1.00  0.00     0.079 A 
HETATM   12  C   UNL     1      27.715  44.859  53.530  1.00  0.00     0.015 A 
HETATM   13  C   UNL     1      28.530  45.314  54.581  1.00  0.00     0.030 A 
ENDROOT
BRANCH   1  14
HETATM   14  N   UNL     1      30.195  45.019  56.289  1.00  0.00    -0.328 N 
HETATM   15  C   UNL     1      29.728  45.763  57.358  1.00  0.00     0.218 C 
HETATM   16  C   UNL     1      30.836  46.216  58.277  1.00  0.00     0.117 C 
HETATM   17  O   UNL     1      28.565  46.084  57.580  1.00  0.00    -0.274 OA
HETATM   18  H   UNL     1      31.196  44.873  56.238  1.00  0.00     0.169 HD
ENDBRANCH   1  14
BRANCH  10  19
HETATM   19  N   UNL     1      25.355  44.274  51.371  1.00  0.00    -0.327 N 
HETATM   20  C   UNL     1      25.420  45.475  50.733  1.00  0.00     0.218 C 
HETATM   21  C   UNL     1      26.553  45.813  49.808  1.00  0.00     0.117 C 
HETATM   22  O   UNL     1      24.542  46.309  50.971  1.00  0.00    -0.274 OA
HETATM   23  H   UNL     1      24.596  44.265  52.038  1.00  0.00     0.169 HD
ENDBRANCH  10  19
TORSDOF 2
ENDMDL
MODEL 9
REMARK VINA RESULT:      -7.7      2.155      3.520
REMARK  2 active torsions:
REMARK  status: ('A' for Active; 'I' for Inactive)
REMARK       I    between atoms: C_2  and  N_3 
REMARK    1  A    between atoms: N_3  and  C_4 
REMARK    2  A    between atoms: C_13  and  N_14 
REMARK       I    between atoms: N_14  and  C_15 
ROOT
HETATM    1  C   UNL     1      25.551  46.833  50.485  1.00  0.00     0.035 A 
HETATM    2  C   UNL     1      25.969  45.634  49.913  1.00  0.00     0.038 A 
HETATM    3  C   UNL     1      26.642  44.714  50.710  1.00  0.00    -0.041 A 
HETATM    4  C   UNL     1      26.936  44.954  52.070  1.00  0.00    -0.016 A 
HETATM    5  C   UNL     1      27.663  43.801  52.608  1.00  0.00     0.008 A 
HETATM    6  C   UNL     1      27.734  42.827  51.576  1.00  0.00    -0.041 A 
HETATM    7  C   UNL     1      28.312  41.583  51.766  1.00  0.00     0.008 A 
HETATM    8  C   UNL     1      28.851  41.305  53.015  1.00  0.00     0.003 A 
HETATM    9  C   UNL     1      28.825  42.268  54.041  1.00  0.00     0.030 A 
HETATM   10  C   UNL     1      28.237  43.530  53.857  1.00  0.00     0.046 A 
HETATM   11  C   UNL     1      27.124  43.346  50.293  1.00  0.00     0.079 A 
HETATM   12  C   UNL     1      26.477  46.126  52.649  1.00  0.00     0.015 A 
HETATM   13  C   UNL     1      25.796  47.062  51.853  1.00  0.00     0.030 A 
ENDROOT
BRANCH   1  14
HETATM   14  N   UNL     1      24.873  47.848  49.777  1.00  0.00    -0.328 N 
HETATM   15  C   UNL     1      25.432  48.862  49.020  1.00  0.00     0.218 C 
HETATM   16  C   UNL     1      24.393  49.782  48.427  1.00  0.00     0.117 C 
HETATM   17  O   UNL     1      26.626  49.071  48.834  1.00  0.00    -0.274 OA
HETATM   18  H   UNL     1      23.864  47.839  49.854  1.00  0.00     0.169 HD
ENDBRANCH   1  14
BRANCH  10  19
HETATM   19  N   UNL     1      28.304  44.546  54.826  1.00  0.00    -0.327 N 
HETATM   20  C   UNL     1      29.308  45.042  55.600  1.00  0.00     0.218 C 
HETATM   21  C   UNL     1      30.626  44.335  55.725  1.00  0.00     0.117 C 
HETATM   22  O   UNL     1      29.093  46.074  56.243  1.00  0.00    -0.274 OA
HETATM   23  H   UNL     1      27.457  45.084  54.951  1.00  0.00     0.169 HD
ENDBRANCH  10  19
TORSDOF 2
ENDMDL
MODEL 10
REMARK VINA RESULT:      -7.7      2.376      6.589
REMARK  2 active torsions:
REMARK  status: ('A' for Active; 'I' for Inactive)
REMARK       I    between atoms: C_2  and  N_3 
REMARK    1  A    between atoms: N_3  and  C_4 
REMARK    2  A    between atoms: C_13  and  N_14 
REMARK       I    between atoms: N_14  and  C_15 
ROOT
HETATM    1  C   UNL     1      28.130  45.436  55.143  1.00  0.00     0.035 A 
HETATM    2  C   UNL     1      28.266  44.184  54.546  1.00  0.00     0.038 A 
HETATM    3  C   UNL     1      27.645  43.957  53.323  1.00  0.00    -0.041 A 
HETATM    4  C   UNL     1      26.867  44.937  52.669  1.00  0.00    -0.016 A 
HETATM    5  C   UNL     1      26.346  44.373  51.421  1.00  0.00     0.008 A 
HETATM    6  C   UNL     1      26.886  43.066  51.290  1.00  0.00    -0.041 A 
HETATM    7  C   UNL     1      26.639  42.266  50.187  1.00  0.00     0.008 A 
HETATM    8  C   UNL     1      25.816  42.774  49.191  1.00  0.00     0.003 A 
HETATM    9  C   UNL     1      25.240  44.053  49.317  1.00  0.00     0.030 A 
HETATM   10  C   UNL     1      25.489  44.871  50.430  1.00  0.00     0.046 A 
HETATM   11  C   UNL     1      27.719  42.696  52.497  1.00  0.00     0.079 A 
HETATM   12  C   UNL     1      26.772  46.196  53.240  1.00  0.00     0.015 A 
HETATM   13  C   UNL     1      27.396  46.436  54.476  1.00  0.00     0.030 A 
ENDROOT
BRANCH   1  14
HETATM   14  N   UNL     1      28.700  45.781  56.386  1.00  0.00    -0.328 N 
HETATM   15  C   UNL     1      30.007  45.586  56.795  1.00  0.00     0.218 C 
HETATM   16  C   UNL     1      30.249  46.060  58.207  1.00  0.00     0.117 C 
HETATM   17  O   UNL     1      30.911  45.064  56.151  1.00  0.00    -0.274 OA
HETATM   18  H   UNL     1      28.069  46.198  57.058  1.00  0.00     0.169 HD
ENDBRANCH   1  14
BRANCH  10  19
HETATM   19  N   UNL     1      24.833  46.098  50.632  1.00  0.00    -0.327 N 
HETATM   20  C   UNL     1      25.112  47.383  50.278  1.00  0.00     0.218 C 
HETATM   21  C   UNL     1      26.460  47.776  49.747  1.00  0.00     0.117 C 
HETATM   22  O   UNL     1      24.239  48.237  50.452  1.00  0.00    -0.274 OA
HETATM   23  H   UNL     1      23.926  46.038  51.075  1.00  0.00     0.169 HD
ENDBRANCH  10  19
TORSDOF 2
ENDMDL
