MODEL 1
REMARK VINA RESULT:      -9.8      0.000      0.000
REMARK  6 active torsions:
REMARK  status: ('A' for Active; 'I' for Inactive)
REMARK    1  A    between atoms: N_6  and  C_7 
REMARK    2  A    between atoms: C_8  and  N_9 
REMARK    3  A    between atoms: N_9  and  C_10 
REMARK    4  A    between atoms: C_10  and  N_11 
REMARK       I    between atoms: N_11  and  C_12 
REMARK    5  A    between atoms: C_12  and  C_13 
REMARK    6  A    between atoms: C_14  and  O_15 
ROOT
HETATM    1  C   UNL     1      26.666  43.298  50.345  1.00  0.00     0.179 C 
HETATM    2  S   UNL     1      25.603  42.043  50.698  1.00  0.00    -0.040 SA
ENDROOT
BRANCH   1   3
HETATM    3  N   UNL     1      26.425  44.293  49.397  1.00  0.00    -0.331 N 
HETATM    4  H   UNL     1      26.483  43.988  48.429  1.00  0.00     0.168 HD
BRANCH   3   5
HETATM    5  C   UNL     1      25.640  45.456  49.597  1.00  0.00     0.061 A 
HETATM    6  C   UNL     1      24.274  45.473  49.206  1.00  0.00     0.057 A 
HETATM    7  C   UNL     1      23.661  46.742  49.175  1.00  0.00     0.031 A 
HETATM    8  C   UNL     1      24.314  47.902  49.615  1.00  0.00     0.002 A 
HETATM    9  C   UNL     1      25.619  47.837  50.072  1.00  0.00     0.002 A 
HETATM   10  C   UNL     1      26.289  46.621  50.043  1.00  0.00     0.032 A 
BRANCH   6  11
HETATM   11  N   UNL     1      23.567  44.284  48.887  1.00  0.00    -0.376 N 
HETATM   12  C   UNL     1      23.532  43.833  47.471  1.00  0.00     0.150 C 
HETATM   13  C   UNL     1      22.443  44.566  46.643  1.00  0.00     0.254 C 
HETATM   14  N   UNL     1      21.075  44.489  47.322  1.00  0.00    -0.072 N 
HETATM   15  C   UNL     1      20.027  45.253  46.570  1.00  0.00     0.269 C 
HETATM   16  H   UNL     1      20.795  43.500  47.328  1.00  0.00     0.279 HD
HETATM   17  C   UNL     1      21.151  44.942  48.781  1.00  0.00     0.254 C 
HETATM   18  C   UNL     1      22.228  44.134  49.528  1.00  0.00     0.150 C 
ENDBRANCH   6  11
ENDBRANCH   3   5
ENDBRANCH   1   3
BRANCH   1  19
HETATM   19  N   UNL     1      27.935  43.461  50.898  1.00  0.00    -0.299 N 
HETATM   20  C   UNL     1      28.351  42.786  52.031  1.00  0.00     0.260 C 
HETATM   21  O   UNL     1      28.545  41.574  52.037  1.00  0.00    -0.267 OA
HETATM   22  H   UNL     1      28.226  44.431  50.872  1.00  0.00     0.171 HD
BRANCH  20  23
HETATM   23  C   UNL     1      28.617  43.591  53.262  1.00  0.00     0.068 C 
HETATM   24  C   UNL     1      27.870  44.702  53.680  1.00  0.00     0.102 C 
HETATM   25  C   UNL     1      28.292  45.424  54.821  1.00  0.00     0.056 C 
HETATM   26 BR   UNL     1      27.493  47.126  55.212  1.00  0.00    -0.047 Br
HETATM   27  C   UNL     1      29.360  44.953  55.644  1.00  0.00    -0.006 A 
HETATM   28  C   UNL     1      30.045  43.784  55.240  1.00  0.00    -0.024 A 
HETATM   29  C   UNL     1      29.791  45.564  56.852  1.00  0.00     0.014 A 
HETATM   30  C   UNL     1      29.689  43.144  54.049  1.00  0.00     0.032 C 
HETATM   31  C   UNL     1      31.090  43.262  56.020  1.00  0.00     0.012 A 
HETATM   32  C   UNL     1      31.477  43.877  57.208  1.00  0.00     0.001 A 
HETATM   33  C   UNL     1      30.830  45.031  57.623  1.00  0.00     0.001 A 
BRANCH  24  34
HETATM   34  O   UNL     1      26.792  45.082  52.910  1.00  0.00    -0.353 OA
HETATM   35  C   UNL     1      25.530  44.681  53.465  1.00  0.00     0.210 C 
ENDBRANCH  24  34
ENDBRANCH  20  23
ENDBRANCH   1  19
TORSDOF 6
ENDMDL
MODEL 2
REMARK VINA RESULT:      -9.8      2.824      4.648
REMARK  6 active torsions:
REMARK  status: ('A' for Active; 'I' for Inactive)
REMARK    1  A    between atoms: N_6  and  C_7 
REMARK    2  A    between atoms: C_8  and  N_9 
REMARK    3  A    between atoms: N_9  and  C_10 
REMARK    4  A    between atoms: C_10  and  N_11 
REMARK       I    between atoms: N_11  and  C_12 
REMARK    5  A    between atoms: C_12  and  C_13 
REMARK    6  A    between atoms: C_14  and  O_15 
ROOT
HETATM    1  C   UNL     1      26.512  43.762  50.443  1.00  0.00     0.179 C 
HETATM    2  S   UNL     1      26.000  45.116  49.586  1.00  0.00    -0.040 SA
ENDROOT
BRANCH   1   3
HETATM    3  N   UNL     1      25.717  42.643  50.698  1.00  0.00    -0.331 N 
HETATM    4  H   UNL     1      25.312  42.606  51.629  1.00  0.00     0.168 HD
BRANCH   3   5
HETATM    5  C   UNL     1      25.018  41.885  49.726  1.00  0.00     0.061 A 
HETATM    6  C   UNL     1      25.722  40.989  48.876  1.00  0.00     0.057 A 
HETATM    7  C   UNL     1      25.001  40.504  47.766  1.00  0.00     0.031 A 
HETATM    8  C   UNL     1      23.642  40.787  47.571  1.00  0.00     0.002 A 
HETATM    9  C   UNL     1      22.962  41.595  48.467  1.00  0.00     0.002 A 
HETATM   10  C   UNL     1      23.654  42.161  49.530  1.00  0.00     0.032 A 
BRANCH   6  11
HETATM   11  N   UNL     1      27.059  40.592  49.141  1.00  0.00    -0.376 N 
HETATM   12  C   UNL     1      28.076  40.749  48.069  1.00  0.00     0.150 C 
HETATM   13  C   UNL     1      28.050  39.575  47.053  1.00  0.00     0.254 C 
HETATM   14  N   UNL     1      28.139  38.222  47.759  1.00  0.00    -0.072 N 
HETATM   15  C   UNL     1      28.045  37.076  46.796  1.00  0.00     0.269 C 
HETATM   16  H   UNL     1      29.062  38.174  48.210  1.00  0.00     0.279 HD
HETATM   17  C   UNL     1      27.092  38.102  48.867  1.00  0.00     0.254 C 
HETATM   18  C   UNL     1      27.220  39.286  49.844  1.00  0.00     0.150 C 
ENDBRANCH   6  11
ENDBRANCH   3   5
ENDBRANCH   1   3
BRANCH   1  19
HETATM   19  N   UNL     1      27.753  43.618  51.058  1.00  0.00    -0.299 N 
HETATM   20  C   UNL     1      27.926  42.935  52.248  1.00  0.00     0.260 C 
HETATM   21  O   UNL     1      27.786  41.718  52.330  1.00  0.00    -0.267 OA
HETATM   22  H   UNL     1      28.296  44.471  50.996  1.00  0.00     0.171 HD
BRANCH  20  23
HETATM   23  C   UNL     1      28.350  43.721  53.446  1.00  0.00     0.068 C 
HETATM   24  C   UNL     1      27.725  44.887  53.912  1.00  0.00     0.102 C 
HETATM   25  C   UNL     1      28.290  45.579  55.009  1.00  0.00     0.056 C 
HETATM   26 BR   UNL     1      27.656  47.337  55.447  1.00  0.00    -0.047 Br
HETATM   27  C   UNL     1      29.381  45.030  55.750  1.00  0.00    -0.006 A 
HETATM   28  C   UNL     1      29.941  43.810  55.304  1.00  0.00    -0.024 A 
HETATM   29  C   UNL     1      29.952  45.609  56.914  1.00  0.00     0.014 A 
HETATM   30  C   UNL     1      29.444  43.196  54.151  1.00  0.00     0.032 C 
HETATM   31  C   UNL     1      31.001  43.211  56.004  1.00  0.00     0.012 A 
HETATM   32  C   UNL     1      31.527  43.799  57.152  1.00  0.00     0.001 A 
HETATM   33  C   UNL     1      31.005  45.000  57.606  1.00  0.00     0.001 A 
BRANCH  24  34
HETATM   34  O   UNL     1      26.622  45.346  53.226  1.00  0.00    -0.353 OA
HETATM   35  C   UNL     1      25.379  44.896  53.786  1.00  0.00     0.210 C 
ENDBRANCH  24  34
ENDBRANCH  20  23
ENDBRANCH   1  19
TORSDOF 6
ENDMDL
MODEL 3
REMARK VINA RESULT:      -9.4      3.325      4.844
REMARK  6 active torsions:
REMARK  status: ('A' for Active; 'I' for Inactive)
REMARK    1  A    between atoms: N_6  and  C_7 
REMARK    2  A    between atoms: C_8  and  N_9 
REMARK    3  A    between atoms: N_9  and  C_10 
REMARK    4  A    between atoms: C_10  and  N_11 
REMARK       I    between atoms: N_11  and  C_12 
REMARK    5  A    between atoms: C_12  and  C_13 
REMARK    6  A    between atoms: C_14  and  O_15 
ROOT
HETATM    1  C   UNL     1      23.120  45.492  48.740  1.00  0.00     0.179 C 
HETATM    2  S   UNL     1      22.182  45.345  47.351  1.00  0.00    -0.040 SA
ENDROOT
BRANCH   1   3
HETATM    3  N   UNL     1      23.129  46.614  49.569  1.00  0.00    -0.331 N 
HETATM    4  H   UNL     1      23.207  46.415  50.563  1.00  0.00     0.168 HD
BRANCH   3   5
HETATM    5  C   UNL     1      23.556  47.915  49.200  1.00  0.00     0.061 A 
HETATM    6  C   UNL     1      22.641  48.827  48.610  1.00  0.00     0.057 A 
HETATM    7  C   UNL     1      23.213  49.972  48.018  1.00  0.00     0.031 A 
HETATM    8  C   UNL     1      24.583  50.258  48.108  1.00  0.00     0.002 A 
HETATM    9  C   UNL     1      25.436  49.390  48.767  1.00  0.00     0.002 A 
HETATM   10  C   UNL     1      24.928  48.209  49.293  1.00  0.00     0.032 A 
BRANCH   6  11
HETATM   11  N   UNL     1      21.239  48.608  48.633  1.00  0.00    -0.376 N 
HETATM   12  C   UNL     1      20.456  48.869  47.396  1.00  0.00     0.150 C 
HETATM   13  C   UNL     1      20.103  50.371  47.225  1.00  0.00     0.254 C 
HETATM   14  N   UNL     1      19.435  50.936  48.478  1.00  0.00    -0.072 N 
HETATM   15  C   UNL     1      19.152  52.404  48.355  1.00  0.00     0.269 C 
HETATM   16  H   UNL     1      18.533  50.454  48.586  1.00  0.00     0.279 HD
HETATM   17  C   UNL     1      20.257  50.635  49.732  1.00  0.00     0.254 C 
HETATM   18  C   UNL     1      20.522  49.121  49.837  1.00  0.00     0.150 C 
ENDBRANCH   6  11
ENDBRANCH   3   5
ENDBRANCH   1   3
BRANCH   1  19
HETATM   19  N   UNL     1      24.043  44.553  49.193  1.00  0.00    -0.299 N 
HETATM   20  C   UNL     1      23.948  43.946  50.432  1.00  0.00     0.260 C 
HETATM   21  O   UNL     1      23.058  43.145  50.702  1.00  0.00    -0.267 OA
HETATM   22  H   UNL     1      24.988  44.813  48.939  1.00  0.00     0.171 HD
BRANCH  20  23
HETATM   23  C   UNL     1      25.009  44.251  51.439  1.00  0.00     0.068 C 
HETATM   24  C   UNL     1      26.077  43.404  51.774  1.00  0.00     0.102 C 
HETATM   25  C   UNL     1      26.956  43.785  52.814  1.00  0.00     0.056 C 
HETATM   26 BR   UNL     1      28.208  42.506  53.510  1.00  0.00    -0.047 Br
HETATM   27  C   UNL     1      26.880  45.079  53.414  1.00  0.00    -0.006 A 
HETATM   28  C   UNL     1      25.841  45.943  53.000  1.00  0.00    -0.024 A 
HETATM   29  C   UNL     1      27.775  45.578  54.397  1.00  0.00     0.014 A 
HETATM   30  C   UNL     1      24.909  45.509  52.051  1.00  0.00     0.032 C 
HETATM   31  C   UNL     1      25.727  47.236  53.539  1.00  0.00     0.012 A 
HETATM   32  C   UNL     1      26.632  47.699  54.491  1.00  0.00     0.001 A 
HETATM   33  C   UNL     1      27.655  46.868  54.923  1.00  0.00     0.001 A 
BRANCH  24  34
HETATM   34  O   UNL     1      26.173  42.197  51.116  1.00  0.00    -0.353 OA
HETATM   35  C   UNL     1      27.027  42.247  49.963  1.00  0.00     0.210 C 
ENDBRANCH  24  34
ENDBRANCH  20  23
ENDBRANCH   1  19
TORSDOF 6
ENDMDL
MODEL 4
REMARK VINA RESULT:      -9.3      3.470      5.179
REMARK  6 active torsions:
REMARK  status: ('A' for Active; 'I' for Inactive)
REMARK    1  A    between atoms: N_6  and  C_7 
REMARK    2  A    between atoms: C_8  and  N_9 
REMARK    3  A    between atoms: N_9  and  C_10 
REMARK    4  A    between atoms: C_10  and  N_11 
REMARK       I    between atoms: N_11  and  C_12 
REMARK    5  A    between atoms: C_12  and  C_13 
REMARK    6  A    between atoms: C_14  and  O_15 
ROOT
HETATM    1  C   UNL     1      23.864  46.773  49.402  1.00  0.00     0.179 C 
HETATM    2  S   UNL     1      24.553  48.305  49.320  1.00  0.00    -0.040 SA
ENDROOT
BRANCH   1   3
HETATM    3  N   UNL     1      22.498  46.515  49.278  1.00  0.00    -0.331 N 
HETATM    4  H   UNL     1      21.998  46.414  50.157  1.00  0.00     0.168 HD
BRANCH   3   5
HETATM    5  C   UNL     1      21.681  46.882  48.180  1.00  0.00     0.061 A 
HETATM    6  C   UNL     1      20.682  47.880  48.334  1.00  0.00     0.057 A 
HETATM    7  C   UNL     1      19.741  47.971  47.288  1.00  0.00     0.031 A 
HETATM    8  C   UNL     1      19.847  47.212  46.114  1.00  0.00     0.002 A 
HETATM    9  C   UNL     1      20.885  46.309  45.959  1.00  0.00     0.002 A 
HETATM   10  C   UNL     1      21.788  46.127  46.998  1.00  0.00     0.032 A 
BRANCH   6  11
HETATM   11  N   UNL     1      20.647  48.743  49.460  1.00  0.00    -0.376 N 
HETATM   12  C   UNL     1      19.331  49.066  50.071  1.00  0.00     0.150 C 
HETATM   13  C   UNL     1      18.592  50.206  49.319  1.00  0.00     0.254 C 
HETATM   14  N   UNL     1      19.484  51.436  49.151  1.00  0.00    -0.072 N 
HETATM   15  C   UNL     1      18.809  52.519  48.364  1.00  0.00     0.269 C 
HETATM   16  H   UNL     1      19.672  51.806  50.092  1.00  0.00     0.279 HD
HETATM   17  C   UNL     1      20.835  51.065  48.537  1.00  0.00     0.254 C 
HETATM   18  C   UNL     1      21.507  49.959  49.371  1.00  0.00     0.150 C 
ENDBRANCH   6  11
ENDBRANCH   3   5
ENDBRANCH   1   3
BRANCH   1  19
HETATM   19  N   UNL     1      24.553  45.591  49.668  1.00  0.00    -0.299 N 
HETATM   20  C   UNL     1      24.341  44.841  50.810  1.00  0.00     0.260 C 
HETATM   21  O   UNL     1      23.295  44.231  51.008  1.00  0.00    -0.267 OA
HETATM   22  H   UNL     1      25.528  45.667  49.405  1.00  0.00     0.171 HD
BRANCH  20  23
HETATM   23  C   UNL     1      25.461  44.743  51.795  1.00  0.00     0.068 C 
HETATM   24  C   UNL     1      26.288  43.623  51.972  1.00  0.00     0.102 C 
HETATM   25  C   UNL     1      27.252  43.638  53.007  1.00  0.00     0.056 C 
HETATM   26 BR   UNL     1      28.155  42.011  53.481  1.00  0.00    -0.047 Br
HETATM   27  C   UNL     1      27.512  44.822  53.763  1.00  0.00    -0.006 A 
HETATM   28  C   UNL     1      26.715  45.961  53.508  1.00  0.00    -0.024 A 
HETATM   29  C   UNL     1      28.518  44.953  54.756  1.00  0.00     0.014 A 
HETATM   30  C   UNL     1      25.689  45.897  52.560  1.00  0.00     0.032 C 
HETATM   31  C   UNL     1      26.937  47.160  54.205  1.00  0.00     0.012 A 
HETATM   32  C   UNL     1      27.944  47.259  55.162  1.00  0.00     0.001 A 
HETATM   33  C   UNL     1      28.733  46.154  55.441  1.00  0.00     0.001 A 
BRANCH  24  34
HETATM   34  O   UNL     1      26.069  42.526  51.168  1.00  0.00    -0.353 OA
HETATM   35  C   UNL     1      26.899  42.507  49.997  1.00  0.00     0.210 C 
ENDBRANCH  24  34
ENDBRANCH  20  23
ENDBRANCH   1  19
TORSDOF 6
ENDMDL
MODEL 5
REMARK VINA RESULT:      -9.3      2.561      3.657
REMARK  6 active torsions:
REMARK  status: ('A' for Active; 'I' for Inactive)
REMARK    1  A    between atoms: N_6  and  C_7 
REMARK    2  A    between atoms: C_8  and  N_9 
REMARK    3  A    between atoms: N_9  and  C_10 
REMARK    4  A    between atoms: C_10  and  N_11 
REMARK       I    between atoms: N_11  and  C_12 
REMARK    5  A    between atoms: C_12  and  C_13 
REMARK    6  A    between atoms: C_14  and  O_15 
ROOT
HETATM    1  C   UNL     1      25.086  47.006  50.441  1.00  0.00     0.179 C 
HETATM    2  S   UNL     1      26.487  47.706  49.829  1.00  0.00    -0.040 SA
ENDROOT
BRANCH   1   3
HETATM    3  N   UNL     1      23.823  47.132  49.861  1.00  0.00    -0.331 N 
HETATM    4  H   UNL     1      23.107  46.527  50.255  1.00  0.00     0.168 HD
BRANCH   3   5
HETATM    5  C   UNL     1      23.320  48.287  49.211  1.00  0.00     0.061 A 
HETATM    6  C   UNL     1      22.078  48.237  48.524  1.00  0.00     0.057 A 
HETATM    7  C   UNL     1      21.802  49.329  47.676  1.00  0.00     0.031 A 
HETATM    8  C   UNL     1      22.639  50.451  47.603  1.00  0.00     0.002 A 
HETATM    9  C   UNL     1      23.801  50.506  48.353  1.00  0.00     0.002 A 
HETATM   10  C   UNL     1      24.153  49.417  49.139  1.00  0.00     0.032 A 
BRANCH   6  11
HETATM   11  N   UNL     1      21.164  47.164  48.697  1.00  0.00    -0.376 N 
HETATM   12  C   UNL     1      21.191  46.040  47.725  1.00  0.00     0.150 C 
HETATM   13  C   UNL     1      20.396  46.358  46.430  1.00  0.00     0.254 C 
HETATM   14  N   UNL     1      18.978  46.832  46.745  1.00  0.00    -0.072 N 
HETATM   15  C   UNL     1      18.221  47.210  45.507  1.00  0.00     0.269 C 
HETATM   16  H   UNL     1      18.484  46.044  47.183  1.00  0.00     0.279 HD
HETATM   17  C   UNL     1      18.986  47.976  47.760  1.00  0.00     0.254 C 
HETATM   18  C   UNL     1      19.761  47.554  49.022  1.00  0.00     0.150 C 
ENDBRANCH   6  11
ENDBRANCH   3   5
ENDBRANCH   1   3
BRANCH   1  19
HETATM   19  N   UNL     1      24.999  46.278  51.626  1.00  0.00    -0.299 N 
HETATM   20  C   UNL     1      25.711  46.611  52.764  1.00  0.00     0.260 C 
HETATM   21  O   UNL     1      25.473  47.625  53.413  1.00  0.00    -0.267 OA
HETATM   22  H   UNL     1      24.962  45.283  51.445  1.00  0.00     0.171 HD
BRANCH  20  23
HETATM   23  C   UNL     1      26.766  45.658  53.227  1.00  0.00     0.068 C 
HETATM   24  C   UNL     1      27.004  44.387  52.683  1.00  0.00     0.102 C 
HETATM   25  C   UNL     1      27.979  43.555  53.282  1.00  0.00     0.056 C 
HETATM   26 BR   UNL     1      28.086  41.706  52.774  1.00  0.00    -0.047 Br
HETATM   27  C   UNL     1      28.834  44.041  54.318  1.00  0.00    -0.006 A 
HETATM   28  C   UNL     1      28.623  45.356  54.793  1.00  0.00    -0.024 A 
HETATM   29  C   UNL     1      29.895  43.307  54.914  1.00  0.00     0.014 A 
HETATM   30  C   UNL     1      27.581  46.127  54.268  1.00  0.00     0.032 C 
HETATM   31  C   UNL     1      29.445  45.895  55.795  1.00  0.00     0.012 A 
HETATM   32  C   UNL     1      30.487  45.153  56.346  1.00  0.00     0.001 A 
HETATM   33  C   UNL     1      30.710  43.857  55.908  1.00  0.00     0.001 A 
BRANCH  24  34
HETATM   34  O   UNL     1      26.218  43.979  51.628  1.00  0.00    -0.353 OA
HETATM   35  C   UNL     1      26.941  43.874  50.391  1.00  0.00     0.210 C 
ENDBRANCH  24  34
ENDBRANCH  20  23
ENDBRANCH   1  19
TORSDOF 6
ENDMDL
MODEL 6
REMARK VINA RESULT:      -9.2      2.202      3.407
REMARK  6 active torsions:
REMARK  status: ('A' for Active; 'I' for Inactive)
REMARK    1  A    between atoms: N_6  and  C_7 
REMARK    2  A    between atoms: C_8  and  N_9 
REMARK    3  A    between atoms: N_9  and  C_10 
REMARK    4  A    between atoms: C_10  and  N_11 
REMARK       I    between atoms: N_11  and  C_12 
REMARK    5  A    between atoms: C_12  and  C_13 
REMARK    6  A    between atoms: C_14  and  O_15 
ROOT
HETATM    1  C   UNL     1      27.471  41.035  51.786  1.00  0.00     0.179 C 
HETATM    2  S   UNL     1      28.857  40.285  52.374  1.00  0.00    -0.040 SA
ENDROOT
BRANCH   1   3
HETATM    3  N   UNL     1      26.667  40.520  50.769  1.00  0.00    -0.331 N 
HETATM    4  H   UNL     1      25.716  40.291  51.046  1.00  0.00     0.168 HD
BRANCH   3   5
HETATM    5  C   UNL     1      26.828  40.760  49.381  1.00  0.00     0.061 A 
HETATM    6  C   UNL     1      25.707  41.108  48.581  1.00  0.00     0.057 A 
HETATM    7  C   UNL     1      25.907  41.043  47.186  1.00  0.00     0.031 A 
HETATM    8  C   UNL     1      27.160  40.772  46.619  1.00  0.00     0.002 A 
HETATM    9  C   UNL     1      28.254  40.523  47.430  1.00  0.00     0.002 A 
HETATM   10  C   UNL     1      28.085  40.495  48.809  1.00  0.00     0.032 A 
BRANCH   6  11
HETATM   11  N   UNL     1      24.471  41.513  49.150  1.00  0.00    -0.376 N 
HETATM   12  C   UNL     1      23.215  41.212  48.415  1.00  0.00     0.150 C 
HETATM   13  C   UNL     1      22.915  42.255  47.305  1.00  0.00     0.254 C 
HETATM   14  N   UNL     1      22.953  43.682  47.851  1.00  0.00    -0.072 N 
HETATM   15  C   UNL     1      22.734  44.705  46.777  1.00  0.00     0.269 C 
HETATM   16  H   UNL     1      22.182  43.770  48.526  1.00  0.00     0.279 HD
HETATM   17  C   UNL     1      24.250  43.951  48.616  1.00  0.00     0.254 C 
HETATM   18  C   UNL     1      24.441  42.892  49.718  1.00  0.00     0.150 C 
ENDBRANCH   6  11
ENDBRANCH   3   5
ENDBRANCH   1   3
BRANCH   1  19
HETATM   19  N   UNL     1      26.996  42.282  52.187  1.00  0.00    -0.299 N 
HETATM   20  C   UNL     1      27.743  43.440  52.075  1.00  0.00     0.260 C 
HETATM   21  O   UNL     1      28.021  43.938  50.988  1.00  0.00    -0.267 OA
HETATM   22  H   UNL     1      26.474  42.216  53.053  1.00  0.00     0.171 HD
BRANCH  20  23
HETATM   23  C   UNL     1      28.168  44.118  53.338  1.00  0.00     0.068 C 
HETATM   24  C   UNL     1      27.531  45.227  53.916  1.00  0.00     0.102 C 
HETATM   25  C   UNL     1      28.099  45.822  55.066  1.00  0.00     0.056 C 
HETATM   26 BR   UNL     1      27.444  47.523  55.672  1.00  0.00    -0.047 Br
HETATM   27  C   UNL     1      29.205  45.224  55.743  1.00  0.00    -0.006 A 
HETATM   28  C   UNL     1      29.778  44.060  55.180  1.00  0.00    -0.024 A 
HETATM   29  C   UNL     1      29.781  45.702  56.950  1.00  0.00     0.014 A 
HETATM   30  C   UNL     1      29.277  43.547  53.980  1.00  0.00     0.032 C 
HETATM   31  C   UNL     1      30.855  43.416  55.812  1.00  0.00     0.012 A 
HETATM   32  C   UNL     1      31.385  43.903  57.004  1.00  0.00     0.001 A 
HETATM   33  C   UNL     1      30.849  45.049  57.572  1.00  0.00     0.001 A 
BRANCH  24  34
HETATM   34  O   UNL     1      26.414  45.730  53.286  1.00  0.00    -0.353 OA
HETATM   35  C   UNL     1      25.192  45.118  53.725  1.00  0.00     0.210 C 
ENDBRANCH  24  34
ENDBRANCH  20  23
ENDBRANCH   1  19
TORSDOF 6
ENDMDL
MODEL 7
REMARK VINA RESULT:      -9.0      5.944     10.976
REMARK  6 active torsions:
REMARK  status: ('A' for Active; 'I' for Inactive)
REMARK    1  A    between atoms: N_6  and  C_7 
REMARK    2  A    between atoms: C_8  and  N_9 
REMARK    3  A    between atoms: N_9  and  C_10 
REMARK    4  A    between atoms: C_10  and  N_11 
REMARK       I    between atoms: N_11  and  C_12 
REMARK    5  A    between atoms: C_12  and  C_13 
REMARK    6  A    between atoms: C_14  and  O_15 
ROOT
HETATM    1  C   UNL     1      22.200  48.205  48.424  1.00  0.00     0.179 C 
HETATM    2  S   UNL     1      21.694  46.601  48.420  1.00  0.00    -0.040 SA
ENDROOT
BRANCH   1   3
HETATM    3  N   UNL     1      23.158  48.728  49.294  1.00  0.00    -0.331 N 
HETATM    4  H   UNL     1      22.879  48.764  50.270  1.00  0.00     0.168 HD
BRANCH   3   5
HETATM    5  C   UNL     1      24.560  48.714  49.087  1.00  0.00     0.061 A 
HETATM    6  C   UNL     1      25.366  47.725  49.713  1.00  0.00     0.057 A 
HETATM    7  C   UNL     1      26.756  47.961  49.686  1.00  0.00     0.031 A 
HETATM    8  C   UNL     1      27.322  49.036  48.986  1.00  0.00     0.002 A 
HETATM    9  C   UNL     1      26.512  49.934  48.313  1.00  0.00     0.002 A 
HETATM   10  C   UNL     1      25.133  49.787  48.381  1.00  0.00     0.032 A 
BRANCH   6  11
HETATM   11  N   UNL     1      24.807  46.565  50.310  1.00  0.00    -0.376 N 
HETATM   12  C   UNL     1      25.002  46.347  51.767  1.00  0.00     0.150 C 
HETATM   13  C   UNL     1      26.380  45.710  52.091  1.00  0.00     0.254 C 
HETATM   14  N   UNL     1      26.620  44.445  51.266  1.00  0.00    -0.072 N 
HETATM   15  C   UNL     1      27.977  43.857  51.516  1.00  0.00     0.269 C 
HETATM   16  H   UNL     1      25.921  43.752  51.563  1.00  0.00     0.279 HD
HETATM   17  C   UNL     1      26.393  44.700  49.776  1.00  0.00     0.254 C 
HETATM   18  C   UNL     1      24.991  45.294  49.550  1.00  0.00     0.150 C 
ENDBRANCH   6  11
ENDBRANCH   3   5
ENDBRANCH   1   3
BRANCH   1  19
HETATM   19  N   UNL     1      21.683  49.216  47.617  1.00  0.00    -0.299 N 
HETATM   20  C   UNL     1      21.220  50.417  48.123  1.00  0.00     0.260 C 
HETATM   21  O   UNL     1      21.970  51.250  48.622  1.00  0.00    -0.267 OA
HETATM   22  H   UNL     1      21.106  48.837  46.876  1.00  0.00     0.171 HD
BRANCH  20  23
HETATM   23  C   UNL     1      19.759  50.708  47.997  1.00  0.00     0.068 C 
HETATM   24  C   UNL     1      18.894  50.119  47.062  1.00  0.00     0.102 C 
HETATM   25  C   UNL     1      17.551  50.558  46.999  1.00  0.00     0.056 C 
HETATM   26 BR   UNL     1      16.448  50.018  45.522  1.00  0.00    -0.047 Br
HETATM   27  C   UNL     1      17.018  51.461  47.968  1.00  0.00    -0.006 A 
HETATM   28  C   UNL     1      17.896  51.977  48.949  1.00  0.00    -0.024 A 
HETATM   29  C   UNL     1      15.664  51.884  48.035  1.00  0.00     0.014 A 
HETATM   30  C   UNL     1      19.248  51.622  48.930  1.00  0.00     0.032 C 
HETATM   31  C   UNL     1      17.425  52.854  49.941  1.00  0.00     0.012 A 
HETATM   32  C   UNL     1      16.087  53.236  49.986  1.00  0.00     0.001 A 
HETATM   33  C   UNL     1      15.206  52.753  49.030  1.00  0.00     0.001 A 
BRANCH  24  34
HETATM   34  O   UNL     1      19.419  49.187  46.195  1.00  0.00    -0.353 OA
HETATM   35  C   UNL     1      18.859  47.876  46.366  1.00  0.00     0.210 C 
ENDBRANCH  24  34
ENDBRANCH  20  23
ENDBRANCH   1  19
TORSDOF 6
ENDMDL
MODEL 8
REMARK VINA RESULT:      -9.0      2.361      3.482
REMARK  6 active torsions:
REMARK  status: ('A' for Active; 'I' for Inactive)
REMARK    1  A    between atoms: N_6  and  C_7 
REMARK    2  A    between atoms: C_8  and  N_9 
REMARK    3  A    between atoms: N_9  and  C_10 
REMARK    4  A    between atoms: C_10  and  N_11 
REMARK       I    between atoms: N_11  and  C_12 
REMARK    5  A    between atoms: C_12  and  C_13 
REMARK    6  A    between atoms: C_14  and  O_15 
ROOT
HETATM    1  C   UNL     1      25.245  46.882  50.024  1.00  0.00     0.179 C 
HETATM    2  S   UNL     1      26.418  48.013  49.607  1.00  0.00    -0.040 SA
ENDROOT
BRANCH   1   3
HETATM    3  N   UNL     1      23.911  47.192  50.294  1.00  0.00    -0.331 N 
HETATM    4  H   UNL     1      23.680  47.275  51.280  1.00  0.00     0.168 HD
BRANCH   3   5
HETATM    5  C   UNL     1      23.029  47.884  49.426  1.00  0.00     0.061 A 
HETATM    6  C   UNL     1      22.359  47.187  48.384  1.00  0.00     0.057 A 
HETATM    7  C   UNL     1      21.740  47.994  47.408  1.00  0.00     0.031 A 
HETATM    8  C   UNL     1      21.683  49.391  47.515  1.00  0.00     0.002 A 
HETATM    9  C   UNL     1      22.272  50.034  48.590  1.00  0.00     0.002 A 
HETATM   10  C   UNL     1      22.963  49.284  49.533  1.00  0.00     0.032 A 
BRANCH   6  11
HETATM   11  N   UNL     1      22.301  45.769  48.342  1.00  0.00    -0.376 N 
HETATM   12  C   UNL     1      22.474  45.087  47.033  1.00  0.00     0.150 C 
HETATM   13  C   UNL     1      21.161  45.052  46.205  1.00  0.00     0.254 C 
HETATM   14  N   UNL     1      20.000  44.481  47.020  1.00  0.00    -0.072 N 
HETATM   15  C   UNL     1      18.710  44.506  46.257  1.00  0.00     0.269 C 
HETATM   16  H   UNL     1      20.224  43.498  47.221  1.00  0.00     0.279 HD
HETATM   17  C   UNL     1      19.862  45.193  48.366  1.00  0.00     0.254 C 
HETATM   18  C   UNL     1      21.199  45.143  49.129  1.00  0.00     0.150 C 
ENDBRANCH   6  11
ENDBRANCH   3   5
ENDBRANCH   1   3
BRANCH   1  19
HETATM   19  N   UNL     1      25.469  45.521  50.217  1.00  0.00    -0.299 N 
HETATM   20  C   UNL     1      25.214  44.881  51.417  1.00  0.00     0.260 C 
HETATM   21  O   UNL     1      24.074  44.716  51.841  1.00  0.00    -0.267 OA
HETATM   22  H   UNL     1      26.328  45.222  49.771  1.00  0.00     0.171 HD
BRANCH  20  23
HETATM   23  C   UNL     1      26.380  44.337  52.176  1.00  0.00     0.068 C 
HETATM   24  C   UNL     1      26.988  43.094  51.944  1.00  0.00     0.102 C 
HETATM   25  C   UNL     1      28.029  42.667  52.802  1.00  0.00     0.056 C 
HETATM   26 BR   UNL     1      28.640  40.849  52.716  1.00  0.00    -0.047 Br
HETATM   27  C   UNL     1      28.581  43.539  53.790  1.00  0.00    -0.006 A 
HETATM   28  C   UNL     1      27.999  44.818  53.948  1.00  0.00    -0.024 A 
HETATM   29  C   UNL     1      29.681  43.228  54.632  1.00  0.00     0.014 A 
HETATM   30  C   UNL     1      26.896  45.183  53.169  1.00  0.00     0.032 C 
HETATM   31  C   UNL     1      28.512  45.726  54.888  1.00  0.00     0.012 A 
HETATM   32  C   UNL     1      29.603  45.394  55.687  1.00  0.00     0.001 A 
HETATM   33  C   UNL     1      30.187  44.143  55.561  1.00  0.00     0.001 A 
BRANCH  24  34
HETATM   34  O   UNL     1      26.487  42.310  50.928  1.00  0.00    -0.353 OA
HETATM   35  C   UNL     1      27.218  42.443  49.698  1.00  0.00     0.210 C 
ENDBRANCH  24  34
ENDBRANCH  20  23
ENDBRANCH   1  19
TORSDOF 6
ENDMDL
MODEL 9
REMARK VINA RESULT:      -8.8      3.220      4.623
REMARK  6 active torsions:
REMARK  status: ('A' for Active; 'I' for Inactive)
REMARK    1  A    between atoms: N_6  and  C_7 
REMARK    2  A    between atoms: C_8  and  N_9 
REMARK    3  A    between atoms: N_9  and  C_10 
REMARK    4  A    between atoms: C_10  and  N_11 
REMARK       I    between atoms: N_11  and  C_12 
REMARK    5  A    between atoms: C_12  and  C_13 
REMARK    6  A    between atoms: C_14  and  O_15 
ROOT
HETATM    1  C   UNL     1      23.937  46.292  49.941  1.00  0.00     0.179 C 
HETATM    2  S   UNL     1      24.548  45.125  48.894  1.00  0.00    -0.040 SA
ENDROOT
BRANCH   1   3
HETATM    3  N   UNL     1      22.869  47.139  49.641  1.00  0.00    -0.331 N 
HETATM    4  H   UNL     1      22.006  46.934  50.136  1.00  0.00     0.168 HD
BRANCH   3   5
HETATM    5  C   UNL     1      22.975  48.474  49.178  1.00  0.00     0.061 A 
HETATM    6  C   UNL     1      21.808  49.263  48.998  1.00  0.00     0.057 A 
HETATM    7  C   UNL     1      21.982  50.458  48.270  1.00  0.00     0.031 A 
HETATM    8  C   UNL     1      23.244  50.905  47.852  1.00  0.00     0.002 A 
HETATM    9  C   UNL     1      24.375  50.154  48.121  1.00  0.00     0.002 A 
HETATM   10  C   UNL     1      24.239  48.929  48.763  1.00  0.00     0.032 A 
BRANCH   6  11
HETATM   11  N   UNL     1      20.550  48.881  49.534  1.00  0.00    -0.376 N 
HETATM   12  C   UNL     1      19.669  47.997  48.726  1.00  0.00     0.150 C 
HETATM   13  C   UNL     1      18.850  48.784  47.668  1.00  0.00     0.254 C 
HETATM   14  N   UNL     1      18.095  49.953  48.300  1.00  0.00    -0.072 N 
HETATM   15  C   UNL     1      17.355  50.766  47.280  1.00  0.00     0.269 C 
HETATM   16  H   UNL     1      17.399  49.554  48.944  1.00  0.00     0.279 HD
HETATM   17  C   UNL     1      19.026  50.831  49.138  1.00  0.00     0.254 C 
HETATM   18  C   UNL     1      19.763  49.971  50.181  1.00  0.00     0.150 C 
ENDBRANCH   6  11
ENDBRANCH   3   5
ENDBRANCH   1   3
BRANCH   1  19
HETATM   19  N   UNL     1      24.457  46.601  51.196  1.00  0.00    -0.299 N 
HETATM   20  C   UNL     1      25.799  46.857  51.410  1.00  0.00     0.260 C 
HETATM   21  O   UNL     1      26.352  47.862  50.974  1.00  0.00    -0.267 OA
HETATM   22  H   UNL     1      24.029  46.038  51.921  1.00  0.00     0.171 HD
BRANCH  20  23
HETATM   23  C   UNL     1      26.567  45.886  52.248  1.00  0.00     0.068 C 
HETATM   24  C   UNL     1      27.184  46.184  53.472  1.00  0.00     0.102 C 
HETATM   25  C   UNL     1      27.955  45.187  54.113  1.00  0.00     0.056 C 
HETATM   26 BR   UNL     1      29.073  45.666  55.599  1.00  0.00    -0.047 Br
HETATM   27  C   UNL     1      27.984  43.844  53.628  1.00  0.00    -0.006 A 
HETATM   28  C   UNL     1      27.286  43.554  52.432  1.00  0.00    -0.024 A 
HETATM   29  C   UNL     1      28.657  42.762  54.255  1.00  0.00     0.014 A 
HETATM   30  C   UNL     1      26.621  44.576  51.748  1.00  0.00     0.032 C 
HETATM   31  C   UNL     1      27.261  42.247  51.918  1.00  0.00     0.012 A 
HETATM   32  C   UNL     1      27.919  41.206  52.568  1.00  0.00     0.001 A 
HETATM   33  C   UNL     1      28.620  41.464  53.736  1.00  0.00     0.001 A 
BRANCH  24  34
HETATM   34  O   UNL     1      27.067  47.468  53.957  1.00  0.00    -0.353 OA
HETATM   35  C   UNL     1      26.020  47.613  54.930  1.00  0.00     0.210 C 
ENDBRANCH  24  34
ENDBRANCH  20  23
ENDBRANCH   1  19
TORSDOF 6
ENDMDL
MODEL 10
REMARK VINA RESULT:      -8.7      3.179      4.724
REMARK  6 active torsions:
REMARK  status: ('A' for Active; 'I' for Inactive)
REMARK    1  A    between atoms: N_6  and  C_7 
REMARK    2  A    between atoms: C_8  and  N_9 
REMARK    3  A    between atoms: N_9  and  C_10 
REMARK    4  A    between atoms: C_10  and  N_11 
REMARK       I    between atoms: N_11  and  C_12 
REMARK    5  A    between atoms: C_12  and  C_13 
REMARK    6  A    between atoms: C_14  and  O_15 
ROOT
HETATM    1  C   UNL     1      23.314  46.626  49.223  1.00  0.00     0.179 C 
HETATM    2  S   UNL     1      23.006  45.000  48.923  1.00  0.00    -0.040 SA
ENDROOT
BRANCH   1   3
HETATM    3  N   UNL     1      23.144  47.647  48.287  1.00  0.00    -0.331 N 
HETATM    4  H   UNL     1      23.243  47.361  47.316  1.00  0.00     0.168 HD
BRANCH   3   5
HETATM    5  C   UNL     1      22.378  48.825  48.474  1.00  0.00     0.061 A 
HETATM    6  C   UNL     1      20.994  48.836  48.153  1.00  0.00     0.057 A 
HETATM    7  C   UNL     1      20.390  50.109  48.096  1.00  0.00     0.031 A 
HETATM    8  C   UNL     1      21.073  51.281  48.449  1.00  0.00     0.002 A 
HETATM    9  C   UNL     1      22.399  51.225  48.842  1.00  0.00     0.002 A 
HETATM   10  C   UNL     1      23.058  50.002  48.833  1.00  0.00     0.032 A 
BRANCH   6  11
HETATM   11  N   UNL     1      20.263  47.641  47.924  1.00  0.00    -0.376 N 
HETATM   12  C   UNL     1      19.496  47.505  46.658  1.00  0.00     0.150 C 
HETATM   13  C   UNL     1      18.111  48.202  46.729  1.00  0.00     0.254 C 
HETATM   14  N   UNL     1      17.316  47.749  47.954  1.00  0.00    -0.072 N 
HETATM   15  C   UNL     1      16.005  48.466  48.074  1.00  0.00     0.269 C 
HETATM   16  H   UNL     1      17.114  46.749  47.831  1.00  0.00     0.279 HD
HETATM   17  C   UNL     1      18.142  47.885  49.234  1.00  0.00     0.254 C 
HETATM   18  C   UNL     1      19.476  47.131  49.084  1.00  0.00     0.150 C 
ENDBRANCH   6  11
ENDBRANCH   3   5
ENDBRANCH   1   3
BRANCH   1  19
HETATM   19  N   UNL     1      23.835  47.143  50.407  1.00  0.00    -0.299 N 
HETATM   20  C   UNL     1      25.185  47.378  50.592  1.00  0.00     0.260 C 
HETATM   21  O   UNL     1      25.786  48.261  49.986  1.00  0.00    -0.267 OA
HETATM   22  H   UNL     1      23.376  46.744  51.217  1.00  0.00     0.171 HD
BRANCH  20  23
HETATM   23  C   UNL     1      25.902  46.550  51.609  1.00  0.00     0.068 C 
HETATM   24  C   UNL     1      26.188  45.183  51.485  1.00  0.00     0.102 C 
HETATM   25  C   UNL     1      26.794  44.506  52.569  1.00  0.00     0.056 C 
HETATM   26 BR   UNL     1      26.887  42.588  52.554  1.00  0.00    -0.047 Br
HETATM   27  C   UNL     1      27.268  45.215  53.715  1.00  0.00    -0.006 A 
HETATM   28  C   UNL     1      27.036  46.608  53.778  1.00  0.00    -0.024 A 
HETATM   29  C   UNL     1      27.965  44.632  54.806  1.00  0.00     0.014 A 
HETATM   30  C   UNL     1      26.334  47.245  52.749  1.00  0.00     0.032 C 
HETATM   31  C   UNL     1      27.497  47.362  54.870  1.00  0.00     0.012 A 
HETATM   32  C   UNL     1      28.192  46.760  55.916  1.00  0.00     0.001 A 
HETATM   33  C   UNL     1      28.423  45.394  55.886  1.00  0.00     0.001 A 
BRANCH  24  34
HETATM   34  O   UNL     1      25.794  44.544  50.330  1.00  0.00    -0.353 OA
HETATM   35  C   UNL     1      26.893  44.011  49.574  1.00  0.00     0.210 C 
ENDBRANCH  24  34
ENDBRANCH  20  23
ENDBRANCH   1  19
TORSDOF 6
ENDMDL
