MODEL 1
REMARK VINA RESULT:     -10.2      0.000      0.000
REMARK  7 active torsions:
REMARK  status: ('A' for Active; 'I' for Inactive)
REMARK    1  A    between atoms: C_2  and  O_3 
REMARK    2  A    between atoms: O_3  and  C_4 
REMARK    3  A    between atoms: C_4  and  C_5 
REMARK    4  A    between atoms: C_6  and  C_7 
REMARK    5  A    between atoms: C_18  and  S_19 
REMARK    6  A    between atoms: S_19  and  C_20 
REMARK    7  A    between atoms: C_20  and  C_21 
ROOT
HETATM    1  C   UNL     1      23.932  42.944  49.752  1.00  0.00     0.070 C 
HETATM    2  C   UNL     1      24.829  43.394  50.898  1.00  0.00     0.203 C 
HETATM    3  N   UNL     1      25.927  42.448  51.114  1.00  0.00    -0.082 N 
HETATM    4  C   UNL     1      26.219  41.405  50.281  1.00  0.00     0.726 A 
HETATM    5  N   UNL     1      25.442  41.190  49.201  1.00  0.00    -0.192 N 
HETATM    6  N   UNL     1      26.710  42.437  52.209  1.00  0.00    -0.128 NA
HETATM    7  C   UNL     1      27.515  41.405  51.929  1.00  0.00     0.226 A 
HETATM    8  N   UNL     1      27.249  40.749  50.750  1.00  0.00    -0.035 NA
HETATM    9  C   UNL     1      24.266  41.897  48.957  1.00  0.00     0.037 C 
HETATM   10  C   UNL     1      23.423  41.393  47.813  1.00  0.00     0.070 C 
HETATM   11  H   UNL     1      25.625  40.373  48.623  1.00  0.00     0.184 HD
ENDROOT
BRANCH   7  12
HETATM   12  S   UNL     1      28.761  40.927  53.041  1.00  0.00    -0.083 SA
BRANCH  12  13
HETATM   13  C   UNL     1      29.900  42.324  52.858  1.00  0.00     0.121 C 
BRANCH  13  14
HETATM   14  C   UNL     1      29.784  43.277  54.023  1.00  0.00    -0.048 A 
HETATM   15  C   UNL     1      30.641  43.156  55.130  1.00  0.00     0.020 A 
HETATM   16  C   UNL     1      30.577  44.059  56.203  1.00  0.00    -0.025 A 
HETATM   17  C   UNL     1      29.630  45.107  56.171  1.00  0.00    -0.026 A 
HETATM   18  C   UNL     1      31.441  43.950  57.305  1.00  0.00     0.012 A 
HETATM   19  C   UNL     1      28.773  45.222  55.066  1.00  0.00     0.013 A 
HETATM   20  C   UNL     1      29.571  46.014  57.241  1.00  0.00     0.012 A 
HETATM   21  C   UNL     1      28.852  44.321  54.000  1.00  0.00     0.009 A 
HETATM   22  C   UNL     1      30.438  45.892  58.329  1.00  0.00     0.001 A 
HETATM   23  C   UNL     1      31.372  44.860  58.361  1.00  0.00     0.001 A 
ENDBRANCH  13  14
ENDBRANCH  12  13
ENDBRANCH   7  12
BRANCH   2  24
HETATM   24  C   UNL     1      25.397  44.797  50.683  1.00  0.00    -0.028 A 
HETATM   25  C   UNL     1      24.975  45.857  51.507  1.00  0.00     0.012 A 
HETATM   26  C   UNL     1      25.483  47.143  51.325  1.00  0.00     0.043 A 
HETATM   27  C   UNL     1      26.416  47.378  50.323  1.00  0.00     0.116 A 
HETATM   28  F   UNL     1      26.903  48.614  50.151  1.00  0.00    -0.206 F 
HETATM   29  C   UNL     1      26.853  46.349  49.499  1.00  0.00     0.043 A 
HETATM   30  C   UNL     1      26.348  45.061  49.678  1.00  0.00     0.012 A 
ENDBRANCH   2  24
BRANCH   1  31
HETATM   31  C   UNL     1      22.707  43.744  49.531  1.00  0.00     0.293 C 
HETATM   32  O   UNL     1      21.747  43.759  50.283  1.00  0.00    -0.259 OA
BRANCH  31  33
HETATM   33  O   UNL     1      22.833  44.439  48.374  1.00  0.00    -0.318 OA
BRANCH  33  34
HETATM   34  C   UNL     1      22.766  45.869  48.492  1.00  0.00     0.174 C 
HETATM   35  C   UNL     1      21.760  46.428  47.504  1.00  0.00     0.034 C 
ENDBRANCH  33  34
ENDBRANCH  31  33
ENDBRANCH   1  31
TORSDOF 7
ENDMDL
MODEL 2
REMARK VINA RESULT:      -9.7      2.122      3.084
REMARK  7 active torsions:
REMARK  status: ('A' for Active; 'I' for Inactive)
REMARK    1  A    between atoms: C_2  and  O_3 
REMARK    2  A    between atoms: O_3  and  C_4 
REMARK    3  A    between atoms: C_4  and  C_5 
REMARK    4  A    between atoms: C_6  and  C_7 
REMARK    5  A    between atoms: C_18  and  S_19 
REMARK    6  A    between atoms: S_19  and  C_20 
REMARK    7  A    between atoms: C_20  and  C_21 
ROOT
HETATM    1  C   UNL     1      22.862  46.051  48.749  1.00  0.00     0.070 C 
HETATM    2  C   UNL     1      23.699  46.563  49.913  1.00  0.00     0.203 C 
HETATM    3  N   UNL     1      24.387  45.463  50.594  1.00  0.00    -0.082 N 
HETATM    4  C   UNL     1      24.425  44.177  50.133  1.00  0.00     0.726 A 
HETATM    5  N   UNL     1      23.768  43.866  48.999  1.00  0.00    -0.192 N 
HETATM    6  N   UNL     1      24.973  45.571  51.801  1.00  0.00    -0.128 NA
HETATM    7  C   UNL     1      25.424  44.322  51.972  1.00  0.00     0.226 A 
HETATM    8  N   UNL     1      25.113  43.437  50.966  1.00  0.00    -0.035 NA
HETATM    9  C   UNL     1      22.933  44.762  48.334  1.00  0.00     0.037 C 
HETATM   10  C   UNL     1      22.127  44.186  47.196  1.00  0.00     0.070 C 
HETATM   11  H   UNL     1      23.747  42.895  48.698  1.00  0.00     0.184 HD
ENDROOT
BRANCH   7  12
HETATM   12  S   UNL     1      26.287  43.881  53.413  1.00  0.00    -0.083 SA
BRANCH  12  13
HETATM   13  C   UNL     1      27.990  44.153  52.856  1.00  0.00     0.121 C 
BRANCH  13  14
HETATM   14  C   UNL     1      28.954  44.113  54.017  1.00  0.00    -0.048 A 
HETATM   15  C   UNL     1      28.860  45.056  55.054  1.00  0.00     0.020 A 
HETATM   16  C   UNL     1      29.721  45.009  56.163  1.00  0.00    -0.025 A 
HETATM   17  C   UNL     1      30.703  43.996  56.234  1.00  0.00    -0.026 A 
HETATM   18  C   UNL     1      29.620  45.941  57.208  1.00  0.00     0.012 A 
HETATM   19  C   UNL     1      30.796  43.058  55.195  1.00  0.00     0.013 A 
HETATM   20  C   UNL     1      31.558  43.945  57.346  1.00  0.00     0.012 A 
HETATM   21  C   UNL     1      29.929  43.112  54.100  1.00  0.00     0.009 A 
HETATM   22  C   UNL     1      31.445  44.879  58.378  1.00  0.00     0.001 A 
HETATM   23  C   UNL     1      30.476  45.877  58.309  1.00  0.00     0.001 A 
ENDBRANCH  13  14
ENDBRANCH  12  13
ENDBRANCH   7  12
BRANCH   2  24
HETATM   24  C   UNL     1      24.720  47.617  49.484  1.00  0.00    -0.028 A 
HETATM   25  C   UNL     1      24.278  48.855  48.982  1.00  0.00     0.012 A 
HETATM   26  C   UNL     1      25.196  49.829  48.586  1.00  0.00     0.043 A 
HETATM   27  C   UNL     1      26.557  49.573  48.691  1.00  0.00     0.116 A 
HETATM   28  F   UNL     1      27.436  50.509  48.311  1.00  0.00    -0.206 F 
HETATM   29  C   UNL     1      27.020  48.361  49.187  1.00  0.00     0.043 A 
HETATM   30  C   UNL     1      26.106  47.385  49.586  1.00  0.00     0.012 A 
ENDBRANCH   2  24
BRANCH   1  31
HETATM   31  C   UNL     1      22.007  47.052  48.072  1.00  0.00     0.293 C 
HETATM   32  O   UNL     1      22.072  47.325  46.885  1.00  0.00    -0.259 OA
BRANCH  31  33
HETATM   33  O   UNL     1      21.161  47.601  48.979  1.00  0.00    -0.318 OA
BRANCH  33  34
HETATM   34  C   UNL     1      19.760  47.432  48.710  1.00  0.00     0.174 C 
HETATM   35  C   UNL     1      18.938  48.188  49.736  1.00  0.00     0.034 C 
ENDBRANCH  33  34
ENDBRANCH  31  33
ENDBRANCH   1  31
TORSDOF 7
ENDMDL
MODEL 3
REMARK VINA RESULT:      -9.5      1.330      2.242
REMARK  7 active torsions:
REMARK  status: ('A' for Active; 'I' for Inactive)
REMARK    1  A    between atoms: C_2  and  O_3 
REMARK    2  A    between atoms: O_3  and  C_4 
REMARK    3  A    between atoms: C_4  and  C_5 
REMARK    4  A    between atoms: C_6  and  C_7 
REMARK    5  A    between atoms: C_18  and  S_19 
REMARK    6  A    between atoms: S_19  and  C_20 
REMARK    7  A    between atoms: C_20  and  C_21 
ROOT
HETATM    1  C   UNL     1      24.600  42.308  48.796  1.00  0.00     0.070 C 
HETATM    2  C   UNL     1      25.044  42.804  50.165  1.00  0.00     0.203 C 
HETATM    3  N   UNL     1      26.208  42.056  50.648  1.00  0.00    -0.082 N 
HETATM    4  C   UNL     1      26.917  41.165  49.892  1.00  0.00     0.726 A 
HETATM    5  N   UNL     1      26.521  40.914  48.629  1.00  0.00    -0.192 N 
HETATM    6  N   UNL     1      26.650  42.086  51.919  1.00  0.00    -0.128 NA
HETATM    7  C   UNL     1      27.690  41.247  51.840  1.00  0.00     0.226 A 
HETATM    8  N   UNL     1      27.891  40.666  50.610  1.00  0.00    -0.035 NA
HETATM    9  C   UNL     1      25.339  41.417  48.089  1.00  0.00     0.037 C 
HETATM   10  C   UNL     1      24.956  40.876  46.733  1.00  0.00     0.070 C 
HETATM   11  H   UNL     1      27.013  40.201  48.096  1.00  0.00     0.184 HD
ENDROOT
BRANCH   7  12
HETATM   12  S   UNL     1      28.658  40.901  53.241  1.00  0.00    -0.083 SA
BRANCH  12  13
HETATM   13  C   UNL     1      29.891  42.221  53.106  1.00  0.00     0.121 C 
BRANCH  13  14
HETATM   14  C   UNL     1      29.453  43.453  53.860  1.00  0.00    -0.048 A 
HETATM   15  C   UNL     1      28.378  44.229  53.394  1.00  0.00     0.020 A 
HETATM   16  C   UNL     1      27.929  45.354  54.105  1.00  0.00    -0.025 A 
HETATM   17  C   UNL     1      28.573  45.714  55.310  1.00  0.00    -0.026 A 
HETATM   18  C   UNL     1      26.846  46.123  53.650  1.00  0.00     0.012 A 
HETATM   19  C   UNL     1      29.648  44.939  55.770  1.00  0.00     0.013 A 
HETATM   20  C   UNL     1      28.118  46.834  56.024  1.00  0.00     0.012 A 
HETATM   21  C   UNL     1      30.081  43.818  55.056  1.00  0.00     0.009 A 
HETATM   22  C   UNL     1      27.040  47.588  55.558  1.00  0.00     0.001 A 
HETATM   23  C   UNL     1      26.404  47.233  54.372  1.00  0.00     0.001 A 
ENDBRANCH  13  14
ENDBRANCH  12  13
ENDBRANCH   7  12
BRANCH   2  24
HETATM   24  C   UNL     1      25.357  44.301  50.174  1.00  0.00    -0.028 A 
HETATM   25  C   UNL     1      24.445  45.203  50.753  1.00  0.00     0.012 A 
HETATM   26  C   UNL     1      24.715  46.572  50.770  1.00  0.00     0.043 A 
HETATM   27  C   UNL     1      25.896  47.046  50.213  1.00  0.00     0.116 A 
HETATM   28  F   UNL     1      26.154  48.360  50.232  1.00  0.00    -0.206 F 
HETATM   29  C   UNL     1      26.815  46.177  49.641  1.00  0.00     0.043 A 
HETATM   30  C   UNL     1      26.550  44.807  49.622  1.00  0.00     0.012 A 
ENDBRANCH   2  24
BRANCH   1  31
HETATM   31  C   UNL     1      23.347  42.890  48.267  1.00  0.00     0.293 C 
HETATM   32  O   UNL     1      22.234  42.434  48.469  1.00  0.00    -0.259 OA
BRANCH  31  33
HETATM   33  O   UNL     1      23.642  43.992  47.534  1.00  0.00    -0.318 OA
BRANCH  33  34
HETATM   34  C   UNL     1      22.518  44.718  47.014  1.00  0.00     0.174 C 
HETATM   35  C   UNL     1      22.371  46.041  47.742  1.00  0.00     0.034 C 
ENDBRANCH  33  34
ENDBRANCH  31  33
ENDBRANCH   1  31
TORSDOF 7
ENDMDL
MODEL 4
REMARK VINA RESULT:      -9.4      6.822     11.658
REMARK  7 active torsions:
REMARK  status: ('A' for Active; 'I' for Inactive)
REMARK    1  A    between atoms: C_2  and  O_3 
REMARK    2  A    between atoms: O_3  and  C_4 
REMARK    3  A    between atoms: C_4  and  C_5 
REMARK    4  A    between atoms: C_6  and  C_7 
REMARK    5  A    between atoms: C_18  and  S_19 
REMARK    6  A    between atoms: S_19  and  C_20 
REMARK    7  A    between atoms: C_20  and  C_21 
ROOT
HETATM    1  C   UNL     1      22.959  48.568  48.626  1.00  0.00     0.070 C 
HETATM    2  C   UNL     1      21.651  48.719  47.861  1.00  0.00     0.203 C 
HETATM    3  N   UNL     1      20.946  47.437  47.760  1.00  0.00    -0.082 N 
HETATM    4  C   UNL     1      21.315  46.302  48.425  1.00  0.00     0.726 A 
HETATM    5  N   UNL     1      22.415  46.325  49.204  1.00  0.00    -0.192 N 
HETATM    6  N   UNL     1      19.916  47.206  46.925  1.00  0.00    -0.128 NA
HETATM    7  C   UNL     1      19.655  45.923  47.202  1.00  0.00     0.226 A 
HETATM    8  N   UNL     1      20.489  45.333  48.123  1.00  0.00    -0.035 NA
HETATM    9  C   UNL     1      23.281  47.415  49.265  1.00  0.00     0.037 C 
HETATM   10  C   UNL     1      24.560  47.195  50.033  1.00  0.00     0.070 C 
HETATM   11  H   UNL     1      22.720  45.460  49.642  1.00  0.00     0.184 HD
ENDROOT
BRANCH   7  12
HETATM   12  S   UNL     1      18.375  45.082  46.381  1.00  0.00    -0.083 SA
BRANCH  12  13
HETATM   13  C   UNL     1      17.729  46.424  45.349  1.00  0.00     0.121 C 
BRANCH  13  14
HETATM   14  C   UNL     1      17.205  47.557  46.196  1.00  0.00    -0.048 A 
HETATM   15  C   UNL     1      17.364  48.890  45.781  1.00  0.00     0.020 A 
HETATM   16  C   UNL     1      16.844  49.956  46.534  1.00  0.00    -0.025 A 
HETATM   17  C   UNL     1      16.154  49.682  47.735  1.00  0.00    -0.026 A 
HETATM   18  C   UNL     1      16.989  51.288  46.115  1.00  0.00     0.012 A 
HETATM   19  C   UNL     1      16.000  48.350  48.150  1.00  0.00     0.013 A 
HETATM   20  C   UNL     1      15.629  50.747  48.485  1.00  0.00     0.012 A 
HETATM   21  C   UNL     1      16.515  47.299  47.387  1.00  0.00     0.009 A 
HETATM   22  C   UNL     1      15.780  52.066  48.054  1.00  0.00     0.001 A 
HETATM   23  C   UNL     1      16.460  52.337  46.869  1.00  0.00     0.001 A 
ENDBRANCH  13  14
ENDBRANCH  12  13
ENDBRANCH   7  12
BRANCH   2  24
HETATM   24  C   UNL     1      20.724  49.765  48.481  1.00  0.00    -0.028 A 
HETATM   25  C   UNL     1      19.982  49.447  49.633  1.00  0.00     0.012 A 
HETATM   26  C   UNL     1      19.132  50.390  50.212  1.00  0.00     0.043 A 
HETATM   27  C   UNL     1      19.020  51.654  49.646  1.00  0.00     0.116 A 
HETATM   28  F   UNL     1      18.205  52.557  50.205  1.00  0.00    -0.206 F 
HETATM   29  C   UNL     1      19.745  51.994  48.512  1.00  0.00     0.043 A 
HETATM   30  C   UNL     1      20.598  51.056  47.930  1.00  0.00     0.012 A 
ENDBRANCH   2  24
BRANCH   1  31
HETATM   31  C   UNL     1      23.828  49.764  48.670  1.00  0.00     0.293 C 
HETATM   32  O   UNL     1      23.748  50.647  49.508  1.00  0.00    -0.259 OA
BRANCH  31  33
HETATM   33  O   UNL     1      24.710  49.711  47.641  1.00  0.00    -0.318 OA
BRANCH  33  34
HETATM   34  C   UNL     1      25.989  50.320  47.880  1.00  0.00     0.174 C 
HETATM   35  C   UNL     1      26.893  49.356  48.624  1.00  0.00     0.034 C 
ENDBRANCH  33  34
ENDBRANCH  31  33
ENDBRANCH   1  31
TORSDOF 7
ENDMDL
MODEL 5
REMARK VINA RESULT:      -9.2      4.654      9.832
REMARK  7 active torsions:
REMARK  status: ('A' for Active; 'I' for Inactive)
REMARK    1  A    between atoms: C_2  and  O_3 
REMARK    2  A    between atoms: O_3  and  C_4 
REMARK    3  A    between atoms: C_4  and  C_5 
REMARK    4  A    between atoms: C_6  and  C_7 
REMARK    5  A    between atoms: C_18  and  S_19 
REMARK    6  A    between atoms: S_19  and  C_20 
REMARK    7  A    between atoms: C_20  and  C_21 
ROOT
HETATM    1  C   UNL     1      25.590  45.370  53.056  1.00  0.00     0.070 C 
HETATM    2  C   UNL     1      24.772  44.905  51.858  1.00  0.00     0.203 C 
HETATM    3  N   UNL     1      24.527  46.009  50.925  1.00  0.00    -0.082 N 
HETATM    4  C   UNL     1      25.113  47.240  51.018  1.00  0.00     0.726 A 
HETATM    5  N   UNL     1      25.948  47.493  52.045  1.00  0.00    -0.192 N 
HETATM    6  N   UNL     1      23.622  45.968  49.929  1.00  0.00    -0.128 NA
HETATM    7  C   UNL     1      23.776  47.190  49.404  1.00  0.00     0.226 A 
HETATM    8  N   UNL     1      24.687  47.998  50.041  1.00  0.00    -0.035 NA
HETATM    9  C   UNL     1      26.146  46.606  53.101  1.00  0.00     0.037 C 
HETATM   10  C   UNL     1      26.959  47.134  54.257  1.00  0.00     0.070 C 
HETATM   11  H   UNL     1      26.328  48.431  52.144  1.00  0.00     0.184 HD
ENDROOT
BRANCH   7  12
HETATM   12  S   UNL     1      22.821  47.695  48.043  1.00  0.00    -0.083 SA
BRANCH  12  13
HETATM   13  C   UNL     1      23.113  49.482  48.099  1.00  0.00     0.121 C 
BRANCH  13  14
HETATM   14  C   UNL     1      21.874  50.221  48.543  1.00  0.00    -0.048 A 
HETATM   15  C   UNL     1      20.836  50.482  47.633  1.00  0.00     0.020 A 
HETATM   16  C   UNL     1      19.657  51.130  48.038  1.00  0.00    -0.025 A 
HETATM   17  C   UNL     1      19.515  51.530  49.385  1.00  0.00    -0.026 A 
HETATM   18  C   UNL     1      18.612  51.380  47.134  1.00  0.00     0.012 A 
HETATM   19  C   UNL     1      20.555  51.271  50.290  1.00  0.00     0.013 A 
HETATM   20  C   UNL     1      18.333  52.171  49.790  1.00  0.00     0.012 A 
HETATM   21  C   UNL     1      21.720  50.619  49.876  1.00  0.00     0.009 A 
HETATM   22  C   UNL     1      17.303  52.412  48.880  1.00  0.00     0.001 A 
HETATM   23  C   UNL     1      17.442  52.016  47.552  1.00  0.00     0.001 A 
ENDBRANCH  13  14
ENDBRANCH  12  13
ENDBRANCH   7  12
BRANCH   2  24
HETATM   24  C   UNL     1      25.427  43.741  51.115  1.00  0.00    -0.028 A 
HETATM   25  C   UNL     1      26.735  43.879  50.615  1.00  0.00     0.012 A 
HETATM   26  C   UNL     1      27.349  42.827  49.934  1.00  0.00     0.043 A 
HETATM   27  C   UNL     1      26.662  41.633  49.751  1.00  0.00     0.116 A 
HETATM   28  F   UNL     1      27.254  40.625  49.098  1.00  0.00    -0.206 F 
HETATM   29  C   UNL     1      25.372  41.470  50.239  1.00  0.00     0.043 A 
HETATM   30  C   UNL     1      24.754  42.519  50.921  1.00  0.00     0.012 A 
ENDBRANCH   2  24
BRANCH   1  31
HETATM   31  C   UNL     1      25.780  44.379  54.138  1.00  0.00     0.293 C 
HETATM   32  O   UNL     1      24.884  43.941  54.839  1.00  0.00    -0.259 OA
BRANCH  31  33
HETATM   33  O   UNL     1      27.094  44.050  54.215  1.00  0.00    -0.318 OA
BRANCH  33  34
HETATM   34  C   UNL     1      27.398  42.653  54.083  1.00  0.00     0.174 C 
HETATM   35  C   UNL     1      28.886  42.463  53.859  1.00  0.00     0.034 C 
ENDBRANCH  33  34
ENDBRANCH  31  33
ENDBRANCH   1  31
TORSDOF 7
ENDMDL
MODEL 6
REMARK VINA RESULT:      -8.9      3.214      5.190
REMARK  7 active torsions:
REMARK  status: ('A' for Active; 'I' for Inactive)
REMARK    1  A    between atoms: C_2  and  O_3 
REMARK    2  A    between atoms: O_3  and  C_4 
REMARK    3  A    between atoms: C_4  and  C_5 
REMARK    4  A    between atoms: C_6  and  C_7 
REMARK    5  A    between atoms: C_18  and  S_19 
REMARK    6  A    between atoms: S_19  and  C_20 
REMARK    7  A    between atoms: C_20  and  C_21 
ROOT
HETATM    1  C   UNL     1      24.402  41.104  47.452  1.00  0.00     0.070 C 
HETATM    2  C   UNL     1      25.522  41.876  48.136  1.00  0.00     0.203 C 
HETATM    3  N   UNL     1      25.002  42.716  49.219  1.00  0.00    -0.082 N 
HETATM    4  C   UNL     1      23.716  42.670  49.679  1.00  0.00     0.726 A 
HETATM    5  N   UNL     1      22.840  41.830  49.093  1.00  0.00    -0.192 N 
HETATM    6  N   UNL     1      25.703  43.698  49.815  1.00  0.00    -0.128 NA
HETATM    7  C   UNL     1      24.799  44.152  50.692  1.00  0.00     0.226 A 
HETATM    8  N   UNL     1      23.568  43.541  50.643  1.00  0.00    -0.035 NA
HETATM    9  C   UNL     1      23.139  41.096  47.947  1.00  0.00     0.037 C 
HETATM   10  C   UNL     1      21.981  40.362  47.318  1.00  0.00     0.070 C 
HETATM   11  H   UNL     1      21.869  41.849  49.397  1.00  0.00     0.184 HD
ENDROOT
BRANCH   7  12
HETATM   12  S   UNL     1      25.184  45.467  51.760  1.00  0.00    -0.083 SA
BRANCH  12  13
HETATM   13  C   UNL     1      25.195  44.593  53.346  1.00  0.00     0.121 C 
BRANCH  13  14
HETATM   14  C   UNL     1      26.604  44.260  53.774  1.00  0.00    -0.048 A 
HETATM   15  C   UNL     1      27.312  45.125  54.625  1.00  0.00     0.020 A 
HETATM   16  C   UNL     1      28.608  44.811  55.069  1.00  0.00    -0.025 A 
HETATM   17  C   UNL     1      29.211  43.606  54.647  1.00  0.00    -0.026 A 
HETATM   18  C   UNL     1      29.313  45.666  55.931  1.00  0.00     0.012 A 
HETATM   19  C   UNL     1      28.502  42.747  53.793  1.00  0.00     0.013 A 
HETATM   20  C   UNL     1      30.503  43.290  55.096  1.00  0.00     0.012 A 
HETATM   21  C   UNL     1      27.211  43.068  53.365  1.00  0.00     0.009 A 
HETATM   22  C   UNL     1      31.191  44.149  55.954  1.00  0.00     0.001 A 
HETATM   23  C   UNL     1      30.596  45.337  56.371  1.00  0.00     0.001 A 
ENDBRANCH  13  14
ENDBRANCH  12  13
ENDBRANCH   7  12
BRANCH   2  24
HETATM   24  C   UNL     1      26.619  40.960  48.680  1.00  0.00    -0.028 A 
HETATM   25  C   UNL     1      27.881  40.936  48.059  1.00  0.00     0.012 A 
HETATM   26  C   UNL     1      28.895  40.107  48.543  1.00  0.00     0.043 A 
HETATM   27  C   UNL     1      28.653  39.300  49.649  1.00  0.00     0.116 A 
HETATM   28  F   UNL     1      29.627  38.507  50.111  1.00  0.00    -0.206 F 
HETATM   29  C   UNL     1      27.418  39.309  50.283  1.00  0.00     0.043 A 
HETATM   30  C   UNL     1      26.402  40.138  49.804  1.00  0.00     0.012 A 
ENDBRANCH   2  24
BRANCH   1  31
HETATM   31  C   UNL     1      24.783  40.330  46.251  1.00  0.00     0.293 C 
HETATM   32  O   UNL     1      24.970  40.815  45.147  1.00  0.00    -0.259 OA
BRANCH  31  33
HETATM   33  O   UNL     1      24.886  39.018  46.580  1.00  0.00    -0.318 OA
BRANCH  33  34
HETATM   34  C   UNL     1      26.045  38.335  46.077  1.00  0.00     0.174 C 
HETATM   35  C   UNL     1      26.599  37.400  47.135  1.00  0.00     0.034 C 
ENDBRANCH  33  34
ENDBRANCH  31  33
ENDBRANCH   1  31
TORSDOF 7
ENDMDL
MODEL 7
REMARK VINA RESULT:      -8.8      2.451      3.665
REMARK  7 active torsions:
REMARK  status: ('A' for Active; 'I' for Inactive)
REMARK    1  A    between atoms: C_2  and  O_3 
REMARK    2  A    between atoms: O_3  and  C_4 
REMARK    3  A    between atoms: C_4  and  C_5 
REMARK    4  A    between atoms: C_6  and  C_7 
REMARK    5  A    between atoms: C_18  and  S_19 
REMARK    6  A    between atoms: S_19  and  C_20 
REMARK    7  A    between atoms: C_20  and  C_21 
ROOT
HETATM    1  C   UNL     1      22.626  42.819  47.481  1.00  0.00     0.070 C 
HETATM    2  C   UNL     1      22.341  43.558  48.781  1.00  0.00     0.203 C 
HETATM    3  N   UNL     1      23.538  43.628  49.623  1.00  0.00    -0.082 N 
HETATM    4  C   UNL     1      24.788  43.250  49.218  1.00  0.00     0.726 A 
HETATM    5  N   UNL     1      24.951  42.746  47.979  1.00  0.00    -0.192 N 
HETATM    6  N   UNL     1      23.528  43.977  50.924  1.00  0.00    -0.128 NA
HETATM    7  C   UNL     1      24.828  43.869  51.221  1.00  0.00     0.226 A 
HETATM    8  N   UNL     1      25.636  43.431  50.198  1.00  0.00    -0.035 NA
HETATM    9  C   UNL     1      23.885  42.460  47.128  1.00  0.00     0.037 C 
HETATM   10  C   UNL     1      24.238  41.720  45.862  1.00  0.00     0.070 C 
HETATM   11  H   UNL     1      25.870  42.406  47.709  1.00  0.00     0.184 HD
ENDROOT
BRANCH   7  12
HETATM   12  S   UNL     1      25.401  44.213  52.825  1.00  0.00    -0.083 SA
BRANCH  12  13
HETATM   13  C   UNL     1      27.122  44.646  52.459  1.00  0.00     0.121 C 
BRANCH  13  14
HETATM   14  C   UNL     1      27.914  44.844  53.728  1.00  0.00    -0.048 A 
HETATM   15  C   UNL     1      28.912  43.926  54.095  1.00  0.00     0.020 A 
HETATM   16  C   UNL     1      29.689  44.117  55.250  1.00  0.00    -0.025 A 
HETATM   17  C   UNL     1      29.460  45.252  56.059  1.00  0.00    -0.026 A 
HETATM   18  C   UNL     1      30.697  43.209  55.613  1.00  0.00     0.012 A 
HETATM   19  C   UNL     1      28.460  46.165  55.691  1.00  0.00     0.013 A 
HETATM   20  C   UNL     1      30.242  45.446  57.209  1.00  0.00     0.012 A 
HETATM   21  C   UNL     1      27.698  45.967  54.536  1.00  0.00     0.009 A 
HETATM   22  C   UNL     1      31.240  44.534  57.555  1.00  0.00     0.001 A 
HETATM   23  C   UNL     1      31.468  43.416  56.758  1.00  0.00     0.001 A 
ENDBRANCH  13  14
ENDBRANCH  12  13
ENDBRANCH   7  12
BRANCH   2  24
HETATM   24  C   UNL     1      21.796  44.968  48.548  1.00  0.00    -0.028 A 
HETATM   25  C   UNL     1      22.641  45.967  48.031  1.00  0.00     0.012 A 
HETATM   26  C   UNL     1      22.160  47.259  47.812  1.00  0.00     0.043 A 
HETATM   27  C   UNL     1      20.836  47.558  48.105  1.00  0.00     0.116 A 
HETATM   28  F   UNL     1      20.377  48.798  47.892  1.00  0.00    -0.206 F 
HETATM   29  C   UNL     1      19.980  46.589  48.611  1.00  0.00     0.043 A 
HETATM   30  C   UNL     1      20.455  45.295  48.831  1.00  0.00     0.012 A 
ENDBRANCH   2  24
BRANCH   1  31
HETATM   31  C   UNL     1      21.458  42.559  46.611  1.00  0.00     0.293 C 
HETATM   32  O   UNL     1      20.737  41.579  46.696  1.00  0.00    -0.259 OA
BRANCH  31  33
HETATM   33  O   UNL     1      21.332  43.574  45.721  1.00  0.00    -0.318 OA
BRANCH  33  34
HETATM   34  C   UNL     1      20.159  43.538  44.892  1.00  0.00     0.174 C 
HETATM   35  C   UNL     1      19.070  44.408  45.492  1.00  0.00     0.034 C 
ENDBRANCH  33  34
ENDBRANCH  31  33
ENDBRANCH   1  31
TORSDOF 7
ENDMDL
MODEL 8
REMARK VINA RESULT:      -8.7      2.789      4.035
REMARK  7 active torsions:
REMARK  status: ('A' for Active; 'I' for Inactive)
REMARK    1  A    between atoms: C_2  and  O_3 
REMARK    2  A    between atoms: O_3  and  C_4 
REMARK    3  A    between atoms: C_4  and  C_5 
REMARK    4  A    between atoms: C_6  and  C_7 
REMARK    5  A    between atoms: C_18  and  S_19 
REMARK    6  A    between atoms: S_19  and  C_20 
REMARK    7  A    between atoms: C_20  and  C_21 
ROOT
HETATM    1  C   UNL     1      21.694  45.479  47.200  1.00  0.00     0.070 C 
HETATM    2  C   UNL     1      22.117  45.871  48.609  1.00  0.00     0.203 C 
HETATM    3  N   UNL     1      23.283  45.097  49.046  1.00  0.00    -0.082 N 
HETATM    4  C   UNL     1      24.008  44.273  48.233  1.00  0.00     0.726 A 
HETATM    5  N   UNL     1      23.629  44.118  46.949  1.00  0.00    -0.192 N 
HETATM    6  N   UNL     1      23.711  45.032  50.321  1.00  0.00    -0.128 NA
HETATM    7  C   UNL     1      24.759  44.210  50.190  1.00  0.00     0.226 A 
HETATM    8  N   UNL     1      24.978  43.728  48.921  1.00  0.00    -0.035 NA
HETATM    9  C   UNL     1      22.448  44.651  46.435  1.00  0.00     0.037 C 
HETATM   10  C   UNL     1      22.085  44.215  45.038  1.00  0.00     0.070 C 
HETATM   11  H   UNL     1      24.133  43.452  46.369  1.00  0.00     0.184 HD
ENDROOT
BRANCH   7  12
HETATM   12  S   UNL     1      25.713  43.765  51.571  1.00  0.00    -0.083 SA
BRANCH  12  13
HETATM   13  C   UNL     1      25.683  45.324  52.492  1.00  0.00     0.121 C 
BRANCH  13  14
HETATM   14  C   UNL     1      26.821  45.395  53.481  1.00  0.00    -0.048 A 
HETATM   15  C   UNL     1      27.674  44.293  53.664  1.00  0.00     0.020 A 
HETATM   16  C   UNL     1      28.765  44.355  54.547  1.00  0.00    -0.025 A 
HETATM   17  C   UNL     1      29.005  45.545  55.268  1.00  0.00    -0.026 A 
HETATM   18  C   UNL     1      29.628  43.261  54.722  1.00  0.00     0.012 A 
HETATM   19  C   UNL     1      28.149  46.642  55.086  1.00  0.00     0.013 A 
HETATM   20  C   UNL     1      30.099  45.608  56.146  1.00  0.00     0.012 A 
HETATM   21  C   UNL     1      27.071  46.570  54.198  1.00  0.00     0.009 A 
HETATM   22  C   UNL     1      30.949  44.513  56.308  1.00  0.00     0.001 A 
HETATM   23  C   UNL     1      30.713  43.339  55.596  1.00  0.00     0.001 A 
ENDBRANCH  13  14
ENDBRANCH  12  13
ENDBRANCH   7  12
BRANCH   2  24
HETATM   24  C   UNL     1      22.417  47.365  48.738  1.00  0.00    -0.028 A 
HETATM   25  C   UNL     1      21.380  48.261  49.056  1.00  0.00     0.012 A 
HETATM   26  C   UNL     1      21.636  49.628  49.178  1.00  0.00     0.043 A 
HETATM   27  C   UNL     1      22.927  50.105  48.985  1.00  0.00     0.116 A 
HETATM   28  F   UNL     1      23.170  51.417  49.104  1.00  0.00    -0.206 F 
HETATM   29  C   UNL     1      23.969  49.241  48.676  1.00  0.00     0.043 A 
HETATM   30  C   UNL     1      23.718  47.874  48.554  1.00  0.00     0.012 A 
ENDBRANCH   2  24
BRANCH   1  31
HETATM   31  C   UNL     1      20.441  46.090  46.703  1.00  0.00     0.293 C 
HETATM   32  O   UNL     1      20.385  46.929  45.820  1.00  0.00    -0.259 OA
BRANCH  31  33
HETATM   33  O   UNL     1      19.391  45.569  47.385  1.00  0.00    -0.318 OA
BRANCH  33  34
HETATM   34  C   UNL     1      18.783  44.404  46.803  1.00  0.00     0.174 C 
HETATM   35  C   UNL     1      17.509  44.790  46.076  1.00  0.00     0.034 C 
ENDBRANCH  33  34
ENDBRANCH  31  33
ENDBRANCH   1  31
TORSDOF 7
ENDMDL
MODEL 9
REMARK VINA RESULT:      -8.4      2.681      4.035
REMARK  7 active torsions:
REMARK  status: ('A' for Active; 'I' for Inactive)
REMARK    1  A    between atoms: C_2  and  O_3 
REMARK    2  A    between atoms: O_3  and  C_4 
REMARK    3  A    between atoms: C_4  and  C_5 
REMARK    4  A    between atoms: C_6  and  C_7 
REMARK    5  A    between atoms: C_18  and  S_19 
REMARK    6  A    between atoms: S_19  and  C_20 
REMARK    7  A    between atoms: C_20  and  C_21 
ROOT
HETATM    1  C   UNL     1      21.700  43.978  47.014  1.00  0.00     0.070 C 
HETATM    2  C   UNL     1      21.790  44.562  48.418  1.00  0.00     0.203 C 
HETATM    3  N   UNL     1      23.086  44.262  49.033  1.00  0.00    -0.082 N 
HETATM    4  C   UNL     1      24.142  43.701  48.370  1.00  0.00     0.726 A 
HETATM    5  N   UNL     1      23.997  43.361  47.075  1.00  0.00    -0.192 N 
HETATM    6  N   UNL     1      23.352  44.412  50.344  1.00  0.00    -0.128 NA
HETATM    7  C   UNL     1      24.625  43.999  50.389  1.00  0.00     0.226 A 
HETATM    8  N   UNL     1      25.148  43.561  49.195  1.00  0.00    -0.035 NA
HETATM    9  C   UNL     1      22.778  43.426  46.403  1.00  0.00     0.037 C 
HETATM   10  C   UNL     1      22.758  42.822  45.021  1.00  0.00     0.070 C 
HETATM   11  H   UNL     1      24.764  42.884  46.607  1.00  0.00     0.184 HD
ENDROOT
BRANCH   7  12
HETATM   12  S   UNL     1      25.497  43.981  51.891  1.00  0.00    -0.083 SA
BRANCH  12  13
HETATM   13  C   UNL     1      27.175  43.683  51.277  1.00  0.00     0.121 C 
BRANCH  13  14
HETATM   14  C   UNL     1      28.173  43.660  52.410  1.00  0.00    -0.048 A 
HETATM   15  C   UNL     1      28.090  44.600  53.451  1.00  0.00     0.020 A 
HETATM   16  C   UNL     1      28.982  44.566  54.536  1.00  0.00    -0.025 A 
HETATM   17  C   UNL     1      29.984  43.572  54.578  1.00  0.00    -0.026 A 
HETATM   18  C   UNL     1      28.894  45.495  55.585  1.00  0.00     0.012 A 
HETATM   19  C   UNL     1      30.066  42.637  53.534  1.00  0.00     0.013 A 
HETATM   20  C   UNL     1      30.871  43.535  55.666  1.00  0.00     0.012 A 
HETATM   21  C   UNL     1      29.167  42.677  52.464  1.00  0.00     0.009 A 
HETATM   22  C   UNL     1      30.770  44.465  56.701  1.00  0.00     0.001 A 
HETATM   23  C   UNL     1      29.782  45.445  56.661  1.00  0.00     0.001 A 
ENDBRANCH  13  14
ENDBRANCH  12  13
ENDBRANCH   7  12
BRANCH   2  24
HETATM   24  C   UNL     1      21.548  46.071  48.443  1.00  0.00    -0.028 A 
HETATM   25  C   UNL     1      20.314  46.574  48.894  1.00  0.00     0.012 A 
HETATM   26  C   UNL     1      20.076  47.949  48.924  1.00  0.00     0.043 A 
HETATM   27  C   UNL     1      21.068  48.827  48.506  1.00  0.00     0.116 A 
HETATM   28  F   UNL     1      20.838  50.145  48.537  1.00  0.00    -0.206 F 
HETATM   29  C   UNL     1      22.297  48.357  48.061  1.00  0.00     0.043 A 
HETATM   30  C   UNL     1      22.540  46.983  48.031  1.00  0.00     0.012 A 
ENDBRANCH   2  24
BRANCH   1  31
HETATM   31  C   UNL     1      20.386  44.091  46.345  1.00  0.00     0.293 C 
HETATM   32  O   UNL     1      19.393  43.457  46.661  1.00  0.00    -0.259 OA
BRANCH  31  33
HETATM   33  O   UNL     1      20.473  45.000  45.343  1.00  0.00    -0.318 OA
BRANCH  33  34
HETATM   34  C   UNL     1      19.479  46.036  45.348  1.00  0.00     0.174 C 
HETATM   35  C   UNL     1      18.475  45.801  44.235  1.00  0.00     0.034 C 
ENDBRANCH  33  34
ENDBRANCH  31  33
ENDBRANCH   1  31
TORSDOF 7
ENDMDL
MODEL 10
REMARK VINA RESULT:      -8.3     13.145     14.988
REMARK  7 active torsions:
REMARK  status: ('A' for Active; 'I' for Inactive)
REMARK    1  A    between atoms: C_2  and  O_3 
REMARK    2  A    between atoms: O_3  and  C_4 
REMARK    3  A    between atoms: C_4  and  C_5 
REMARK    4  A    between atoms: C_6  and  C_7 
REMARK    5  A    between atoms: C_18  and  S_19 
REMARK    6  A    between atoms: S_19  and  C_20 
REMARK    7  A    between atoms: C_20  and  C_21 
ROOT
HETATM    1  C   UNL     1      30.379  52.011  39.401  1.00  0.00     0.070 C 
HETATM    2  C   UNL     1      31.338  50.830  39.466  1.00  0.00     0.203 C 
HETATM    3  N   UNL     1      32.389  51.057  40.463  1.00  0.00    -0.082 N 
HETATM    4  C   UNL     1      32.398  52.098  41.348  1.00  0.00     0.726 A 
HETATM    5  N   UNL     1      31.407  53.009  41.300  1.00  0.00    -0.192 N 
HETATM    6  N   UNL     1      33.514  50.323  40.554  1.00  0.00    -0.128 NA
HETATM    7  C   UNL     1      34.124  50.929  41.579  1.00  0.00     0.226 A 
HETATM    8  N   UNL     1      33.468  52.020  42.099  1.00  0.00    -0.035 NA
HETATM    9  C   UNL     1      30.435  53.024  40.302  1.00  0.00     0.037 C 
HETATM   10  C   UNL     1      29.523  54.226  40.292  1.00  0.00     0.070 C 
HETATM   11  H   UNL     1      31.456  53.816  41.917  1.00  0.00     0.184 HD
ENDROOT
BRANCH   7  12
HETATM   12  S   UNL     1      35.671  50.374  42.143  1.00  0.00    -0.083 SA
BRANCH  12  13
HETATM   13  C   UNL     1      36.748  51.615  41.379  1.00  0.00     0.121 C 
BRANCH  13  14
HETATM   14  C   UNL     1      37.163  52.665  42.381  1.00  0.00    -0.048 A 
HETATM   15  C   UNL     1      37.346  52.327  43.732  1.00  0.00     0.020 A 
HETATM   16  C   UNL     1      37.774  53.282  44.670  1.00  0.00    -0.025 A 
HETATM   17  C   UNL     1      38.019  54.607  44.248  1.00  0.00    -0.026 A 
HETATM   18  C   UNL     1      37.972  52.944  46.019  1.00  0.00     0.012 A 
HETATM   19  C   UNL     1      37.831  54.941  42.898  1.00  0.00     0.013 A 
HETATM   20  C   UNL     1      38.453  55.558  45.185  1.00  0.00     0.012 A 
HETATM   21  C   UNL     1      37.412  53.981  41.973  1.00  0.00     0.009 A 
HETATM   22  C   UNL     1      38.646  55.207  46.522  1.00  0.00     0.001 A 
HETATM   23  C   UNL     1      38.406  53.901  46.939  1.00  0.00     0.001 A 
ENDBRANCH  13  14
ENDBRANCH  12  13
ENDBRANCH   7  12
BRANCH   2  24
HETATM   24  C   UNL     1      30.626  49.510  39.764  1.00  0.00    -0.028 A 
HETATM   25  C   UNL     1      29.936  49.347  40.978  1.00  0.00     0.012 A 
HETATM   26  C   UNL     1      29.280  48.149  41.266  1.00  0.00     0.043 A 
HETATM   27  C   UNL     1      29.309  47.111  40.343  1.00  0.00     0.116 A 
HETATM   28  F   UNL     1      28.678  45.963  40.621  1.00  0.00    -0.206 F 
HETATM   29  C   UNL     1      29.979  47.249  39.135  1.00  0.00     0.043 A 
HETATM   30  C   UNL     1      30.636  48.445  38.842  1.00  0.00     0.012 A 
ENDBRANCH   2  24
BRANCH   1  31
HETATM   31  C   UNL     1      29.358  51.962  38.331  1.00  0.00     0.293 C 
HETATM   32  O   UNL     1      29.589  52.146  37.148  1.00  0.00    -0.259 OA
BRANCH  31  33
HETATM   33  O   UNL     1      28.150  51.686  38.881  1.00  0.00    -0.318 OA
BRANCH  33  34
HETATM   34  C   UNL     1      27.426  50.596  38.289  1.00  0.00     0.174 C 
HETATM   35  C   UNL     1      26.568  49.910  39.335  1.00  0.00     0.034 C 
ENDBRANCH  33  34
ENDBRANCH  31  33
ENDBRANCH   1  31
TORSDOF 7
ENDMDL
