MODEL 1
REMARK VINA RESULT:      -9.7      0.000      0.000
REMARK  5 active torsions:
REMARK  status: ('A' for Active; 'I' for Inactive)
REMARK    1  A    between atoms: O_2  and  C_3 
REMARK    2  A    between atoms: C_16  and  C_17 
REMARK    3  A    between atoms: C_19  and  O_20 
REMARK    4  A    between atoms: C_22  and  O_23 
REMARK    5  A    between atoms: O_23  and  C_24 
ROOT
HETATM    1  C   UNL     1      30.163  44.969  56.183  1.00  0.00     0.069 A 
HETATM    2  C   UNL     1      29.861  44.125  55.106  1.00  0.00     0.051 A 
HETATM    3  C   UNL     1      28.680  44.325  54.367  1.00  0.00     0.002 A 
HETATM    4  C   UNL     1      27.828  45.366  54.735  1.00  0.00     0.043 A 
HETATM    5  N   UNL     1      26.754  45.356  53.872  1.00  0.00    -0.356 N 
HETATM    6  H   UNL     1      25.989  46.020  53.916  1.00  0.00     0.166 HD
HETATM    7  C   UNL     1      26.924  44.363  52.941  1.00  0.00     0.052 A 
HETATM    8  C   UNL     1      28.091  43.688  53.243  1.00  0.00    -0.019 A 
HETATM    9  C   UNL     1      28.570  42.528  52.437  1.00  0.00     0.069 C 
HETATM   10  C   UNL     1      27.429  41.978  51.560  1.00  0.00     0.238 C 
HETATM   11  N   UNL     1      26.692  43.101  50.873  1.00  0.00    -0.061 N 
HETATM   12  H   UNL     1      27.357  43.652  50.321  1.00  0.00     0.278 HD
HETATM   13  H   UNL     1      26.002  42.734  50.209  1.00  0.00     0.278 HD
HETATM   14  C   UNL     1      25.994  44.050  51.816  1.00  0.00     0.269 C 
HETATM   15  C   UNL     1      28.106  46.217  55.810  1.00  0.00     0.033 A 
HETATM   16  C   UNL     1      29.291  46.000  56.527  1.00  0.00     0.039 A 
ENDROOT
BRANCH  14  17
HETATM   17  C   UNL     1      25.506  45.264  51.053  1.00  0.00    -0.019 A 
HETATM   18  C   UNL     1      26.299  46.422  50.933  1.00  0.00     0.049 A 
HETATM   19  C   UNL     1      25.845  47.532  50.214  1.00  0.00     0.102 A 
HETATM   20  C   UNL     1      24.593  47.491  49.575  1.00  0.00     0.102 A 
HETATM   21  C   UNL     1      23.816  46.336  49.668  1.00  0.00     0.040 A 
HETATM   22  C   UNL     1      24.264  45.233  50.403  1.00  0.00     0.012 A 
BRANCH  19  23
HETATM   23  O   UNL     1      26.578  48.681  50.055  1.00  0.00    -0.353 OA
HETATM   24  C   UNL     1      27.618  48.659  49.085  1.00  0.00     0.210 C 
ENDBRANCH  19  23
BRANCH  20  25
HETATM   25  O   UNL     1      24.238  48.615  48.881  1.00  0.00    -0.343 OA
BRANCH  25  26
HETATM   26  C   UNL     1      22.984  49.235  49.145  1.00  0.00     0.129 C 
HETATM   27  C   UNL     1      23.062  50.761  49.140  1.00  0.00     0.032 C 
HETATM   28  C   UNL     1      21.650  51.180  48.777  1.00  0.00     0.002 C 
HETATM   29  C   UNL     1      21.268  50.203  47.676  1.00  0.00     0.002 C 
HETATM   30  C   UNL     1      22.020  48.911  47.992  1.00  0.00     0.032 C 
ENDBRANCH  25  26
ENDBRANCH  20  25
ENDBRANCH  14  17
BRANCH   1  31
HETATM   31  O   UNL     1      31.343  44.672  56.811  1.00  0.00    -0.356 OA
HETATM   32  C   UNL     1      31.637  43.295  57.020  1.00  0.00     0.210 C 
ENDBRANCH   1  31
TORSDOF 5
ENDMDL
MODEL 2
REMARK VINA RESULT:      -9.1      1.116      2.037
REMARK  5 active torsions:
REMARK  status: ('A' for Active; 'I' for Inactive)
REMARK    1  A    between atoms: O_2  and  C_3 
REMARK    2  A    between atoms: C_16  and  C_17 
REMARK    3  A    between atoms: C_19  and  O_20 
REMARK    4  A    between atoms: C_22  and  O_23 
REMARK    5  A    between atoms: O_23  and  C_24 
ROOT
HETATM    1  C   UNL     1      30.181  44.830  55.938  1.00  0.00     0.069 A 
HETATM    2  C   UNL     1      29.871  43.887  54.949  1.00  0.00     0.051 A 
HETATM    3  C   UNL     1      28.654  43.978  54.248  1.00  0.00     0.002 A 
HETATM    4  C   UNL     1      27.775  45.013  54.566  1.00  0.00     0.043 A 
HETATM    5  N   UNL     1      26.668  44.888  53.755  1.00  0.00    -0.356 N 
HETATM    6  H   UNL     1      25.878  45.523  53.777  1.00  0.00     0.166 HD
HETATM    7  C   UNL     1      26.841  43.827  52.902  1.00  0.00     0.052 A 
HETATM    8  C   UNL     1      28.048  43.227  53.208  1.00  0.00    -0.019 A 
HETATM    9  C   UNL     1      28.542  42.022  52.479  1.00  0.00     0.069 C 
HETATM   10  C   UNL     1      27.391  41.357  51.702  1.00  0.00     0.238 C 
HETATM   11  N   UNL     1      26.579  42.388  50.958  1.00  0.00    -0.061 N 
HETATM   12  H   UNL     1      27.198  42.916  50.334  1.00  0.00     0.278 HD
HETATM   13  H   UNL     1      25.879  41.940  50.357  1.00  0.00     0.278 HD
HETATM   14  C   UNL     1      25.881  43.385  51.849  1.00  0.00     0.269 C 
HETATM   15  C   UNL     1      28.060  45.961  55.554  1.00  0.00     0.033 A 
HETATM   16  C   UNL     1      29.281  45.852  56.233  1.00  0.00     0.039 A 
ENDROOT
BRANCH  14  17
HETATM   17  C   UNL     1      25.312  44.511  51.011  1.00  0.00    -0.019 A 
HETATM   18  C   UNL     1      24.086  44.372  50.332  1.00  0.00     0.049 A 
HETATM   19  C   UNL     1      23.561  45.423  49.574  1.00  0.00     0.102 A 
HETATM   20  C   UNL     1      24.246  46.650  49.505  1.00  0.00     0.102 A 
HETATM   21  C   UNL     1      25.447  46.802  50.199  1.00  0.00     0.040 A 
HETATM   22  C   UNL     1      25.979  45.742  50.942  1.00  0.00     0.012 A 
BRANCH  19  23
HETATM   23  O   UNL     1      22.368  45.348  48.901  1.00  0.00    -0.353 OA
HETATM   24  C   UNL     1      22.167  44.220  48.058  1.00  0.00     0.210 C 
ENDBRANCH  19  23
BRANCH  20  25
HETATM   25  O   UNL     1      23.651  47.626  48.754  1.00  0.00    -0.343 OA
BRANCH  25  26
HETATM   26  C   UNL     1      23.370  48.892  49.343  1.00  0.00     0.129 C 
HETATM   27  C   UNL     1      24.041  50.052  48.607  1.00  0.00     0.032 C 
HETATM   28  C   UNL     1      23.144  51.231  48.929  1.00  0.00     0.002 C 
HETATM   29  C   UNL     1      21.744  50.652  48.799  1.00  0.00     0.002 C 
HETATM   30  C   UNL     1      21.868  49.182  49.198  1.00  0.00     0.032 C 
ENDBRANCH  25  26
ENDBRANCH  20  25
ENDBRANCH  14  17
BRANCH   1  31
HETATM   31  O   UNL     1      31.397  44.633  56.535  1.00  0.00    -0.356 OA
HETATM   32  C   UNL     1      31.653  43.341  57.075  1.00  0.00     0.210 C 
ENDBRANCH   1  31
TORSDOF 5
ENDMDL
MODEL 3
REMARK VINA RESULT:      -8.8      1.739      8.808
REMARK  5 active torsions:
REMARK  status: ('A' for Active; 'I' for Inactive)
REMARK    1  A    between atoms: O_2  and  C_3 
REMARK    2  A    between atoms: C_16  and  C_17 
REMARK    3  A    between atoms: C_19  and  O_20 
REMARK    4  A    between atoms: C_22  and  O_23 
REMARK    5  A    between atoms: O_23  and  C_24 
ROOT
HETATM    1  C   UNL     1      23.008  48.590  48.517  1.00  0.00     0.069 A 
HETATM    2  C   UNL     1      22.879  47.273  48.979  1.00  0.00     0.051 A 
HETATM    3  C   UNL     1      23.991  46.609  49.530  1.00  0.00     0.002 A 
HETATM    4  C   UNL     1      25.210  47.286  49.595  1.00  0.00     0.043 A 
HETATM    5  N   UNL     1      26.132  46.436  50.165  1.00  0.00    -0.356 N 
HETATM    6  H   UNL     1      27.100  46.687  50.336  1.00  0.00     0.166 HD
HETATM    7  C   UNL     1      25.521  45.254  50.501  1.00  0.00     0.052 A 
HETATM    8  C   UNL     1      24.204  45.323  50.090  1.00  0.00    -0.019 A 
HETATM    9  C   UNL     1      23.252  44.191  50.285  1.00  0.00     0.069 C 
HETATM   10  C   UNL     1      24.020  42.892  50.591  1.00  0.00     0.238 C 
HETATM   11  N   UNL     1      25.098  43.135  51.618  1.00  0.00    -0.061 N 
HETATM   12  H   UNL     1      24.673  43.528  52.464  1.00  0.00     0.278 HD
HETATM   13  H   UNL     1      25.540  42.254  51.901  1.00  0.00     0.278 HD
HETATM   14  C   UNL     1      26.174  44.091  51.169  1.00  0.00     0.269 C 
HETATM   15  C   UNL     1      25.364  48.598  49.134  1.00  0.00     0.033 A 
HETATM   16  C   UNL     1      24.239  49.238  48.595  1.00  0.00     0.039 A 
ENDROOT
BRANCH  14  17
HETATM   17  C   UNL     1      27.056  44.459  52.344  1.00  0.00    -0.019 A 
HETATM   18  C   UNL     1      26.661  45.436  53.279  1.00  0.00     0.049 A 
HETATM   19  C   UNL     1      27.476  45.758  54.369  1.00  0.00     0.102 A 
HETATM   20  C   UNL     1      28.694  45.082  54.559  1.00  0.00     0.102 A 
HETATM   21  C   UNL     1      29.077  44.095  53.651  1.00  0.00     0.040 A 
HETATM   22  C   UNL     1      28.269  43.788  52.551  1.00  0.00     0.012 A 
BRANCH  19  23
HETATM   23  O   UNL     1      27.138  46.692  55.316  1.00  0.00    -0.353 OA
HETATM   24  C   UNL     1      27.278  48.061  54.957  1.00  0.00     0.210 C 
ENDBRANCH  19  23
BRANCH  20  25
HETATM   25  O   UNL     1      29.418  45.451  55.660  1.00  0.00    -0.343 OA
BRANCH  25  26
HETATM   26  C   UNL     1      29.938  44.448  56.526  1.00  0.00     0.129 C 
HETATM   27  C   UNL     1      31.197  43.780  55.973  1.00  0.00     0.032 C 
HETATM   28  C   UNL     1      31.911  43.300  57.222  1.00  0.00     0.002 C 
HETATM   29  C   UNL     1      31.749  44.464  58.186  1.00  0.00     0.002 C 
HETATM   30  C   UNL     1      30.415  45.116  57.826  1.00  0.00     0.032 C 
ENDBRANCH  25  26
ENDBRANCH  20  25
ENDBRANCH  14  17
BRANCH   1  31
HETATM   31  O   UNL     1      21.851  49.121  48.015  1.00  0.00    -0.356 OA
HETATM   32  C   UNL     1      21.703  50.535  48.086  1.00  0.00     0.210 C 
ENDBRANCH   1  31
TORSDOF 5
ENDMDL
MODEL 4
REMARK VINA RESULT:      -8.7      3.371      6.074
REMARK  5 active torsions:
REMARK  status: ('A' for Active; 'I' for Inactive)
REMARK    1  A    between atoms: O_2  and  C_3 
REMARK    2  A    between atoms: C_16  and  C_17 
REMARK    3  A    between atoms: C_19  and  O_20 
REMARK    4  A    between atoms: C_22  and  O_23 
REMARK    5  A    between atoms: O_23  and  C_24 
ROOT
HETATM    1  C   UNL     1      26.586  44.725  52.370  1.00  0.00     0.069 A 
HETATM    2  C   UNL     1      26.839  45.893  51.638  1.00  0.00     0.051 A 
HETATM    3  C   UNL     1      25.826  46.457  50.842  1.00  0.00     0.002 A 
HETATM    4  C   UNL     1      24.582  45.825  50.795  1.00  0.00     0.043 A 
HETATM    5  N   UNL     1      23.770  46.559  49.957  1.00  0.00    -0.356 N 
HETATM    6  H   UNL     1      22.805  46.319  49.755  1.00  0.00     0.166 HD
HETATM    7  C   UNL     1      24.452  47.660  49.505  1.00  0.00     0.052 A 
HETATM    8  C   UNL     1      25.737  47.604  50.011  1.00  0.00    -0.019 A 
HETATM    9  C   UNL     1      26.759  48.645  49.699  1.00  0.00     0.069 C 
HETATM   10  C   UNL     1      26.321  49.477  48.480  1.00  0.00     0.238 C 
HETATM   11  N   UNL     1      24.871  49.877  48.595  1.00  0.00    -0.061 N 
HETATM   12  H   UNL     1      24.734  50.393  49.471  1.00  0.00     0.278 HD
HETATM   13  H   UNL     1      24.606  50.518  47.840  1.00  0.00     0.278 HD
HETATM   14  C   UNL     1      23.908  48.716  48.602  1.00  0.00     0.269 C 
HETATM   15  C   UNL     1      24.308  44.656  51.511  1.00  0.00     0.033 A 
HETATM   16  C   UNL     1      25.333  44.118  52.302  1.00  0.00     0.039 A 
ENDROOT
BRANCH  14  17
HETATM   17  C   UNL     1      22.522  49.201  48.974  1.00  0.00    -0.019 A 
HETATM   18  C   UNL     1      21.400  48.357  48.875  1.00  0.00     0.049 A 
HETATM   19  C   UNL     1      20.126  48.810  49.236  1.00  0.00     0.102 A 
HETATM   20  C   UNL     1      19.959  50.115  49.730  1.00  0.00     0.102 A 
HETATM   21  C   UNL     1      21.073  50.947  49.855  1.00  0.00     0.040 A 
HETATM   22  C   UNL     1      22.342  50.497  49.477  1.00  0.00     0.012 A 
BRANCH  19  23
HETATM   23  O   UNL     1      19.000  48.029  49.171  1.00  0.00    -0.353 OA
HETATM   24  C   UNL     1      18.587  47.589  47.883  1.00  0.00     0.210 C 
ENDBRANCH  19  23
BRANCH  20  25
HETATM   25  O   UNL     1      18.682  50.467  50.072  1.00  0.00    -0.343 OA
BRANCH  25  26
HETATM   26  C   UNL     1      17.911  51.264  49.179  1.00  0.00     0.129 C 
HETATM   27  C   UNL     1      16.569  50.625  48.820  1.00  0.00     0.032 C 
HETATM   28  C   UNL     1      15.701  51.818  48.468  1.00  0.00     0.002 C 
HETATM   29  C   UNL     1      16.058  52.839  49.537  1.00  0.00     0.002 C 
HETATM   30  C   UNL     1      17.520  52.569  49.893  1.00  0.00     0.032 C 
ENDBRANCH  25  26
ENDBRANCH  20  25
ENDBRANCH  14  17
BRANCH   1  31
HETATM   31  O   UNL     1      27.651  44.287  53.110  1.00  0.00    -0.356 OA
HETATM   32  C   UNL     1      27.643  42.921  53.512  1.00  0.00     0.210 C 
ENDBRANCH   1  31
TORSDOF 5
ENDMDL
MODEL 5
REMARK VINA RESULT:      -8.5      2.738      9.046
REMARK  5 active torsions:
REMARK  status: ('A' for Active; 'I' for Inactive)
REMARK    1  A    between atoms: O_2  and  C_3 
REMARK    2  A    between atoms: C_16  and  C_17 
REMARK    3  A    between atoms: C_19  and  O_20 
REMARK    4  A    between atoms: C_22  and  O_23 
REMARK    5  A    between atoms: O_23  and  C_24 
ROOT
HETATM    1  C   UNL     1      21.159  51.089  48.564  1.00  0.00     0.069 A 
HETATM    2  C   UNL     1      20.727  49.756  48.532  1.00  0.00     0.051 A 
HETATM    3  C   UNL     1      21.655  48.713  48.699  1.00  0.00     0.002 A 
HETATM    4  C   UNL     1      22.999  49.036  48.888  1.00  0.00     0.043 A 
HETATM    5  N   UNL     1      23.700  47.858  49.024  1.00  0.00    -0.356 N 
HETATM    6  H   UNL     1      24.701  47.812  49.182  1.00  0.00     0.166 HD
HETATM    7  C   UNL     1      22.831  46.798  48.969  1.00  0.00     0.052 A 
HETATM    8  C   UNL     1      21.563  47.297  48.736  1.00  0.00    -0.019 A 
HETATM    9  C   UNL     1      20.373  46.408  48.599  1.00  0.00     0.069 C 
HETATM   10  C   UNL     1      20.816  44.956  48.344  1.00  0.00     0.238 C 
HETATM   11  N   UNL     1      21.928  44.560  49.283  1.00  0.00    -0.061 N 
HETATM   12  H   UNL     1      21.614  44.693  50.250  1.00  0.00     0.278 HD
HETATM   13  H   UNL     1      22.153  43.564  49.187  1.00  0.00     0.278 HD
HETATM   14  C   UNL     1      23.196  45.358  49.109  1.00  0.00     0.269 C 
HETATM   15  C   UNL     1      23.455  50.359  48.918  1.00  0.00     0.033 A 
HETATM   16  C   UNL     1      22.508  51.380  48.754  1.00  0.00     0.039 A 
ENDROOT
BRANCH  14  17
HETATM   17  C   UNL     1      24.149  45.064  50.249  1.00  0.00    -0.019 A 
HETATM   18  C   UNL     1      24.851  46.095  50.902  1.00  0.00     0.049 A 
HETATM   19  C   UNL     1      25.717  45.814  51.965  1.00  0.00     0.102 A 
HETATM   20  C   UNL     1      25.872  44.490  52.412  1.00  0.00     0.102 A 
HETATM   21  C   UNL     1      25.157  43.468  51.786  1.00  0.00     0.040 A 
HETATM   22  C   UNL     1      24.306  43.750  50.712  1.00  0.00     0.012 A 
BRANCH  19  23
HETATM   23  O   UNL     1      26.418  46.777  52.644  1.00  0.00    -0.353 OA
HETATM   24  C   UNL     1      25.783  47.371  53.770  1.00  0.00     0.210 C 
ENDBRANCH  19  23
BRANCH  20  25
HETATM   25  O   UNL     1      26.726  44.310  53.466  1.00  0.00    -0.343 OA
BRANCH  25  26
HETATM   26  C   UNL     1      27.737  43.311  53.387  1.00  0.00     0.129 C 
HETATM   27  C   UNL     1      28.780  43.605  52.309  1.00  0.00     0.032 C 
HETATM   28  C   UNL     1      30.012  42.876  52.810  1.00  0.00     0.002 C 
HETATM   29  C   UNL     1      30.015  43.179  54.300  1.00  0.00     0.002 C 
HETATM   30  C   UNL     1      28.545  43.322  54.695  1.00  0.00     0.032 C 
ENDBRANCH  25  26
ENDBRANCH  20  25
ENDBRANCH  14  17
BRANCH   1  31
HETATM   31  O   UNL     1      20.155  52.006  48.398  1.00  0.00    -0.356 OA
HETATM   32  C   UNL     1      18.969  51.813  49.161  1.00  0.00     0.210 C 
ENDBRANCH   1  31
TORSDOF 5
ENDMDL
MODEL 6
REMARK VINA RESULT:      -8.4      3.109      9.550
REMARK  5 active torsions:
REMARK  status: ('A' for Active; 'I' for Inactive)
REMARK    1  A    between atoms: O_2  and  C_3 
REMARK    2  A    between atoms: C_16  and  C_17 
REMARK    3  A    between atoms: C_19  and  O_20 
REMARK    4  A    between atoms: C_22  and  O_23 
REMARK    5  A    between atoms: O_23  and  C_24 
ROOT
HETATM    1  C   UNL     1      18.821  50.820  49.087  1.00  0.00     0.069 A 
HETATM    2  C   UNL     1      19.180  49.643  48.417  1.00  0.00     0.051 A 
HETATM    3  C   UNL     1      20.446  49.069  48.632  1.00  0.00     0.002 A 
HETATM    4  C   UNL     1      21.325  49.700  49.514  1.00  0.00     0.043 A 
HETATM    5  N   UNL     1      22.485  48.956  49.554  1.00  0.00    -0.356 N 
HETATM    6  H   UNL     1      23.287  49.193  50.128  1.00  0.00     0.166 HD
HETATM    7  C   UNL     1      22.348  47.850  48.755  1.00  0.00     0.052 A 
HETATM    8  C   UNL     1      21.108  47.911  48.147  1.00  0.00    -0.019 A 
HETATM    9  C   UNL     1      20.640  46.867  47.191  1.00  0.00     0.069 C 
HETATM   10  C   UNL     1      21.828  46.020  46.699  1.00  0.00     0.238 C 
HETATM   11  N   UNL     1      22.717  45.621  47.850  1.00  0.00    -0.061 N 
HETATM   12  H   UNL     1      22.158  45.116  48.547  1.00  0.00     0.278 HD
HETATM   13  H   UNL     1      23.448  44.971  47.542  1.00  0.00     0.278 HD
HETATM   14  C   UNL     1      23.372  46.782  48.556  1.00  0.00     0.269 C 
HETATM   15  C   UNL     1      20.992  50.878  50.189  1.00  0.00     0.033 A 
HETATM   16  C   UNL     1      19.722  51.426  49.961  1.00  0.00     0.039 A 
ENDROOT
BRANCH  14  17
HETATM   17  C   UNL     1      24.028  46.302  49.834  1.00  0.00    -0.019 A 
HETATM   18  C   UNL     1      23.987  44.947  50.215  1.00  0.00     0.049 A 
HETATM   19  C   UNL     1      24.609  44.511  51.389  1.00  0.00     0.102 A 
HETATM   20  C   UNL     1      25.313  45.426  52.192  1.00  0.00     0.102 A 
HETATM   21  C   UNL     1      25.381  46.765  51.804  1.00  0.00     0.040 A 
HETATM   22  C   UNL     1      24.742  47.201  50.639  1.00  0.00     0.012 A 
BRANCH  19  23
HETATM   23  O   UNL     1      24.610  43.203  51.804  1.00  0.00    -0.353 OA
HETATM   24  C   UNL     1      25.172  42.241  50.919  1.00  0.00     0.210 C 
ENDBRANCH  19  23
BRANCH  20  25
HETATM   25  O   UNL     1      25.904  44.909  53.313  1.00  0.00    -0.343 OA
BRANCH  25  26
HETATM   26  C   UNL     1      27.306  45.067  53.503  1.00  0.00     0.129 C 
HETATM   27  C   UNL     1      27.681  45.333  54.961  1.00  0.00     0.032 C 
HETATM   28  C   UNL     1      29.106  44.823  55.051  1.00  0.00     0.002 C 
HETATM   29  C   UNL     1      29.063  43.525  54.260  1.00  0.00     0.002 C 
HETATM   30  C   UNL     1      28.003  43.736  53.180  1.00  0.00     0.032 C 
ENDBRANCH  25  26
ENDBRANCH  20  25
ENDBRANCH  14  17
BRANCH   1  31
HETATM   31  O   UNL     1      17.560  51.267  48.796  1.00  0.00    -0.356 OA
HETATM   32  C   UNL     1      17.091  52.400  49.519  1.00  0.00     0.210 C 
ENDBRANCH   1  31
TORSDOF 5
ENDMDL
MODEL 7
REMARK VINA RESULT:      -8.3      3.139      9.451
REMARK  5 active torsions:
REMARK  status: ('A' for Active; 'I' for Inactive)
REMARK    1  A    between atoms: O_2  and  C_3 
REMARK    2  A    between atoms: C_16  and  C_17 
REMARK    3  A    between atoms: C_19  and  O_20 
REMARK    4  A    between atoms: C_22  and  O_23 
REMARK    5  A    between atoms: O_23  and  C_24 
ROOT
HETATM    1  C   UNL     1      18.331  50.747  49.700  1.00  0.00     0.069 A 
HETATM    2  C   UNL     1      18.417  49.408  49.295  1.00  0.00     0.051 A 
HETATM    3  C   UNL     1      19.677  48.806  49.122  1.00  0.00     0.002 A 
HETATM    4  C   UNL     1      20.821  49.569  49.354  1.00  0.00     0.043 A 
HETATM    5  N   UNL     1      21.916  48.767  49.119  1.00  0.00    -0.356 N 
HETATM    6  H   UNL     1      22.876  49.077  49.225  1.00  0.00     0.166 HD
HETATM    7  C   UNL     1      21.497  47.504  48.786  1.00  0.00     0.052 A 
HETATM    8  C   UNL     1      20.115  47.509  48.749  1.00  0.00    -0.019 A 
HETATM    9  C   UNL     1      19.326  46.292  48.398  1.00  0.00     0.069 C 
HETATM   10  C   UNL     1      20.229  45.247  47.717  1.00  0.00     0.238 C 
HETATM   11  N   UNL     1      21.530  45.092  48.464  1.00  0.00    -0.061 N 
HETATM   12  H   UNL     1      21.330  44.839  49.438  1.00  0.00     0.278 HD
HETATM   13  H   UNL     1      22.087  44.324  48.076  1.00  0.00     0.278 HD
HETATM   14  C   UNL     1      22.380  46.338  48.489  1.00  0.00     0.269 C 
HETATM   15  C   UNL     1      20.760  50.909  49.753  1.00  0.00     0.033 A 
HETATM   16  C   UNL     1      19.493  51.484  49.923  1.00  0.00     0.039 A 
ENDROOT
BRANCH  14  17
HETATM   17  C   UNL     1      23.525  46.158  49.464  1.00  0.00    -0.019 A 
HETATM   18  C   UNL     1      24.499  47.160  49.643  1.00  0.00     0.049 A 
HETATM   19  C   UNL     1      25.544  46.991  50.558  1.00  0.00     0.102 A 
HETATM   20  C   UNL     1      25.615  45.820  51.333  1.00  0.00     0.102 A 
HETATM   21  C   UNL     1      24.637  44.837  51.179  1.00  0.00     0.040 A 
HETATM   22  C   UNL     1      23.604  45.001  50.251  1.00  0.00     0.012 A 
BRANCH  19  23
HETATM   23  O   UNL     1      26.513  47.935  50.781  1.00  0.00    -0.353 OA
HETATM   24  C   UNL     1      27.064  48.584  49.641  1.00  0.00     0.210 C 
ENDBRANCH  19  23
BRANCH  20  25
HETATM   25  O   UNL     1      26.662  45.747  52.212  1.00  0.00    -0.343 OA
BRANCH  25  26
HETATM   26  C   UNL     1      27.067  44.479  52.717  1.00  0.00     0.129 C 
HETATM   27  C   UNL     1      28.131  43.807  51.850  1.00  0.00     0.032 C 
HETATM   28  C   UNL     1      28.855  42.902  52.829  1.00  0.00     0.002 C 
HETATM   29  C   UNL     1      28.990  43.768  54.070  1.00  0.00     0.002 C 
HETATM   30  C   UNL     1      27.769  44.686  54.069  1.00  0.00     0.032 C 
ENDBRANCH  25  26
ENDBRANCH  20  25
ENDBRANCH  14  17
BRANCH   1  31
HETATM   31  O   UNL     1      17.049  51.207  49.839  1.00  0.00    -0.356 OA
HETATM   32  C   UNL     1      16.871  52.618  49.909  1.00  0.00     0.210 C 
ENDBRANCH   1  31
TORSDOF 5
ENDMDL
MODEL 8
REMARK VINA RESULT:      -8.2      3.287      9.457
REMARK  5 active torsions:
REMARK  status: ('A' for Active; 'I' for Inactive)
REMARK    1  A    between atoms: O_2  and  C_3 
REMARK    2  A    between atoms: C_16  and  C_17 
REMARK    3  A    between atoms: C_19  and  O_20 
REMARK    4  A    between atoms: C_22  and  O_23 
REMARK    5  A    between atoms: O_23  and  C_24 
ROOT
HETATM    1  C   UNL     1      20.238  49.612  47.286  1.00  0.00     0.069 A 
HETATM    2  C   UNL     1      21.610  49.891  47.220  1.00  0.00     0.051 A 
HETATM    3  C   UNL     1      22.489  49.319  48.158  1.00  0.00     0.002 A 
HETATM    4  C   UNL     1      21.963  48.485  49.145  1.00  0.00     0.043 A 
HETATM    5  N   UNL     1      23.010  48.056  49.933  1.00  0.00    -0.356 N 
HETATM    6  H   UNL     1      22.901  47.428  50.722  1.00  0.00     0.166 HD
HETATM    7  C   UNL     1      24.188  48.561  49.445  1.00  0.00     0.052 A 
HETATM    8  C   UNL     1      23.891  49.372  48.366  1.00  0.00    -0.019 A 
HETATM    9  C   UNL     1      24.948  50.101  47.607  1.00  0.00     0.069 C 
HETATM   10  C   UNL     1      26.256  50.148  48.419  1.00  0.00     0.238 C 
HETATM   11  N   UNL     1      26.570  48.795  49.008  1.00  0.00    -0.061 N 
HETATM   12  H   UNL     1      26.622  48.103  48.253  1.00  0.00     0.278 HD
HETATM   13  H   UNL     1      27.491  48.796  49.460  1.00  0.00     0.278 HD
HETATM   14  C   UNL     1      25.548  48.301  50.001  1.00  0.00     0.269 C 
HETATM   15  C   UNL     1      20.598  48.198  49.235  1.00  0.00     0.033 A 
HETATM   16  C   UNL     1      19.744  48.776  48.285  1.00  0.00     0.039 A 
ENDROOT
BRANCH  14  17
HETATM   17  C   UNL     1      25.818  46.849  50.337  1.00  0.00    -0.019 A 
HETATM   18  C   UNL     1      25.241  46.238  51.466  1.00  0.00     0.049 A 
HETATM   19  C   UNL     1      25.484  44.892  51.758  1.00  0.00     0.102 A 
HETATM   20  C   UNL     1      26.293  44.123  50.902  1.00  0.00     0.102 A 
HETATM   21  C   UNL     1      26.845  44.717  49.767  1.00  0.00     0.040 A 
HETATM   22  C   UNL     1      26.615  46.068  49.487  1.00  0.00     0.012 A 
BRANCH  19  23
HETATM   23  O   UNL     1      24.941  44.242  52.837  1.00  0.00    -0.353 OA
HETATM   24  C   UNL     1      25.412  44.616  54.126  1.00  0.00     0.210 C 
ENDBRANCH  19  23
BRANCH  20  25
HETATM   25  O   UNL     1      26.463  42.812  51.257  1.00  0.00    -0.343 OA
BRANCH  25  26
HETATM   26  C   UNL     1      27.771  42.327  51.541  1.00  0.00     0.129 C 
HETATM   27  C   UNL     1      28.617  43.325  52.332  1.00  0.00     0.032 C 
HETATM   28  C   UNL     1      29.609  42.439  53.060  1.00  0.00     0.002 C 
HETATM   29  C   UNL     1      28.755  41.272  53.530  1.00  0.00     0.002 C 
HETATM   30  C   UNL     1      27.656  41.115  52.480  1.00  0.00     0.032 C 
ENDBRANCH  25  26
ENDBRANCH  20  25
ENDBRANCH  14  17
BRANCH   1  31
HETATM   31  O   UNL     1      19.496  50.223  46.311  1.00  0.00    -0.356 OA
HETATM   32  C   UNL     1      18.339  50.940  46.730  1.00  0.00     0.210 C 
ENDBRANCH   1  31
TORSDOF 5
ENDMDL
MODEL 9
REMARK VINA RESULT:      -8.2      3.852      7.251
REMARK  5 active torsions:
REMARK  status: ('A' for Active; 'I' for Inactive)
REMARK    1  A    between atoms: O_2  and  C_3 
REMARK    2  A    between atoms: C_16  and  C_17 
REMARK    3  A    between atoms: C_19  and  O_20 
REMARK    4  A    between atoms: C_22  and  O_23 
REMARK    5  A    between atoms: O_23  and  C_24 
ROOT
HETATM    1  C   UNL     1      29.723  44.945  56.279  1.00  0.00     0.069 A 
HETATM    2  C   UNL     1      28.562  45.318  55.588  1.00  0.00     0.051 A 
HETATM    3  C   UNL     1      28.336  44.839  54.285  1.00  0.00     0.002 A 
HETATM    4  C   UNL     1      29.288  44.000  53.705  1.00  0.00     0.043 A 
HETATM    5  N   UNL     1      28.845  43.671  52.442  1.00  0.00    -0.356 N 
HETATM    6  H   UNL     1      29.350  43.061  51.809  1.00  0.00     0.166 HD
HETATM    7  C   UNL     1      27.618  44.244  52.223  1.00  0.00     0.052 A 
HETATM    8  C   UNL     1      27.294  44.999  53.334  1.00  0.00    -0.019 A 
HETATM    9  C   UNL     1      26.025  45.778  53.422  1.00  0.00     0.069 C 
HETATM   10  C   UNL     1      25.400  45.943  52.025  1.00  0.00     0.238 C 
HETATM   11  N   UNL     1      25.412  44.634  51.274  1.00  0.00    -0.061 N 
HETATM   12  H   UNL     1      24.917  43.925  51.826  1.00  0.00     0.278 HD
HETATM   13  H   UNL     1      24.903  44.715  50.388  1.00  0.00     0.278 HD
HETATM   14  C   UNL     1      26.793  44.099  50.988  1.00  0.00     0.269 C 
HETATM   15  C   UNL     1      30.457  43.619  54.373  1.00  0.00     0.033 A 
HETATM   16  C   UNL     1      30.656  44.106  55.673  1.00  0.00     0.039 A 
ENDROOT
BRANCH  14  17
HETATM   17  C   UNL     1      26.695  42.680  50.466  1.00  0.00    -0.019 A 
HETATM   18  C   UNL     1      26.698  42.406  49.085  1.00  0.00     0.049 A 
HETATM   19  C   UNL     1      26.624  41.091  48.613  1.00  0.00     0.102 A 
HETATM   20  C   UNL     1      26.574  40.021  49.523  1.00  0.00     0.102 A 
HETATM   21  C   UNL     1      26.598  40.286  50.893  1.00  0.00     0.040 A 
HETATM   22  C   UNL     1      26.654  41.603  51.362  1.00  0.00     0.012 A 
BRANCH  19  23
HETATM   23  O   UNL     1      26.633  40.765  47.281  1.00  0.00    -0.353 OA
HETATM   24  C   UNL     1      27.805  41.086  46.541  1.00  0.00     0.210 C 
ENDBRANCH  19  23
BRANCH  20  25
HETATM   25  O   UNL     1      26.518  38.769  48.973  1.00  0.00    -0.343 OA
BRANCH  25  26
HETATM   26  C   UNL     1      27.703  37.984  48.894  1.00  0.00     0.129 C 
HETATM   27  C   UNL     1      28.978  38.823  48.977  1.00  0.00     0.032 C 
HETATM   28  C   UNL     1      30.000  37.847  49.527  1.00  0.00     0.002 C 
HETATM   29  C   UNL     1      29.229  37.106  50.608  1.00  0.00     0.002 C 
HETATM   30  C   UNL     1      27.777  37.076  50.133  1.00  0.00     0.032 C 
ENDBRANCH  25  26
ENDBRANCH  20  25
ENDBRANCH  14  17
BRANCH   1  31
HETATM   31  O   UNL     1      29.817  45.471  57.539  1.00  0.00    -0.356 OA
HETATM   32  C   UNL     1      30.912  45.042  58.341  1.00  0.00     0.210 C 
ENDBRANCH   1  31
TORSDOF 5
ENDMDL
MODEL 10
REMARK VINA RESULT:      -8.1      2.855      4.797
REMARK  5 active torsions:
REMARK  status: ('A' for Active; 'I' for Inactive)
REMARK    1  A    between atoms: O_2  and  C_3 
REMARK    2  A    between atoms: C_16  and  C_17 
REMARK    3  A    between atoms: C_19  and  O_20 
REMARK    4  A    between atoms: C_22  and  O_23 
REMARK    5  A    between atoms: O_23  and  C_24 
ROOT
HETATM    1  C   UNL     1      26.891  39.768  49.609  1.00  0.00     0.069 A 
HETATM    2  C   UNL     1      26.865  40.618  50.723  1.00  0.00     0.051 A 
HETATM    3  C   UNL     1      26.845  42.013  50.542  1.00  0.00     0.002 A 
HETATM    4  C   UNL     1      26.859  42.520  49.242  1.00  0.00     0.043 A 
HETATM    5  N   UNL     1      26.836  43.895  49.327  1.00  0.00    -0.356 N 
HETATM    6  H   UNL     1      26.831  44.510  48.520  1.00  0.00     0.166 HD
HETATM    7  C   UNL     1      26.766  44.272  50.644  1.00  0.00     0.052 A 
HETATM    8  C   UNL     1      26.802  43.128  51.419  1.00  0.00    -0.019 A 
HETATM    9  C   UNL     1      26.763  43.177  52.909  1.00  0.00     0.069 C 
HETATM   10  C   UNL     1      27.090  44.597  53.407  1.00  0.00     0.238 C 
HETATM   11  N   UNL     1      26.331  45.632  52.615  1.00  0.00    -0.061 N 
HETATM   12  H   UNL     1      25.327  45.434  52.677  1.00  0.00     0.278 HD
HETATM   13  H   UNL     1      26.465  46.568  53.011  1.00  0.00     0.278 HD
HETATM   14  C   UNL     1      26.690  45.674  51.150  1.00  0.00     0.269 C 
HETATM   15  C   UNL     1      26.891  41.691  48.115  1.00  0.00     0.033 A 
HETATM   16  C   UNL     1      26.905  40.305  48.323  1.00  0.00     0.039 A 
ENDROOT
BRANCH  14  17
HETATM   17  C   UNL     1      25.708  46.554  50.406  1.00  0.00    -0.019 A 
HETATM   18  C   UNL     1      26.096  47.800  49.877  1.00  0.00     0.049 A 
HETATM   19  C   UNL     1      25.185  48.599  49.177  1.00  0.00     0.102 A 
HETATM   20  C   UNL     1      23.869  48.147  48.970  1.00  0.00     0.102 A 
HETATM   21  C   UNL     1      23.488  46.900  49.468  1.00  0.00     0.040 A 
HETATM   22  C   UNL     1      24.396  46.112  50.183  1.00  0.00     0.012 A 
BRANCH  19  23
HETATM   23  O   UNL     1      25.509  49.815  48.632  1.00  0.00    -0.353 OA
HETATM   24  C   UNL     1      26.891  50.100  48.454  1.00  0.00     0.210 C 
ENDBRANCH  19  23
BRANCH  20  25
HETATM   25  O   UNL     1      23.052  48.986  48.262  1.00  0.00    -0.343 OA
BRANCH  25  26
HETATM   26  C   UNL     1      21.831  49.431  48.844  1.00  0.00     0.129 C 
HETATM   27  C   UNL     1      22.041  50.478  49.937  1.00  0.00     0.032 C 
HETATM   28  C   UNL     1      20.736  51.251  49.932  1.00  0.00     0.002 C 
HETATM   29  C   UNL     1      20.431  51.412  48.451  1.00  0.00     0.002 C 
HETATM   30  C   UNL     1      21.016  50.174  47.773  1.00  0.00     0.032 C 
ENDBRANCH  25  26
ENDBRANCH  20  25
ENDBRANCH  14  17
BRANCH   1  31
HETATM   31  O   UNL     1      26.898  38.435  49.923  1.00  0.00    -0.356 OA
HETATM   32  C   UNL     1      28.073  37.700  49.595  1.00  0.00     0.210 C 
ENDBRANCH   1  31
TORSDOF 5
ENDMDL
