MODEL 1
REMARK VINA RESULT:      -9.3      0.000      0.000
REMARK  3 active torsions:
REMARK  status: ('A' for Active; 'I' for Inactive)
REMARK    1  A    between atoms: C_2  and  C_3 
REMARK    2  A    between atoms: C_10  and  O_11 
REMARK    3  A    between atoms: C_10  and  C_12 
ROOT
HETATM    1  C   UNL     1      26.534  48.025  49.545  1.00  0.00    -0.058 A 
HETATM    2  C   UNL     1      26.966  46.818  50.117  1.00  0.00     0.020 A 
HETATM    3  C   UNL     1      26.014  45.894  50.525  1.00  0.00     0.018 A 
HETATM    4  C   UNL     1      24.657  46.159  50.347  1.00  0.00     0.045 A 
HETATM    5  N   UNL     1      23.891  45.098  50.805  1.00  0.00    -0.323 N 
HETATM    6  C   UNL     1      24.690  44.078  51.326  1.00  0.00     0.266 A 
HETATM    7  O   UNL     1      24.252  43.030  51.777  1.00  0.00    -0.269 OA
HETATM    8  C   UNL     1      26.187  44.526  51.154  1.00  0.00     0.199 A 
HETATM    9  C   UNL     1      24.197  47.331  49.787  1.00  0.00     0.031 A 
HETATM   10  C   UNL     1      25.151  48.273  49.390  1.00  0.00     0.009 A 
HETATM   11  H   UNL     1      22.884  45.044  50.793  1.00  0.00     0.169 HD
ENDROOT
BRANCH   8  12
HETATM   12  O   UNL     1      26.862  43.667  50.241  1.00  0.00    -0.371 OA
HETATM   13  H   UNL     1      26.669  42.758  50.524  1.00  0.00     0.212 HD
ENDBRANCH   8  12
BRANCH   8  14
HETATM   14  C   UNL     1      26.923  44.749  52.460  1.00  0.00     0.025 A 
HETATM   15  C   UNL     1      28.101  44.030  52.900  1.00  0.00     0.003 A 
HETATM   16  C   UNL     1      28.494  44.560  54.127  1.00  0.00     0.043 A 
HETATM   17  C   UNL     1      28.881  42.982  52.360  1.00  0.00     0.014 A 
HETATM   18  C   UNL     1      29.615  44.108  54.836  1.00  0.00     0.030 A 
HETATM   19  N   UNL     1      27.596  45.546  54.445  1.00  0.00    -0.359 N 
HETATM   20  C   UNL     1      30.366  43.073  54.273  1.00  0.00     0.002 A 
HETATM   21  C   UNL     1      30.005  42.514  53.053  1.00  0.00     0.001 A 
HETATM   22  H   UNL     1      27.639  46.095  55.291  1.00  0.00     0.166 HD
HETATM   23  C   UNL     1      26.657  45.692  53.456  1.00  0.00     0.016 A 
HETATM   24  C   UNL     1      25.604  46.737  53.581  1.00  0.00     0.069 C 
ENDBRANCH   8  14
BRANCH   1  25
HETATM   25  C   UNL     1      27.545  49.067  49.133  1.00  0.00     0.034 C 
HETATM   26  C   UNL     1      26.894  50.218  48.382  1.00  0.00     0.010 C 
ENDBRANCH   1  25
TORSDOF 3
ENDMDL
MODEL 2
REMARK VINA RESULT:      -8.7      1.110      2.463
REMARK  3 active torsions:
REMARK  status: ('A' for Active; 'I' for Inactive)
REMARK    1  A    between atoms: C_2  and  C_3 
REMARK    2  A    between atoms: C_10  and  O_11 
REMARK    3  A    between atoms: C_10  and  C_12 
ROOT
HETATM    1  C   UNL     1      26.482  47.933  49.446  1.00  0.00    -0.058 A 
HETATM    2  C   UNL     1      26.877  46.648  49.850  1.00  0.00     0.020 A 
HETATM    3  C   UNL     1      25.904  45.755  50.275  1.00  0.00     0.018 A 
HETATM    4  C   UNL     1      24.560  46.128  50.279  1.00  0.00     0.045 A 
HETATM    5  N   UNL     1      23.766  45.081  50.721  1.00  0.00    -0.323 N 
HETATM    6  C   UNL     1      24.534  43.961  51.049  1.00  0.00     0.266 A 
HETATM    7  O   UNL     1      24.065  42.905  51.448  1.00  0.00    -0.269 OA
HETATM    8  C   UNL     1      26.035  44.321  50.750  1.00  0.00     0.199 A 
HETATM    9  C   UNL     1      24.137  47.380  49.887  1.00  0.00     0.031 A 
HETATM   10  C   UNL     1      25.115  48.289  49.474  1.00  0.00     0.009 A 
HETATM   11  H   UNL     1      22.763  45.097  50.818  1.00  0.00     0.169 HD
ENDROOT
BRANCH   8  12
HETATM   12  O   UNL     1      26.538  43.515  49.689  1.00  0.00    -0.371 OA
HETATM   13  H   UNL     1      25.918  42.774  49.589  1.00  0.00     0.212 HD
ENDBRANCH   8  12
BRANCH   8  14
HETATM   14  C   UNL     1      26.922  44.360  51.978  1.00  0.00     0.025 A 
HETATM   15  C   UNL     1      26.892  45.375  53.010  1.00  0.00     0.003 A 
HETATM   16  C   UNL     1      27.827  45.026  53.982  1.00  0.00     0.043 A 
HETATM   17  C   UNL     1      26.143  46.556  53.217  1.00  0.00     0.014 A 
HETATM   18  C   UNL     1      28.051  45.783  55.140  1.00  0.00     0.030 A 
HETATM   19  N   UNL     1      28.424  43.864  53.567  1.00  0.00    -0.359 N 
HETATM   20  C   UNL     1      27.292  46.943  55.315  1.00  0.00     0.002 A 
HETATM   21  C   UNL     1      26.352  47.327  54.367  1.00  0.00     0.001 A 
HETATM   22  H   UNL     1      29.150  43.388  54.083  1.00  0.00     0.166 HD
HETATM   23  C   UNL     1      27.888  43.434  52.381  1.00  0.00     0.016 A 
HETATM   24  C   UNL     1      28.367  42.165  51.766  1.00  0.00     0.069 C 
ENDBRANCH   8  14
BRANCH   1  25
HETATM   25  C   UNL     1      27.523  48.940  49.020  1.00  0.00     0.034 C 
HETATM   26  C   UNL     1      26.891  50.169  48.384  1.00  0.00     0.010 C 
ENDBRANCH   1  25
TORSDOF 3
ENDMDL
MODEL 3
REMARK VINA RESULT:      -8.3      1.692      2.972
REMARK  3 active torsions:
REMARK  status: ('A' for Active; 'I' for Inactive)
REMARK    1  A    between atoms: C_2  and  C_3 
REMARK    2  A    between atoms: C_10  and  O_11 
REMARK    3  A    between atoms: C_10  and  C_12 
ROOT
HETATM    1  C   UNL     1      26.811  46.638  50.488  1.00  0.00    -0.058 A 
HETATM    2  C   UNL     1      26.936  45.318  50.947  1.00  0.00     0.020 A 
HETATM    3  C   UNL     1      26.407  44.990  52.188  1.00  0.00     0.018 A 
HETATM    4  C   UNL     1      25.748  45.955  52.948  1.00  0.00     0.045 A 
HETATM    5  N   UNL     1      25.288  45.407  54.135  1.00  0.00    -0.323 N 
HETATM    6  C   UNL     1      25.625  44.056  54.239  1.00  0.00     0.266 A 
HETATM    7  O   UNL     1      25.318  43.346  55.185  1.00  0.00    -0.269 OA
HETATM    8  C   UNL     1      26.386  43.663  52.920  1.00  0.00     0.199 A 
HETATM    9  C   UNL     1      25.606  47.260  52.528  1.00  0.00     0.031 A 
HETATM   10  C   UNL     1      26.151  47.600  51.286  1.00  0.00     0.009 A 
HETATM   11  H   UNL     1      24.784  45.897  54.859  1.00  0.00     0.169 HD
ENDROOT
BRANCH   8  12
HETATM   12  O   UNL     1      25.626  42.720  52.170  1.00  0.00    -0.371 OA
HETATM   13  H   UNL     1      25.025  42.289  52.799  1.00  0.00     0.212 HD
ENDBRANCH   8  12
BRANCH   8  14
HETATM   14  C   UNL     1      27.834  43.271  53.131  1.00  0.00     0.025 A 
HETATM   15  C   UNL     1      28.717  43.810  54.145  1.00  0.00     0.003 A 
HETATM   16  C   UNL     1      29.944  43.160  54.034  1.00  0.00     0.043 A 
HETATM   17  C   UNL     1      28.581  44.784  55.160  1.00  0.00     0.014 A 
HETATM   18  C   UNL     1      31.032  43.426  54.876  1.00  0.00     0.030 A 
HETATM   19  N   UNL     1      29.839  42.277  52.992  1.00  0.00    -0.359 N 
HETATM   20  C   UNL     1      30.865  44.392  55.871  1.00  0.00     0.002 A 
HETATM   21  C   UNL     1      29.657  45.065  56.012  1.00  0.00     0.001 A 
HETATM   22  H   UNL     1      30.590  41.675  52.685  1.00  0.00     0.166 HD
HETATM   23  C   UNL     1      28.581  42.309  52.446  1.00  0.00     0.016 A 
HETATM   24  C   UNL     1      28.237  41.398  51.320  1.00  0.00     0.069 C 
ENDBRANCH   8  14
BRANCH   1  25
HETATM   25  C   UNL     1      27.414  47.034  49.162  1.00  0.00     0.034 C 
HETATM   26  C   UNL     1      27.637  48.536  49.070  1.00  0.00     0.010 C 
ENDBRANCH   1  25
TORSDOF 3
ENDMDL
MODEL 4
REMARK VINA RESULT:      -8.1     11.883     13.443
REMARK  3 active torsions:
REMARK  status: ('A' for Active; 'I' for Inactive)
REMARK    1  A    between atoms: C_2  and  C_3 
REMARK    2  A    between atoms: C_10  and  O_11 
REMARK    3  A    between atoms: C_10  and  C_12 
ROOT
HETATM    1  C   UNL     1      28.492  48.462  40.045  1.00  0.00    -0.058 A 
HETATM    2  C   UNL     1      29.124  49.464  40.799  1.00  0.00     0.020 A 
HETATM    3  C   UNL     1      29.067  50.775  40.346  1.00  0.00     0.018 A 
HETATM    4  C   UNL     1      28.375  51.085  39.176  1.00  0.00     0.045 A 
HETATM    5  N   UNL     1      28.433  52.448  38.925  1.00  0.00    -0.323 N 
HETATM    6  C   UNL     1      29.175  53.116  39.901  1.00  0.00     0.266 A 
HETATM    7  O   UNL     1      29.357  54.325  39.912  1.00  0.00    -0.269 OA
HETATM    8  C   UNL     1      29.639  52.042  40.951  1.00  0.00     0.199 A 
HETATM    9  C   UNL     1      27.742  50.128  38.413  1.00  0.00     0.031 A 
HETATM   10  C   UNL     1      27.810  48.804  38.855  1.00  0.00     0.009 A 
HETATM   11  H   UNL     1      28.016  52.924  38.140  1.00  0.00     0.169 HD
ENDROOT
BRANCH   8  12
HETATM   12  O   UNL     1      29.027  52.283  42.214  1.00  0.00    -0.371 OA
HETATM   13  H   UNL     1      28.109  52.539  42.030  1.00  0.00     0.212 HD
ENDBRANCH   8  12
BRANCH   8  14
HETATM   14  C   UNL     1      31.140  51.842  41.013  1.00  0.00     0.025 A 
HETATM   15  C   UNL     1      31.946  51.856  42.217  1.00  0.00     0.003 A 
HETATM   16  C   UNL     1      33.264  51.592  41.853  1.00  0.00     0.043 A 
HETATM   17  C   UNL     1      31.672  52.054  43.589  1.00  0.00     0.014 A 
HETATM   18  C   UNL     1      34.314  51.513  42.778  1.00  0.00     0.030 A 
HETATM   19  N   UNL     1      33.284  51.442  40.491  1.00  0.00    -0.359 N 
HETATM   20  C   UNL     1      34.010  51.711  44.126  1.00  0.00     0.002 A 
HETATM   21  C   UNL     1      32.707  51.980  44.529  1.00  0.00     0.001 A 
HETATM   22  H   UNL     1      34.119  51.249  39.957  1.00  0.00     0.166 HD
HETATM   23  C   UNL     1      32.024  51.569  39.966  1.00  0.00     0.016 A 
HETATM   24  C   UNL     1      31.810  51.404  38.501  1.00  0.00     0.069 C 
ENDBRANCH   8  14
BRANCH   1  25
HETATM   25  C   UNL     1      28.574  47.022  40.489  1.00  0.00     0.034 C 
HETATM   26  C   UNL     1      29.385  46.178  39.517  1.00  0.00     0.010 C 
ENDBRANCH   1  25
TORSDOF 3
ENDMDL
MODEL 5
REMARK VINA RESULT:      -7.9      6.585      9.207
REMARK  3 active torsions:
REMARK  status: ('A' for Active; 'I' for Inactive)
REMARK    1  A    between atoms: C_2  and  C_3 
REMARK    2  A    between atoms: C_10  and  O_11 
REMARK    3  A    between atoms: C_10  and  C_12 
ROOT
HETATM    1  C   UNL     1      18.221  50.694  45.908  1.00  0.00    -0.058 A 
HETATM    2  C   UNL     1      18.552  49.578  46.692  1.00  0.00     0.020 A 
HETATM    3  C   UNL     1      18.539  49.705  48.074  1.00  0.00     0.018 A 
HETATM    4  C   UNL     1      18.182  50.917  48.664  1.00  0.00     0.045 A 
HETATM    5  N   UNL     1      18.220  50.813  50.046  1.00  0.00    -0.323 N 
HETATM    6  C   UNL     1      18.615  49.537  50.453  1.00  0.00     0.266 A 
HETATM    7  O   UNL     1      18.709  49.190  51.621  1.00  0.00    -0.269 OA
HETATM    8  C   UNL     1      18.837  48.682  49.152  1.00  0.00     0.199 A 
HETATM    9  C   UNL     1      17.850  52.032  47.926  1.00  0.00     0.031 A 
HETATM   10  C   UNL     1      17.878  51.914  46.533  1.00  0.00     0.009 A 
HETATM   11  H   UNL     1      18.008  51.549  50.702  1.00  0.00     0.169 HD
ENDROOT
BRANCH   8  12
HETATM   12  O   UNL     1      17.883  47.627  49.081  1.00  0.00    -0.371 OA
HETATM   13  H   UNL     1      17.266  47.862  48.369  1.00  0.00     0.212 HD
ENDBRANCH   8  12
BRANCH   8  14
HETATM   14  C   UNL     1      20.271  48.242  48.935  1.00  0.00     0.025 A 
HETATM   15  C   UNL     1      21.426  49.114  48.896  1.00  0.00     0.003 A 
HETATM   16  C   UNL     1      22.558  48.320  48.720  1.00  0.00     0.043 A 
HETATM   17  C   UNL     1      21.618  50.510  49.009  1.00  0.00     0.014 A 
HETATM   18  C   UNL     1      23.858  48.839  48.655  1.00  0.00     0.030 A 
HETATM   19  N   UNL     1      22.128  47.022  48.633  1.00  0.00    -0.359 N 
HETATM   20  C   UNL     1      24.013  50.222  48.773  1.00  0.00     0.002 A 
HETATM   21  C   UNL     1      22.909  51.049  48.946  1.00  0.00     0.001 A 
HETATM   22  H   UNL     1      22.743  46.233  48.496  1.00  0.00     0.166 HD
HETATM   23  C   UNL     1      20.766  46.945  48.777  1.00  0.00     0.016 A 
HETATM   24  C   UNL     1      20.091  45.618  48.751  1.00  0.00     0.069 C 
ENDBRANCH   8  14
BRANCH   1  25
HETATM   25  C   UNL     1      18.269  50.597  44.402  1.00  0.00     0.034 C 
HETATM   26  C   UNL     1      17.517  51.742  43.740  1.00  0.00     0.010 C 
ENDBRANCH   1  25
TORSDOF 3
ENDMDL
MODEL 6
REMARK VINA RESULT:      -7.8     11.400     13.589
REMARK  3 active torsions:
REMARK  status: ('A' for Active; 'I' for Inactive)
REMARK    1  A    between atoms: C_2  and  C_3 
REMARK    2  A    between atoms: C_10  and  O_11 
REMARK    3  A    between atoms: C_10  and  C_12 
ROOT
HETATM    1  C   UNL     1      29.026  49.343  40.865  1.00  0.00    -0.058 A 
HETATM    2  C   UNL     1      29.771  50.186  41.705  1.00  0.00     0.020 A 
HETATM    3  C   UNL     1      30.103  51.455  41.251  1.00  0.00     0.018 A 
HETATM    4  C   UNL     1      29.683  51.883  39.992  1.00  0.00     0.045 A 
HETATM    5  N   UNL     1      30.109  53.181  39.754  1.00  0.00    -0.323 N 
HETATM    6  C   UNL     1      30.845  53.683  40.829  1.00  0.00     0.266 A 
HETATM    7  O   UNL     1      31.315  54.811  40.868  1.00  0.00    -0.269 OA
HETATM    8  C   UNL     1      30.877  52.565  41.934  1.00  0.00     0.199 A 
HETATM    9  C   UNL     1      28.949  51.083  39.143  1.00  0.00     0.031 A 
HETATM   10  C   UNL     1      28.626  49.798  39.589  1.00  0.00     0.009 A 
HETATM   11  H   UNL     1      29.938  53.717  38.917  1.00  0.00     0.169 HD
ENDROOT
BRANCH   8  12
HETATM   12  O   UNL     1      30.170  52.991  43.094  1.00  0.00    -0.371 OA
HETATM   13  H   UNL     1      30.486  52.439  43.828  1.00  0.00     0.212 HD
ENDBRANCH   8  12
BRANCH   8  14
HETATM   14  C   UNL     1      32.258  52.009  42.215  1.00  0.00     0.025 A 
HETATM   15  C   UNL     1      33.267  51.707  41.221  1.00  0.00     0.003 A 
HETATM   16  C   UNL     1      34.405  51.258  41.887  1.00  0.00     0.043 A 
HETATM   17  C   UNL     1      33.322  51.787  39.811  1.00  0.00     0.014 A 
HETATM   18  C   UNL     1      35.587  50.893  41.228  1.00  0.00     0.030 A 
HETATM   19  N   UNL     1      34.115  51.261  43.226  1.00  0.00    -0.359 N 
HETATM   20  C   UNL     1      35.610  50.986  39.834  1.00  0.00     0.002 A 
HETATM   21  C   UNL     1      34.493  51.426  39.132  1.00  0.00     0.001 A 
HETATM   22  H   UNL     1      34.764  50.973  43.944  1.00  0.00     0.166 HD
HETATM   23  C   UNL     1      32.844  51.723  43.452  1.00  0.00     0.016 A 
HETATM   24  C   UNL     1      32.334  51.843  44.845  1.00  0.00     0.069 C 
ENDBRANCH   8  14
BRANCH   1  25
HETATM   25  C   UNL     1      28.688  47.942  41.315  1.00  0.00     0.034 C 
HETATM   26  C   UNL     1      29.100  46.904  40.282  1.00  0.00     0.010 C 
ENDBRANCH   1  25
TORSDOF 3
ENDMDL
MODEL 7
REMARK VINA RESULT:      -7.6     11.381     12.955
REMARK  3 active torsions:
REMARK  status: ('A' for Active; 'I' for Inactive)
REMARK    1  A    between atoms: C_2  and  C_3 
REMARK    2  A    between atoms: C_10  and  O_11 
REMARK    3  A    between atoms: C_10  and  C_12 
ROOT
HETATM    1  C   UNL     1      31.739  51.260  42.457  1.00  0.00    -0.058 A 
HETATM    2  C   UNL     1      31.124  50.353  41.579  1.00  0.00     0.020 A 
HETATM    3  C   UNL     1      30.434  50.851  40.482  1.00  0.00     0.018 A 
HETATM    4  C   UNL     1      30.376  52.225  40.253  1.00  0.00     0.045 A 
HETATM    5  N   UNL     1      29.656  52.495  39.099  1.00  0.00    -0.323 N 
HETATM    6  C   UNL     1      29.184  51.322  38.505  1.00  0.00     0.266 A 
HETATM    7  O   UNL     1      28.537  51.294  37.469  1.00  0.00    -0.269 OA
HETATM    8  C   UNL     1      29.695  50.119  39.380  1.00  0.00     0.199 A 
HETATM    9  C   UNL     1      30.969  53.143  41.093  1.00  0.00     0.031 A 
HETATM   10  C   UNL     1      31.651  52.648  42.208  1.00  0.00     0.009 A 
HETATM   11  H   UNL     1      29.467  53.409  38.718  1.00  0.00     0.169 HD
ENDROOT
BRANCH   8  12
HETATM   12  O   UNL     1      30.614  49.322  38.641  1.00  0.00    -0.371 OA
HETATM   13  H   UNL     1      31.090  48.778  39.289  1.00  0.00     0.212 HD
ENDBRANCH   8  12
BRANCH   8  14
HETATM   14  C   UNL     1      28.592  49.332  40.058  1.00  0.00     0.025 A 
HETATM   15  C   UNL     1      28.446  47.891  40.037  1.00  0.00     0.003 A 
HETATM   16  C   UNL     1      27.336  47.561  40.812  1.00  0.00     0.043 A 
HETATM   17  C   UNL     1      29.166  46.831  39.440  1.00  0.00     0.014 A 
HETATM   18  C   UNL     1      26.913  46.242  41.024  1.00  0.00     0.030 A 
HETATM   19  N   UNL     1      26.806  48.736  41.276  1.00  0.00    -0.359 N 
HETATM   20  C   UNL     1      27.647  45.218  40.422  1.00  0.00     0.002 A 
HETATM   21  C   UNL     1      28.759  45.506  39.638  1.00  0.00     0.001 A 
HETATM   22  H   UNL     1      25.985  48.792  41.862  1.00  0.00     0.166 HD
HETATM   23  C   UNL     1      27.548  49.810  40.855  1.00  0.00     0.016 A 
HETATM   24  C   UNL     1      27.169  51.186  41.277  1.00  0.00     0.069 C 
ENDBRANCH   8  14
BRANCH   1  25
HETATM   25  C   UNL     1      32.459  50.750  43.682  1.00  0.00     0.034 C 
HETATM   26  C   UNL     1      32.887  51.886  44.598  1.00  0.00     0.010 C 
ENDBRANCH   1  25
TORSDOF 3
ENDMDL
MODEL 8
REMARK VINA RESULT:      -7.6     12.124     14.023
REMARK  3 active torsions:
REMARK  status: ('A' for Active; 'I' for Inactive)
REMARK    1  A    between atoms: C_2  and  C_3 
REMARK    2  A    between atoms: C_10  and  O_11 
REMARK    3  A    between atoms: C_10  and  C_12 
ROOT
HETATM    1  C   UNL     1      28.810  49.449  40.749  1.00  0.00    -0.058 A 
HETATM    2  C   UNL     1      30.000  50.061  41.172  1.00  0.00     0.020 A 
HETATM    3  C   UNL     1      30.171  51.419  40.939  1.00  0.00     0.018 A 
HETATM    4  C   UNL     1      29.165  52.157  40.317  1.00  0.00     0.045 A 
HETATM    5  N   UNL     1      29.538  53.488  40.203  1.00  0.00    -0.323 N 
HETATM    6  C   UNL     1      30.813  53.707  40.729  1.00  0.00     0.266 A 
HETATM    7  O   UNL     1      31.359  54.800  40.763  1.00  0.00    -0.269 OA
HETATM    8  C   UNL     1      31.329  52.332  41.289  1.00  0.00     0.199 A 
HETATM    9  C   UNL     1      27.983  51.589  39.891  1.00  0.00     0.031 A 
HETATM   10  C   UNL     1      27.814  50.218  40.108  1.00  0.00     0.009 A 
HETATM   11  H   UNL     1      28.988  54.224  39.788  1.00  0.00     0.169 HD
ENDROOT
BRANCH   8  12
HETATM   12  O   UNL     1      31.472  52.394  42.705  1.00  0.00    -0.371 OA
HETATM   13  H   UNL     1      31.202  51.526  43.047  1.00  0.00     0.212 HD
ENDBRANCH   8  12
BRANCH   8  14
HETATM   14  C   UNL     1      32.539  51.780  40.564  1.00  0.00     0.025 A 
HETATM   15  C   UNL     1      33.815  51.458  41.170  1.00  0.00     0.003 A 
HETATM   16  C   UNL     1      34.642  50.938  40.178  1.00  0.00     0.043 A 
HETATM   17  C   UNL     1      34.339  51.547  42.480  1.00  0.00     0.014 A 
HETATM   18  C   UNL     1      35.952  50.503  40.421  1.00  0.00     0.030 A 
HETATM   19  N   UNL     1      33.928  50.954  39.009  1.00  0.00    -0.359 N 
HETATM   20  C   UNL     1      36.440  50.602  41.726  1.00  0.00     0.002 A 
HETATM   21  C   UNL     1      35.646  51.119  42.744  1.00  0.00     0.001 A 
HETATM   22  H   UNL     1      34.291  50.637  38.122  1.00  0.00     0.166 HD
HETATM   23  C   UNL     1      32.660  51.435  39.215  1.00  0.00     0.016 A 
HETATM   24  C   UNL     1      31.699  51.505  38.081  1.00  0.00     0.069 C 
ENDBRANCH   8  14
BRANCH   1  25
HETATM   25  C   UNL     1      28.616  47.965  40.949  1.00  0.00     0.034 C 
HETATM   26  C   UNL     1      29.560  47.151  40.078  1.00  0.00     0.010 C 
ENDBRANCH   1  25
TORSDOF 3
ENDMDL
MODEL 9
REMARK VINA RESULT:      -7.5      7.178     10.669
REMARK  3 active torsions:
REMARK  status: ('A' for Active; 'I' for Inactive)
REMARK    1  A    between atoms: C_2  and  C_3 
REMARK    2  A    between atoms: C_10  and  O_11 
REMARK    3  A    between atoms: C_10  and  C_12 
ROOT
HETATM    1  C   UNL     1      22.465  49.717  48.811  1.00  0.00    -0.058 A 
HETATM    2  C   UNL     1      21.183  50.206  49.107  1.00  0.00     0.020 A 
HETATM    3  C   UNL     1      20.106  49.331  49.053  1.00  0.00     0.018 A 
HETATM    4  C   UNL     1      20.307  47.989  48.732  1.00  0.00     0.045 A 
HETATM    5  N   UNL     1      19.105  47.299  48.755  1.00  0.00    -0.323 N 
HETATM    6  C   UNL     1      18.039  48.141  49.079  1.00  0.00     0.266 A 
HETATM    7  O   UNL     1      16.879  47.767  49.179  1.00  0.00    -0.269 OA
HETATM    8  C   UNL     1      18.636  49.574  49.329  1.00  0.00     0.199 A 
HETATM    9  C   UNL     1      21.552  47.475  48.438  1.00  0.00     0.031 A 
HETATM   10  C   UNL     1      22.637  48.356  48.473  1.00  0.00     0.009 A 
HETATM   11  H   UNL     1      18.980  46.318  48.556  1.00  0.00     0.169 HD
ENDROOT
BRANCH   8  12
HETATM   12  O   UNL     1      18.466  49.952  50.692  1.00  0.00    -0.371 OA
HETATM   13  H   UNL     1      17.932  50.763  50.687  1.00  0.00     0.212 HD
ENDBRANCH   8  12
BRANCH   8  14
HETATM   14  C   UNL     1      18.183  50.619  48.331  1.00  0.00     0.025 A 
HETATM   15  C   UNL     1      18.172  50.464  46.891  1.00  0.00     0.003 A 
HETATM   16  C   UNL     1      17.647  51.630  46.338  1.00  0.00     0.043 A 
HETATM   17  C   UNL     1      18.547  49.430  46.003  1.00  0.00     0.014 A 
HETATM   18  C   UNL     1      17.475  51.817  44.960  1.00  0.00     0.030 A 
HETATM   19  N   UNL     1      17.365  52.477  47.378  1.00  0.00    -0.359 N 
HETATM   20  C   UNL     1      17.852  50.775  44.110  1.00  0.00     0.002 A 
HETATM   21  C   UNL     1      18.383  49.596  44.622  1.00  0.00     0.001 A 
HETATM   22  H   UNL     1      16.979  53.403  47.262  1.00  0.00     0.166 HD
HETATM   23  C   UNL     1      17.659  51.890  48.582  1.00  0.00     0.016 A 
HETATM   24  C   UNL     1      17.394  52.624  49.850  1.00  0.00     0.069 C 
ENDBRANCH   8  14
BRANCH   1  25
HETATM   25  C   UNL     1      23.647  50.655  48.818  1.00  0.00     0.034 C 
HETATM   26  C   UNL     1      24.805  50.108  47.997  1.00  0.00     0.010 C 
ENDBRANCH   1  25
TORSDOF 3
ENDMDL
MODEL 10
REMARK VINA RESULT:      -7.4     12.183     13.542
REMARK  3 active torsions:
REMARK  status: ('A' for Active; 'I' for Inactive)
REMARK    1  A    between atoms: C_2  and  C_3 
REMARK    2  A    between atoms: C_10  and  O_11 
REMARK    3  A    between atoms: C_10  and  C_12 
ROOT
HETATM    1  C   UNL     1      28.212  47.428  38.446  1.00  0.00    -0.058 A 
HETATM    2  C   UNL     1      28.887  48.233  39.377  1.00  0.00     0.020 A 
HETATM    3  C   UNL     1      28.271  49.391  39.830  1.00  0.00     0.018 A 
HETATM    4  C   UNL     1      26.995  49.730  39.380  1.00  0.00     0.045 A 
HETATM    5  N   UNL     1      26.568  50.908  39.973  1.00  0.00    -0.323 N 
HETATM    6  C   UNL     1      27.536  51.425  40.837  1.00  0.00     0.266 A 
HETATM    7  O   UNL     1      27.391  52.447  41.492  1.00  0.00    -0.269 OA
HETATM    8  C   UNL     1      28.751  50.428  40.827  1.00  0.00     0.199 A 
HETATM    9  C   UNL     1      26.303  48.963  38.468  1.00  0.00     0.031 A 
HETATM   10  C   UNL     1      26.926  47.805  37.996  1.00  0.00     0.009 A 
HETATM   11  H   UNL     1      25.685  51.367  39.812  1.00  0.00     0.169 HD
ENDROOT
BRANCH   8  12
HETATM   12  O   UNL     1      28.906  49.820  42.105  1.00  0.00    -0.371 OA
HETATM   13  H   UNL     1      28.020  49.776  42.498  1.00  0.00     0.212 HD
ENDBRANCH   8  12
BRANCH   8  14
HETATM   14  C   UNL     1      30.028  51.008  40.253  1.00  0.00     0.025 A 
HETATM   15  C   UNL     1      31.363  50.792  40.772  1.00  0.00     0.003 A 
HETATM   16  C   UNL     1      32.259  51.459  39.941  1.00  0.00     0.043 A 
HETATM   17  C   UNL     1      31.895  50.075  41.868  1.00  0.00     0.014 A 
HETATM   18  C   UNL     1      33.646  51.447  40.140  1.00  0.00     0.030 A 
HETATM   19  N   UNL     1      31.521  52.077  38.966  1.00  0.00    -0.359 N 
HETATM   20  C   UNL     1      34.140  50.728  41.231  1.00  0.00     0.002 A 
HETATM   21  C   UNL     1      33.278  50.051  42.086  1.00  0.00     0.001 A 
HETATM   22  H   UNL     1      31.919  52.640  38.228  1.00  0.00     0.166 HD
HETATM   23  C   UNL     1      30.184  51.808  39.118  1.00  0.00     0.016 A 
HETATM   24  C   UNL     1      29.201  52.352  38.141  1.00  0.00     0.069 C 
ENDBRANCH   8  14
BRANCH   1  25
HETATM   25  C   UNL     1      28.876  46.187  37.903  1.00  0.00     0.034 C 
HETATM   26  C   UNL     1      29.425  45.308  39.017  1.00  0.00     0.010 C 
ENDBRANCH   1  25
TORSDOF 3
ENDMDL
