MODEL 1
REMARK VINA RESULT:      -9.0      0.000      0.000
REMARK  7 active torsions:
REMARK  status: ('A' for Active; 'I' for Inactive)
REMARK    1  A    between atoms: C_2  and  C_3 
REMARK    2  A    between atoms: C_4  and  N_5 
REMARK       I    between atoms: N_5  and  C_6 
REMARK    3  A    between atoms: C_6  and  C_7 
REMARK    4  A    between atoms: C_8  and  N_9 
REMARK       I    between atoms: N_9  and  C_10 
REMARK    5  A    between atoms: C_10  and  C_11 
REMARK    6  A    between atoms: C_11  and  N_12 
REMARK    7  A    between atoms: C_25  and  C_26 
ROOT
HETATM    1  C   UNL     1      27.894  41.911  51.290  1.00  0.00     0.073 A 
HETATM    2  C   UNL     1      27.058  42.689  50.513  1.00  0.00     0.093 A 
HETATM    3  S   UNL     1      26.708  42.020  48.995  1.00  0.00    -0.075 SA
HETATM    4  C   UNL     1      27.799  40.750  49.260  1.00  0.00    -0.008 A 
HETATM    5  C   UNL     1      28.358  40.770  50.524  1.00  0.00    -0.026 A 
HETATM    6  C   UNL     1      29.225  39.644  51.014  1.00  0.00     0.041 C 
HETATM    7  C   UNL     1      29.551  38.605  49.924  1.00  0.00     0.010 C 
HETATM    8  C   UNL     1      28.459  38.359  48.842  1.00  0.00    -0.002 C 
HETATM    9  C   UNL     1      28.058  39.716  48.215  1.00  0.00     0.052 C 
ENDROOT
BRANCH   1  10
HETATM   10  C   UNL     1      28.126  42.160  52.717  1.00  0.00     0.259 C 
HETATM   11  N   UNL     1      28.775  43.350  52.975  1.00  0.00    -0.322 N 
HETATM   12  H   UNL     1      28.726  44.043  52.244  1.00  0.00     0.169 HD
HETATM   13  O   UNL     1      27.714  41.371  53.561  1.00  0.00    -0.267 OA
BRANCH  11  14
HETATM   14  C   UNL     1      29.359  43.733  54.204  1.00  0.00     0.041 A 
HETATM   15  C   UNL     1      28.906  44.891  54.871  1.00  0.00    -0.032 A 
HETATM   16  C   UNL     1      29.557  45.298  56.054  1.00  0.00     0.009 A 
HETATM   17  C   UNL     1      30.638  44.582  56.564  1.00  0.00     0.001 A 
HETATM   18  C   UNL     1      31.077  43.439  55.907  1.00  0.00     0.002 A 
HETATM   19  C   UNL     1      30.439  43.016  54.739  1.00  0.00     0.030 A 
BRANCH  15  20
HETATM   20  C   UNL     1      27.677  45.665  54.452  1.00  0.00     0.036 C 
HETATM   21  C   UNL     1      27.789  47.133  54.848  1.00  0.00     0.010 C 
ENDBRANCH  15  20
ENDBRANCH  11  14
ENDBRANCH   1  10
BRANCH   2  22
HETATM   22  N   UNL     1      26.451  43.912  50.692  1.00  0.00    -0.319 N 
HETATM   23  C   UNL     1      25.173  43.978  51.203  1.00  0.00     0.248 C 
HETATM   24  O   UNL     1      24.468  43.024  51.537  1.00  0.00    -0.271 OA
HETATM   25  H   UNL     1      27.096  44.683  50.823  1.00  0.00     0.169 HD
BRANCH  23  26
HETATM   26  C   UNL     1      24.720  45.385  51.589  1.00  0.00     0.337 C 
BRANCH  26  27
HETATM   27  N   UNL     1      25.141  46.375  50.499  1.00  0.00    -0.059 N 
HETATM   28  H   UNL     1      25.492  45.777  49.730  1.00  0.00     0.280 HD
HETATM   29  C   UNL     1      23.966  47.169  49.937  1.00  0.00     0.261 C 
HETATM   30  C   UNL     1      24.461  48.122  48.844  1.00  0.00     0.195 C 
HETATM   31  O   UNL     1      25.487  48.984  49.348  1.00  0.00    -0.388 OA
HETATM   32  C   UNL     1      26.629  48.244  49.791  1.00  0.00     0.195 C 
HETATM   33  C   UNL     1      26.259  47.299  50.940  1.00  0.00     0.261 C 
ENDBRANCH  26  27
ENDBRANCH  23  26
ENDBRANCH   2  22
BRANCH   8  34
HETATM   34  C   UNL     1      27.266  37.408  49.250  1.00  0.00    -0.047 C 
HETATM   35  C   UNL     1      26.076  38.117  49.918  1.00  0.00     0.015 C 
HETATM   36  C   UNL     1      26.722  36.658  48.011  1.00  0.00     0.015 C 
HETATM   37  C   UNL     1      27.785  36.331  50.233  1.00  0.00     0.015 C 
ENDBRANCH   8  34
TORSDOF 7
ENDMDL
MODEL 2
REMARK VINA RESULT:      -8.5      2.271      6.647
REMARK  7 active torsions:
REMARK  status: ('A' for Active; 'I' for Inactive)
REMARK    1  A    between atoms: C_2  and  C_3 
REMARK    2  A    between atoms: C_4  and  N_5 
REMARK       I    between atoms: N_5  and  C_6 
REMARK    3  A    between atoms: C_6  and  C_7 
REMARK    4  A    between atoms: C_8  and  N_9 
REMARK       I    between atoms: N_9  and  C_10 
REMARK    5  A    between atoms: C_10  and  C_11 
REMARK    6  A    between atoms: C_11  and  N_12 
REMARK    7  A    between atoms: C_25  and  C_26 
ROOT
HETATM    1  C   UNL     1      26.449  42.378  50.379  1.00  0.00     0.073 A 
HETATM    2  C   UNL     1      25.662  43.509  50.298  1.00  0.00     0.093 A 
HETATM    3  S   UNL     1      25.589  44.403  51.736  1.00  0.00    -0.075 SA
HETATM    4  C   UNL     1      26.472  43.215  52.565  1.00  0.00    -0.008 A 
HETATM    5  C   UNL     1      26.905  42.191  51.743  1.00  0.00    -0.026 A 
HETATM    6  C   UNL     1      27.837  41.126  52.248  1.00  0.00     0.041 C 
HETATM    7  C   UNL     1      28.091  41.204  53.766  1.00  0.00     0.010 C 
HETATM    8  C   UNL     1      28.081  42.624  54.404  1.00  0.00    -0.002 C 
HETATM    9  C   UNL     1      26.761  43.337  54.024  1.00  0.00     0.052 C 
ENDROOT
BRANCH   1  10
HETATM   10  C   UNL     1      26.860  41.600  49.205  1.00  0.00     0.259 C 
HETATM   11  N   UNL     1      26.559  40.257  49.295  1.00  0.00    -0.322 N 
HETATM   12  H   UNL     1      25.835  40.014  49.954  1.00  0.00     0.169 HD
HETATM   13  O   UNL     1      27.375  42.155  48.239  1.00  0.00    -0.267 OA
BRANCH  11  14
HETATM   14  C   UNL     1      27.054  39.232  48.457  1.00  0.00     0.041 A 
HETATM   15  C   UNL     1      28.296  38.624  48.740  1.00  0.00    -0.032 A 
HETATM   16  C   UNL     1      28.806  37.661  47.847  1.00  0.00     0.009 A 
HETATM   17  C   UNL     1      28.111  37.311  46.691  1.00  0.00     0.001 A 
HETATM   18  C   UNL     1      26.886  37.907  46.418  1.00  0.00     0.002 A 
HETATM   19  C   UNL     1      26.360  38.857  47.297  1.00  0.00     0.030 A 
BRANCH  15  20
HETATM   20  C   UNL     1      29.064  38.863  50.021  1.00  0.00     0.036 C 
HETATM   21  C   UNL     1      29.770  37.594  50.483  1.00  0.00     0.010 C 
ENDBRANCH  15  20
ENDBRANCH  11  14
ENDBRANCH   1  10
BRANCH   2  22
HETATM   22  N   UNL     1      24.896  44.071  49.301  1.00  0.00    -0.319 N 
HETATM   23  C   UNL     1      23.524  44.105  49.424  1.00  0.00     0.248 C 
HETATM   24  O   UNL     1      22.863  43.669  50.368  1.00  0.00    -0.271 OA
HETATM   25  H   UNL     1      25.378  44.769  48.747  1.00  0.00     0.169 HD
BRANCH  23  26
HETATM   26  C   UNL     1      22.819  44.974  48.384  1.00  0.00     0.337 C 
BRANCH  26  27
HETATM   27  N   UNL     1      22.480  46.335  48.999  1.00  0.00    -0.059 N 
HETATM   28  H   UNL     1      22.299  46.128  49.997  1.00  0.00     0.280 HD
HETATM   29  C   UNL     1      23.652  47.310  48.958  1.00  0.00     0.261 C 
HETATM   30  C   UNL     1      23.244  48.638  49.604  1.00  0.00     0.195 C 
HETATM   31  O   UNL     1      22.086  49.180  48.962  1.00  0.00    -0.388 OA
HETATM   32  C   UNL     1      20.958  48.306  49.081  1.00  0.00     0.195 C 
HETATM   33  C   UNL     1      21.235  46.959  48.403  1.00  0.00     0.261 C 
ENDBRANCH  26  27
ENDBRANCH  23  26
ENDBRANCH   2  22
BRANCH   8  34
HETATM   34  C   UNL     1      29.399  43.478  54.241  1.00  0.00    -0.047 C 
HETATM   35  C   UNL     1      30.129  43.287  52.903  1.00  0.00     0.015 C 
HETATM   36  C   UNL     1      29.089  44.987  54.388  1.00  0.00     0.015 C 
HETATM   37  C   UNL     1      30.387  43.113  55.374  1.00  0.00     0.015 C 
ENDBRANCH   8  34
TORSDOF 7
ENDMDL
MODEL 3
REMARK VINA RESULT:      -8.5      2.226      6.639
REMARK  7 active torsions:
REMARK  status: ('A' for Active; 'I' for Inactive)
REMARK    1  A    between atoms: C_2  and  C_3 
REMARK    2  A    between atoms: C_4  and  N_5 
REMARK       I    between atoms: N_5  and  C_6 
REMARK    3  A    between atoms: C_6  and  C_7 
REMARK    4  A    between atoms: C_8  and  N_9 
REMARK       I    between atoms: N_9  and  C_10 
REMARK    5  A    between atoms: C_10  and  C_11 
REMARK    6  A    between atoms: C_11  and  N_12 
REMARK    7  A    between atoms: C_25  and  C_26 
ROOT
HETATM    1  C   UNL     1      27.158  43.427  50.981  1.00  0.00     0.073 A 
HETATM    2  C   UNL     1      28.103  43.463  51.987  1.00  0.00     0.093 A 
HETATM    3  S   UNL     1      28.792  41.954  52.339  1.00  0.00    -0.075 SA
HETATM    4  C   UNL     1      27.726  41.175  51.274  1.00  0.00    -0.008 A 
HETATM    5  C   UNL     1      26.915  42.055  50.581  1.00  0.00    -0.026 A 
HETATM    6  C   UNL     1      26.015  41.581  49.474  1.00  0.00     0.041 C 
HETATM    7  C   UNL     1      25.970  40.046  49.337  1.00  0.00     0.010 C 
HETATM    8  C   UNL     1      27.274  39.273  49.692  1.00  0.00    -0.002 C 
HETATM    9  C   UNL     1      27.737  39.692  51.108  1.00  0.00     0.052 C 
ENDROOT
BRANCH   1  10
HETATM   10  C   UNL     1      26.622  44.633  50.340  1.00  0.00     0.259 C 
HETATM   11  N   UNL     1      25.348  44.962  50.754  1.00  0.00    -0.322 N 
HETATM   12  H   UNL     1      25.061  44.573  51.639  1.00  0.00     0.169 HD
HETATM   13  O   UNL     1      27.308  45.278  49.554  1.00  0.00    -0.267 OA
BRANCH  11  14
HETATM   14  C   UNL     1      24.485  45.897  50.137  1.00  0.00     0.041 A 
HETATM   15  C   UNL     1      23.496  45.456  49.232  1.00  0.00    -0.032 A 
HETATM   16  C   UNL     1      22.701  46.413  48.568  1.00  0.00     0.009 A 
HETATM   17  C   UNL     1      22.883  47.777  48.786  1.00  0.00     0.001 A 
HETATM   18  C   UNL     1      23.853  48.206  49.683  1.00  0.00     0.002 A 
HETATM   19  C   UNL     1      24.645  47.273  50.356  1.00  0.00     0.030 A 
BRANCH  15  20
HETATM   20  C   UNL     1      23.157  43.999  49.016  1.00  0.00     0.036 C 
HETATM   21  C   UNL     1      23.506  43.557  47.599  1.00  0.00     0.010 C 
ENDBRANCH  15  20
ENDBRANCH  11  14
ENDBRANCH   1  10
BRANCH   2  22
HETATM   22  N   UNL     1      28.604  44.460  52.792  1.00  0.00    -0.319 N 
HETATM   23  C   UNL     1      28.176  44.571  54.098  1.00  0.00     0.248 C 
HETATM   24  O   UNL     1      27.354  43.847  54.662  1.00  0.00    -0.271 OA
HETATM   25  H   UNL     1      29.525  44.790  52.525  1.00  0.00     0.169 HD
BRANCH  23  26
HETATM   26  C   UNL     1      28.990  45.545  54.948  1.00  0.00     0.337 C 
BRANCH  26  27
HETATM   27  N   UNL     1      29.660  44.786  56.096  1.00  0.00    -0.059 N 
HETATM   28  H   UNL     1      28.902  44.203  56.495  1.00  0.00     0.280 HD
HETATM   29  C   UNL     1      30.746  43.829  55.618  1.00  0.00     0.261 C 
HETATM   30  C   UNL     1      31.356  43.096  56.818  1.00  0.00     0.195 C 
HETATM   31  O   UNL     1      31.862  44.028  57.778  1.00  0.00    -0.388 OA
HETATM   32  C   UNL     1      30.824  44.867  58.298  1.00  0.00     0.195 C 
HETATM   33  C   UNL     1      30.185  45.703  57.183  1.00  0.00     0.261 C 
ENDBRANCH  26  27
ENDBRANCH  23  26
ENDBRANCH   2  22
BRANCH   8  34
HETATM   34  C   UNL     1      28.396  39.239  48.581  1.00  0.00    -0.047 C 
HETATM   35  C   UNL     1      28.726  40.604  47.957  1.00  0.00     0.015 C 
HETATM   36  C   UNL     1      29.712  38.663  49.157  1.00  0.00     0.015 C 
HETATM   37  C   UNL     1      27.954  38.292  47.440  1.00  0.00     0.015 C 
ENDBRANCH   8  34
TORSDOF 7
ENDMDL
MODEL 4
REMARK VINA RESULT:      -8.4      5.245     10.640
REMARK  7 active torsions:
REMARK  status: ('A' for Active; 'I' for Inactive)
REMARK    1  A    between atoms: C_2  and  C_3 
REMARK    2  A    between atoms: C_4  and  N_5 
REMARK       I    between atoms: N_5  and  C_6 
REMARK    3  A    between atoms: C_6  and  C_7 
REMARK    4  A    between atoms: C_8  and  N_9 
REMARK       I    between atoms: N_9  and  C_10 
REMARK    5  A    between atoms: C_10  and  C_11 
REMARK    6  A    between atoms: C_11  and  N_12 
REMARK    7  A    between atoms: C_25  and  C_26 
ROOT
HETATM    1  C   UNL     1      21.017  47.788  48.830  1.00  0.00     0.073 A 
HETATM    2  C   UNL     1      20.172  46.717  48.617  1.00  0.00     0.093 A 
HETATM    3  S   UNL     1      18.540  47.056  48.921  1.00  0.00    -0.075 SA
HETATM    4  C   UNL     1      18.929  48.598  49.512  1.00  0.00    -0.008 A 
HETATM    5  C   UNL     1      20.274  48.898  49.394  1.00  0.00    -0.026 A 
HETATM    6  C   UNL     1      20.798  50.271  49.709  1.00  0.00     0.041 C 
HETATM    7  C   UNL     1      19.738  51.204  50.327  1.00  0.00     0.010 C 
HETATM    8  C   UNL     1      18.268  50.999  49.857  1.00  0.00    -0.002 C 
HETATM    9  C   UNL     1      17.881  49.513  50.050  1.00  0.00     0.052 C 
ENDROOT
BRANCH   1  10
HETATM   10  C   UNL     1      22.418  47.805  48.394  1.00  0.00     0.259 C 
HETATM   11  N   UNL     1      23.299  48.221  49.371  1.00  0.00    -0.322 N 
HETATM   12  H   UNL     1      22.965  48.152  50.319  1.00  0.00     0.169 HD
HETATM   13  O   UNL     1      22.724  47.423  47.269  1.00  0.00    -0.267 OA
BRANCH  11  14
HETATM   14  C   UNL     1      24.651  48.585  49.175  1.00  0.00     0.041 A 
HETATM   15  C   UNL     1      25.675  47.896  49.860  1.00  0.00    -0.032 A 
HETATM   16  C   UNL     1      27.008  48.328  49.711  1.00  0.00     0.009 A 
HETATM   17  C   UNL     1      27.326  49.423  48.910  1.00  0.00     0.001 A 
HETATM   18  C   UNL     1      26.315  50.095  48.233  1.00  0.00     0.002 A 
HETATM   19  C   UNL     1      24.990  49.676  48.361  1.00  0.00     0.030 A 
BRANCH  15  20
HETATM   20  C   UNL     1      25.437  46.636  50.662  1.00  0.00     0.036 C 
HETATM   21  C   UNL     1      25.634  46.887  52.152  1.00  0.00     0.010 C 
ENDBRANCH  15  20
ENDBRANCH  11  14
ENDBRANCH   1  10
BRANCH   2  22
HETATM   22  N   UNL     1      20.365  45.411  48.225  1.00  0.00    -0.319 N 
HETATM   23  C   UNL     1      20.370  45.089  46.885  1.00  0.00     0.248 C 
HETATM   24  O   UNL     1      20.214  45.869  45.944  1.00  0.00    -0.271 OA
HETATM   25  H   UNL     1      20.882  44.847  48.890  1.00  0.00     0.169 HD
BRANCH  23  26
HETATM   26  C   UNL     1      20.845  43.669  46.580  1.00  0.00     0.337 C 
BRANCH  26  27
HETATM   27  N   UNL     1      21.980  43.293  47.536  1.00  0.00    -0.059 N 
HETATM   28  H   UNL     1      21.594  43.477  48.479  1.00  0.00     0.280 HD
HETATM   29  C   UNL     1      22.327  41.808  47.484  1.00  0.00     0.261 C 
HETATM   30  C   UNL     1      23.456  41.506  48.476  1.00  0.00     0.195 C 
HETATM   31  O   UNL     1      24.599  42.324  48.209  1.00  0.00    -0.388 OA
HETATM   32  C   UNL     1      24.297  43.716  48.349  1.00  0.00     0.195 C 
HETATM   33  C   UNL     1      23.218  44.146  47.348  1.00  0.00     0.261 C 
ENDBRANCH  26  27
ENDBRANCH  23  26
ENDBRANCH   2  22
BRANCH   8  34
HETATM   34  C   UNL     1      17.876  51.639  48.468  1.00  0.00    -0.047 C 
HETATM   35  C   UNL     1      17.809  50.646  47.297  1.00  0.00     0.015 C 
HETATM   36  C   UNL     1      16.499  52.339  48.562  1.00  0.00     0.015 C 
HETATM   37  C   UNL     1      18.909  52.732  48.101  1.00  0.00     0.015 C 
ENDBRANCH   8  34
TORSDOF 7
ENDMDL
MODEL 5
REMARK VINA RESULT:      -8.3      7.077     11.662
REMARK  7 active torsions:
REMARK  status: ('A' for Active; 'I' for Inactive)
REMARK    1  A    between atoms: C_2  and  C_3 
REMARK    2  A    between atoms: C_4  and  N_5 
REMARK       I    between atoms: N_5  and  C_6 
REMARK    3  A    between atoms: C_6  and  C_7 
REMARK    4  A    between atoms: C_8  and  N_9 
REMARK       I    between atoms: N_9  and  C_10 
REMARK    5  A    between atoms: C_10  and  C_11 
REMARK    6  A    between atoms: C_11  and  N_12 
REMARK    7  A    between atoms: C_25  and  C_26 
ROOT
HETATM    1  C   UNL     1      20.292  47.465  47.944  1.00  0.00     0.073 A 
HETATM    2  C   UNL     1      19.480  46.865  47.003  1.00  0.00     0.093 A 
HETATM    3  S   UNL     1      17.898  47.473  46.970  1.00  0.00    -0.075 SA
HETATM    4  C   UNL     1      18.200  48.441  48.330  1.00  0.00    -0.008 A 
HETATM    5  C   UNL     1      19.514  48.383  48.754  1.00  0.00    -0.026 A 
HETATM    6  C   UNL     1      20.026  49.287  49.840  1.00  0.00     0.041 C 
HETATM    7  C   UNL     1      18.917  50.116  50.518  1.00  0.00     0.010 C 
HETATM    8  C   UNL     1      17.716  50.542  49.624  1.00  0.00    -0.002 C 
HETATM    9  C   UNL     1      17.129  49.285  48.938  1.00  0.00     0.052 C 
ENDROOT
BRANCH   1  10
HETATM   10  C   UNL     1      21.747  47.283  47.981  1.00  0.00     0.259 C 
HETATM   11  N   UNL     1      22.341  47.785  49.121  1.00  0.00    -0.322 N 
HETATM   12  H   UNL     1      21.731  47.910  49.913  1.00  0.00     0.169 HD
HETATM   13  O   UNL     1      22.324  46.688  47.076  1.00  0.00    -0.267 OA
BRANCH  11  14
HETATM   14  C   UNL     1      23.726  47.989  49.320  1.00  0.00     0.041 A 
HETATM   15  C   UNL     1      24.381  49.065  48.682  1.00  0.00    -0.032 A 
HETATM   16  C   UNL     1      25.775  49.202  48.831  1.00  0.00     0.009 A 
HETATM   17  C   UNL     1      26.512  48.292  49.586  1.00  0.00     0.001 A 
HETATM   18  C   UNL     1      25.863  47.238  50.217  1.00  0.00     0.002 A 
HETATM   19  C   UNL     1      24.481  47.091  50.088  1.00  0.00     0.030 A 
BRANCH  15  20
HETATM   20  C   UNL     1      23.649  50.158  47.936  1.00  0.00     0.036 C 
HETATM   21  C   UNL     1      23.048  51.175  48.899  1.00  0.00     0.010 C 
ENDBRANCH  15  20
ENDBRANCH  11  14
ENDBRANCH   1  10
BRANCH   2  22
HETATM   22  N   UNL     1      19.665  45.856  46.085  1.00  0.00    -0.319 N 
HETATM   23  C   UNL     1      19.412  44.548  46.440  1.00  0.00     0.248 C 
HETATM   24  O   UNL     1      19.021  44.151  47.539  1.00  0.00    -0.271 OA
HETATM   25  H   UNL     1      19.581  46.149  45.118  1.00  0.00     0.169 HD
BRANCH  23  26
HETATM   26  C   UNL     1      19.409  43.566  45.269  1.00  0.00     0.337 C 
BRANCH  26  27
HETATM   27  N   UNL     1      18.328  43.973  44.264  1.00  0.00    -0.059 N 
HETATM   28  H   UNL     1      18.557  44.953  44.022  1.00  0.00     0.280 HD
HETATM   29  C   UNL     1      18.397  43.172  42.967  1.00  0.00     0.261 C 
HETATM   30  C   UNL     1      17.299  43.646  42.008  1.00  0.00     0.195 C 
HETATM   31  O   UNL     1      16.011  43.545  42.621  1.00  0.00    -0.388 OA
HETATM   32  C   UNL     1      15.914  44.369  43.788  1.00  0.00     0.195 C 
HETATM   33  C   UNL     1      16.931  43.936  44.850  1.00  0.00     0.261 C 
ENDBRANCH  26  27
ENDBRANCH  23  26
ENDBRANCH   2  22
BRANCH   8  34
HETATM   34  C   UNL     1      17.943  51.795  48.691  1.00  0.00    -0.047 C 
HETATM   35  C   UNL     1      19.413  52.203  48.507  1.00  0.00     0.015 C 
HETATM   36  C   UNL     1      17.354  51.537  47.284  1.00  0.00     0.015 C 
HETATM   37  C   UNL     1      17.186  53.011  49.277  1.00  0.00     0.015 C 
ENDBRANCH   8  34
TORSDOF 7
ENDMDL
MODEL 6
REMARK VINA RESULT:      -8.3      2.227      6.294
REMARK  7 active torsions:
REMARK  status: ('A' for Active; 'I' for Inactive)
REMARK    1  A    between atoms: C_2  and  C_3 
REMARK    2  A    between atoms: C_4  and  N_5 
REMARK       I    between atoms: N_5  and  C_6 
REMARK    3  A    between atoms: C_6  and  C_7 
REMARK    4  A    between atoms: C_8  and  N_9 
REMARK       I    between atoms: N_9  and  C_10 
REMARK    5  A    between atoms: C_10  and  C_11 
REMARK    6  A    between atoms: C_11  and  N_12 
REMARK    7  A    between atoms: C_25  and  C_26 
ROOT
HETATM    1  C   UNL     1      24.912  42.244  50.158  1.00  0.00     0.073 A 
HETATM    2  C   UNL     1      25.908  42.183  51.112  1.00  0.00     0.093 A 
HETATM    3  S   UNL     1      27.064  40.976  50.824  1.00  0.00    -0.075 SA
HETATM    4  C   UNL     1      26.175  40.385  49.506  1.00  0.00    -0.008 A 
HETATM    5  C   UNL     1      25.059  41.148  49.220  1.00  0.00    -0.026 A 
HETATM    6  C   UNL     1      24.228  40.890  47.994  1.00  0.00     0.041 C 
HETATM    7  C   UNL     1      24.643  39.615  47.232  1.00  0.00     0.010 C 
HETATM    8  C   UNL     1      26.153  39.240  47.267  1.00  0.00    -0.002 C 
HETATM    9  C   UNL     1      26.624  39.185  48.740  1.00  0.00     0.052 C 
ENDROOT
BRANCH   1  10
HETATM   10  C   UNL     1      23.960  43.356  50.062  1.00  0.00     0.259 C 
HETATM   11  N   UNL     1      24.349  44.347  49.185  1.00  0.00    -0.322 N 
HETATM   12  H   UNL     1      25.027  44.075  48.491  1.00  0.00     0.169 HD
HETATM   13  O   UNL     1      22.906  43.329  50.690  1.00  0.00    -0.267 OA
BRANCH  11  14
HETATM   14  C   UNL     1      23.783  45.638  49.079  1.00  0.00     0.041 A 
HETATM   15  C   UNL     1      24.400  46.735  49.716  1.00  0.00    -0.032 A 
HETATM   16  C   UNL     1      23.775  47.998  49.663  1.00  0.00     0.009 A 
HETATM   17  C   UNL     1      22.560  48.173  49.003  1.00  0.00     0.001 A 
HETATM   18  C   UNL     1      21.959  47.091  48.371  1.00  0.00     0.002 A 
HETATM   19  C   UNL     1      22.568  45.835  48.406  1.00  0.00     0.030 A 
BRANCH  15  20
HETATM   20  C   UNL     1      25.766  46.662  50.361  1.00  0.00     0.036 C 
HETATM   21  C   UNL     1      26.676  47.772  49.849  1.00  0.00     0.010 C 
ENDBRANCH  15  20
ENDBRANCH  11  14
ENDBRANCH   1  10
BRANCH   2  22
HETATM   22  N   UNL     1      26.167  42.880  52.271  1.00  0.00    -0.319 N 
HETATM   23  C   UNL     1      27.159  43.836  52.291  1.00  0.00     0.248 C 
HETATM   24  O   UNL     1      27.882  44.160  51.348  1.00  0.00    -0.271 OA
HETATM   25  H   UNL     1      25.377  42.946  52.903  1.00  0.00     0.169 HD
BRANCH  23  26
HETATM   26  C   UNL     1      27.170  44.706  53.547  1.00  0.00     0.337 C 
BRANCH  26  27
HETATM   27  N   UNL     1      28.569  44.692  54.167  1.00  0.00    -0.059 N 
HETATM   28  H   UNL     1      29.176  45.115  53.442  1.00  0.00     0.280 HD
HETATM   29  C   UNL     1      28.676  45.579  55.404  1.00  0.00     0.261 C 
HETATM   30  C   UNL     1      30.105  45.528  55.956  1.00  0.00     0.195 C 
HETATM   31  O   UNL     1      30.491  44.180  56.240  1.00  0.00    -0.388 OA
HETATM   32  C   UNL     1      30.481  43.367  55.062  1.00  0.00     0.195 C 
HETATM   33  C   UNL     1      29.073  43.293  54.459  1.00  0.00     0.261 C 
ENDBRANCH  26  27
ENDBRANCH  23  26
ENDBRANCH   2  22
BRANCH   8  34
HETATM   34  C   UNL     1      27.096  40.021  46.270  1.00  0.00    -0.047 C 
HETATM   35  C   UNL     1      28.024  41.051  46.934  1.00  0.00     0.015 C 
HETATM   36  C   UNL     1      27.989  39.034  45.481  1.00  0.00     0.015 C 
HETATM   37  C   UNL     1      26.229  40.770  45.229  1.00  0.00     0.015 C 
ENDBRANCH   8  34
TORSDOF 7
ENDMDL
MODEL 7
REMARK VINA RESULT:      -8.3      6.437     11.140
REMARK  7 active torsions:
REMARK  status: ('A' for Active; 'I' for Inactive)
REMARK    1  A    between atoms: C_2  and  C_3 
REMARK    2  A    between atoms: C_4  and  N_5 
REMARK       I    between atoms: N_5  and  C_6 
REMARK    3  A    between atoms: C_6  and  C_7 
REMARK    4  A    between atoms: C_8  and  N_9 
REMARK       I    between atoms: N_9  and  C_10 
REMARK    5  A    between atoms: C_10  and  C_11 
REMARK    6  A    between atoms: C_11  and  N_12 
REMARK    7  A    between atoms: C_25  and  C_26 
ROOT
HETATM    1  C   UNL     1      20.374  47.435  48.044  1.00  0.00     0.073 A 
HETATM    2  C   UNL     1      19.580  46.826  47.093  1.00  0.00     0.093 A 
HETATM    3  S   UNL     1      18.003  47.442  47.013  1.00  0.00    -0.075 SA
HETATM    4  C   UNL     1      18.278  48.428  48.365  1.00  0.00    -0.008 A 
HETATM    5  C   UNL     1      19.582  48.369  48.822  1.00  0.00    -0.026 A 
HETATM    6  C   UNL     1      20.072  49.286  49.907  1.00  0.00     0.041 C 
HETATM    7  C   UNL     1      18.953  50.130  50.547  1.00  0.00     0.010 C 
HETATM    8  C   UNL     1      17.776  50.551  49.617  1.00  0.00    -0.002 C 
HETATM    9  C   UNL     1      17.199  49.287  48.935  1.00  0.00     0.052 C 
ENDROOT
BRANCH   1  10
HETATM   10  C   UNL     1      21.826  47.245  48.119  1.00  0.00     0.259 C 
HETATM   11  N   UNL     1      22.403  47.807  49.239  1.00  0.00    -0.322 N 
HETATM   12  H   UNL     1      21.779  47.982  50.011  1.00  0.00     0.169 HD
HETATM   13  O   UNL     1      22.414  46.595  47.261  1.00  0.00    -0.267 OA
BRANCH  11  14
HETATM   14  C   UNL     1      23.785  48.013  49.452  1.00  0.00     0.041 A 
HETATM   15  C   UNL     1      24.460  49.046  48.767  1.00  0.00    -0.032 A 
HETATM   16  C   UNL     1      25.853  49.182  48.934  1.00  0.00     0.009 A 
HETATM   17  C   UNL     1      26.569  48.311  49.753  1.00  0.00     0.001 A 
HETATM   18  C   UNL     1      25.900  47.299  50.431  1.00  0.00     0.002 A 
HETATM   19  C   UNL     1      24.519  47.155  50.285  1.00  0.00     0.030 A 
BRANCH  15  20
HETATM   20  C   UNL     1      23.752  50.099  47.946  1.00  0.00     0.036 C 
HETATM   21  C   UNL     1      23.103  51.149  48.840  1.00  0.00     0.010 C 
ENDBRANCH  15  20
ENDBRANCH  11  14
ENDBRANCH   1  10
BRANCH   2  22
HETATM   22  N   UNL     1      19.781  45.802  46.194  1.00  0.00    -0.319 N 
HETATM   23  C   UNL     1      19.457  44.508  46.542  1.00  0.00     0.248 C 
HETATM   24  O   UNL     1      18.985  44.136  47.617  1.00  0.00    -0.271 OA
HETATM   25  H   UNL     1      19.767  46.090  45.222  1.00  0.00     0.169 HD
BRANCH  23  26
HETATM   26  C   UNL     1      19.486  43.517  45.379  1.00  0.00     0.337 C 
BRANCH  26  27
HETATM   27  N   UNL     1      20.937  43.240  44.979  1.00  0.00    -0.059 N 
HETATM   28  H   UNL     1      21.297  44.159  44.665  1.00  0.00     0.280 HD
HETATM   29  C   UNL     1      21.803  42.808  46.158  1.00  0.00     0.261 C 
HETATM   30  C   UNL     1      23.240  42.566  45.684  1.00  0.00     0.195 C 
HETATM   31  O   UNL     1      23.271  41.602  44.627  1.00  0.00    -0.388 OA
HETATM   32  C   UNL     1      22.535  42.048  43.483  1.00  0.00     0.195 C 
HETATM   33  C   UNL     1      21.056  42.259  43.830  1.00  0.00     0.261 C 
ENDBRANCH  26  27
ENDBRANCH  23  26
ENDBRANCH   2  22
BRANCH   8  34
HETATM   34  C   UNL     1      18.033  51.789  48.672  1.00  0.00    -0.047 C 
HETATM   35  C   UNL     1      19.512  52.169  48.496  1.00  0.00     0.015 C 
HETATM   36  C   UNL     1      17.451  51.525  47.263  1.00  0.00     0.015 C 
HETATM   37  C   UNL     1      17.293  53.024  49.238  1.00  0.00     0.015 C 
ENDBRANCH   8  34
TORSDOF 7
ENDMDL
MODEL 8
REMARK VINA RESULT:      -8.3      2.338      5.617
REMARK  7 active torsions:
REMARK  status: ('A' for Active; 'I' for Inactive)
REMARK    1  A    between atoms: C_2  and  C_3 
REMARK    2  A    between atoms: C_4  and  N_5 
REMARK       I    between atoms: N_5  and  C_6 
REMARK    3  A    between atoms: C_6  and  C_7 
REMARK    4  A    between atoms: C_8  and  N_9 
REMARK       I    between atoms: N_9  and  C_10 
REMARK    5  A    between atoms: C_10  and  C_11 
REMARK    6  A    between atoms: C_11  and  N_12 
REMARK    7  A    between atoms: C_25  and  C_26 
ROOT
HETATM    1  C   UNL     1      25.728  41.926  50.505  1.00  0.00     0.073 A 
HETATM    2  C   UNL     1      26.777  41.605  51.345  1.00  0.00     0.093 A 
HETATM    3  S   UNL     1      27.713  40.297  50.808  1.00  0.00    -0.075 SA
HETATM    4  C   UNL     1      26.645  40.010  49.522  1.00  0.00    -0.008 A 
HETATM    5  C   UNL     1      25.636  40.951  49.436  1.00  0.00    -0.026 A 
HETATM    6  C   UNL     1      24.683  40.970  48.274  1.00  0.00     0.041 C 
HETATM    7  C   UNL     1      24.841  39.760  47.333  1.00  0.00     0.010 C 
HETATM    8  C   UNL     1      26.277  39.178  47.178  1.00  0.00    -0.002 C 
HETATM    9  C   UNL     1      26.848  38.868  48.583  1.00  0.00     0.052 C 
ENDROOT
BRANCH   1  10
HETATM   10  C   UNL     1      24.949  43.162  50.631  1.00  0.00     0.259 C 
HETATM   11  N   UNL     1      25.192  44.078  49.629  1.00  0.00    -0.322 N 
HETATM   12  H   UNL     1      25.594  43.704  48.783  1.00  0.00     0.169 HD
HETATM   13  O   UNL     1      24.132  43.294  51.538  1.00  0.00    -0.267 OA
BRANCH  11  14
HETATM   14  C   UNL     1      24.799  45.435  49.624  1.00  0.00     0.041 A 
HETATM   15  C   UNL     1      23.553  45.809  49.076  1.00  0.00    -0.032 A 
HETATM   16  C   UNL     1      23.216  47.176  49.010  1.00  0.00     0.009 A 
HETATM   17  C   UNL     1      24.094  48.157  49.466  1.00  0.00     0.001 A 
HETATM   18  C   UNL     1      25.317  47.785  50.011  1.00  0.00     0.002 A 
HETATM   19  C   UNL     1      25.664  46.435  50.093  1.00  0.00     0.030 A 
BRANCH  15  20
HETATM   20  C   UNL     1      22.497  44.811  48.657  1.00  0.00     0.036 C 
HETATM   21  C   UNL     1      22.657  44.422  47.191  1.00  0.00     0.010 C 
ENDBRANCH  15  20
ENDBRANCH  11  14
ENDBRANCH   1  10
BRANCH   2  22
HETATM   22  N   UNL     1      27.226  42.104  52.546  1.00  0.00    -0.319 N 
HETATM   23  C   UNL     1      27.989  43.251  52.572  1.00  0.00     0.248 C 
HETATM   24  O   UNL     1      28.338  43.921  51.598  1.00  0.00    -0.271 OA
HETATM   25  H   UNL     1      26.655  41.851  53.344  1.00  0.00     0.169 HD
BRANCH  23  26
HETATM   26  C   UNL     1      28.203  43.835  53.968  1.00  0.00     0.337 C 
BRANCH  26  27
HETATM   27  N   UNL     1      27.678  45.273  54.008  1.00  0.00    -0.059 N 
HETATM   28  H   UNL     1      28.126  45.733  53.196  1.00  0.00     0.280 HD
HETATM   29  C   UNL     1      26.171  45.357  53.784  1.00  0.00     0.261 C 
HETATM   30  C   UNL     1      25.723  46.822  53.820  1.00  0.00     0.195 C 
HETATM   31  O   UNL     1      26.108  47.440  55.053  1.00  0.00    -0.388 OA
HETATM   32  C   UNL     1      27.530  47.444  55.220  1.00  0.00     0.195 C 
HETATM   33  C   UNL     1      28.081  46.014  55.266  1.00  0.00     0.261 C 
ENDBRANCH  26  27
ENDBRANCH  23  26
ENDBRANCH   2  22
BRANCH   8  34
HETATM   34  C   UNL     1      27.244  39.943  46.193  1.00  0.00    -0.047 C 
HETATM   35  C   UNL     1      28.220  40.917  46.874  1.00  0.00     0.015 C 
HETATM   36  C   UNL     1      28.090  38.939  45.373  1.00  0.00     0.015 C 
HETATM   37  C   UNL     1      26.403  40.752  45.177  1.00  0.00     0.015 C 
ENDBRANCH   8  34
TORSDOF 7
ENDMDL
MODEL 9
REMARK VINA RESULT:      -8.2     16.513     18.568
REMARK  7 active torsions:
REMARK  status: ('A' for Active; 'I' for Inactive)
REMARK    1  A    between atoms: C_2  and  C_3 
REMARK    2  A    between atoms: C_4  and  N_5 
REMARK       I    between atoms: N_5  and  C_6 
REMARK    3  A    between atoms: C_6  and  C_7 
REMARK    4  A    between atoms: C_8  and  N_9 
REMARK       I    between atoms: N_9  and  C_10 
REMARK    5  A    between atoms: C_10  and  C_11 
REMARK    6  A    between atoms: C_11  and  N_12 
REMARK    7  A    between atoms: C_25  and  C_26 
ROOT
HETATM    1  C   UNL     1      36.767  45.543  66.192  1.00  0.00     0.073 A 
HETATM    2  C   UNL     1      35.761  44.803  66.782  1.00  0.00     0.093 A 
HETATM    3  S   UNL     1      35.465  43.316  66.025  1.00  0.00    -0.075 SA
HETATM    4  C   UNL     1      36.556  43.687  64.781  1.00  0.00    -0.008 A 
HETATM    5  C   UNL     1      37.216  44.885  64.979  1.00  0.00    -0.026 A 
HETATM    6  C   UNL     1      38.339  45.318  64.078  1.00  0.00     0.041 C 
HETATM    7  C   UNL     1      38.531  44.399  62.856  1.00  0.00     0.010 C 
HETATM    8  C   UNL     1      38.206  42.890  63.058  1.00  0.00    -0.002 C 
HETATM    9  C   UNL     1      36.776  42.756  63.634  1.00  0.00     0.052 C 
ENDROOT
BRANCH   1  10
HETATM   10  C   UNL     1      37.363  46.729  66.816  1.00  0.00     0.259 C 
HETATM   11  N   UNL     1      36.611  47.875  66.660  1.00  0.00    -0.322 N 
HETATM   12  H   UNL     1      35.636  47.734  66.448  1.00  0.00     0.169 HD
HETATM   13  O   UNL     1      38.410  46.640  67.448  1.00  0.00    -0.267 OA
BRANCH  11  14
HETATM   14  C   UNL     1      37.042  49.197  66.917  1.00  0.00     0.041 A 
HETATM   15  C   UNL     1      37.894  49.853  66.003  1.00  0.00    -0.032 A 
HETATM   16  C   UNL     1      38.375  51.140  66.318  1.00  0.00     0.009 A 
HETATM   17  C   UNL     1      38.029  51.765  67.515  1.00  0.00     0.001 A 
HETATM   18  C   UNL     1      37.185  51.118  68.409  1.00  0.00     0.002 A 
HETATM   19  C   UNL     1      36.692  49.846  68.110  1.00  0.00     0.030 A 
BRANCH  15  20
HETATM   20  C   UNL     1      38.233  49.299  64.638  1.00  0.00     0.036 C 
HETATM   21  C   UNL     1      39.714  48.953  64.536  1.00  0.00     0.010 C 
ENDBRANCH  15  20
ENDBRANCH  11  14
ENDBRANCH   1  10
BRANCH   2  22
HETATM   22  N   UNL     1      34.921  45.016  67.851  1.00  0.00    -0.319 N 
HETATM   23  C   UNL     1      35.323  44.667  69.122  1.00  0.00     0.248 C 
HETATM   24  O   UNL     1      36.402  44.160  69.435  1.00  0.00    -0.271 OA
HETATM   25  H   UNL     1      34.249  45.762  67.713  1.00  0.00     0.169 HD
BRANCH  23  26
HETATM   26  C   UNL     1      34.415  45.186  70.236  1.00  0.00     0.337 C 
BRANCH  26  27
HETATM   27  N   UNL     1      32.950  44.987  69.836  1.00  0.00    -0.059 N 
HETATM   28  H   UNL     1      32.927  45.213  68.825  1.00  0.00     0.280 HD
HETATM   29  C   UNL     1      32.492  43.539  69.974  1.00  0.00     0.261 C 
HETATM   30  C   UNL     1      31.027  43.416  69.541  1.00  0.00     0.195 C 
HETATM   31  O   UNL     1      30.198  44.305  70.296  1.00  0.00    -0.388 OA
HETATM   32  C   UNL     1      30.569  45.673  70.094  1.00  0.00     0.195 C 
HETATM   33  C   UNL     1      32.007  45.925  70.561  1.00  0.00     0.261 C 
ENDBRANCH  26  27
ENDBRANCH  23  26
ENDBRANCH   2  22
BRANCH   8  34
HETATM   34  C   UNL     1      39.318  42.019  63.762  1.00  0.00    -0.047 C 
HETATM   35  C   UNL     1      39.037  41.682  65.236  1.00  0.00     0.015 C 
HETATM   36  C   UNL     1      39.515  40.679  63.012  1.00  0.00     0.015 C 
HETATM   37  C   UNL     1      40.670  42.769  63.700  1.00  0.00     0.015 C 
ENDBRANCH   8  34
TORSDOF 7
ENDMDL
MODEL 10
REMARK VINA RESULT:      -8.0      2.206      3.403
REMARK  7 active torsions:
REMARK  status: ('A' for Active; 'I' for Inactive)
REMARK    1  A    between atoms: C_2  and  C_3 
REMARK    2  A    between atoms: C_4  and  N_5 
REMARK       I    between atoms: N_5  and  C_6 
REMARK    3  A    between atoms: C_6  and  C_7 
REMARK    4  A    between atoms: C_8  and  N_9 
REMARK       I    between atoms: N_9  and  C_10 
REMARK    5  A    between atoms: C_10  and  C_11 
REMARK    6  A    between atoms: C_11  and  N_12 
REMARK    7  A    between atoms: C_25  and  C_26 
ROOT
HETATM    1  C   UNL     1      26.043  42.593  49.131  1.00  0.00     0.073 A 
HETATM    2  C   UNL     1      24.668  42.551  49.010  1.00  0.00     0.093 A 
HETATM    3  S   UNL     1      24.087  41.158  48.238  1.00  0.00    -0.075 SA
HETATM    4  C   UNL     1      25.665  40.645  47.889  1.00  0.00    -0.008 A 
HETATM    5  C   UNL     1      26.634  41.468  48.433  1.00  0.00    -0.026 A 
HETATM    6  C   UNL     1      28.091  41.102  48.378  1.00  0.00     0.041 C 
HETATM    7  C   UNL     1      28.376  39.853  47.520  1.00  0.00     0.010 C 
HETATM    8  C   UNL     1      27.275  38.752  47.501  1.00  0.00    -0.002 C 
HETATM    9  C   UNL     1      25.925  39.399  47.109  1.00  0.00     0.052 C 
ENDROOT
BRANCH   1  10
HETATM   10  C   UNL     1      26.745  43.564  49.978  1.00  0.00     0.259 C 
HETATM   11  N   UNL     1      26.846  43.180  51.299  1.00  0.00    -0.322 N 
HETATM   12  H   UNL     1      26.740  42.193  51.476  1.00  0.00     0.169 HD
HETATM   13  O   UNL     1      27.222  44.584  49.490  1.00  0.00    -0.267 OA
BRANCH  11  14
HETATM   14  C   UNL     1      27.226  44.005  52.381  1.00  0.00     0.041 A 
HETATM   15  C   UNL     1      28.409  43.729  53.099  1.00  0.00    -0.032 A 
HETATM   16  C   UNL     1      28.727  44.517  54.224  1.00  0.00     0.009 A 
HETATM   17  C   UNL     1      27.890  45.551  54.639  1.00  0.00     0.001 A 
HETATM   18  C   UNL     1      26.729  45.823  53.926  1.00  0.00     0.002 A 
HETATM   19  C   UNL     1      26.402  45.059  52.804  1.00  0.00     0.030 A 
BRANCH  15  20
HETATM   20  C   UNL     1      29.428  42.701  52.660  1.00  0.00     0.036 C 
HETATM   21  C   UNL     1      28.998  41.295  53.060  1.00  0.00     0.010 C 
ENDBRANCH  15  20
ENDBRANCH  11  14
ENDBRANCH   1  10
BRANCH   2  22
HETATM   22  N   UNL     1      23.651  43.409  49.363  1.00  0.00    -0.319 N 
HETATM   23  C   UNL     1      23.086  44.233  48.414  1.00  0.00     0.248 C 
HETATM   24  O   UNL     1      23.398  44.301  47.224  1.00  0.00    -0.271 OA
HETATM   25  H   UNL     1      23.113  43.109  50.168  1.00  0.00     0.169 HD
BRANCH  23  26
HETATM   26  C   UNL     1      21.811  44.940  48.872  1.00  0.00     0.337 C 
BRANCH  26  27
HETATM   27  N   UNL     1      22.041  46.453  48.887  1.00  0.00    -0.059 N 
HETATM   28  H   UNL     1      21.472  46.792  49.683  1.00  0.00     0.280 HD
HETATM   29  C   UNL     1      23.489  46.827  49.191  1.00  0.00     0.261 C 
HETATM   30  C   UNL     1      23.638  48.352  49.207  1.00  0.00     0.195 C 
HETATM   31  O   UNL     1      23.197  48.917  47.968  1.00  0.00    -0.388 OA
HETATM   32  C   UNL     1      21.812  48.646  47.727  1.00  0.00     0.195 C 
HETATM   33  C   UNL     1      21.559  47.137  47.625  1.00  0.00     0.261 C 
ENDBRANCH  26  27
ENDBRANCH  23  26
ENDBRANCH   2  22
BRANCH   8  34
HETATM   34  C   UNL     1      27.238  37.772  48.737  1.00  0.00    -0.047 C 
HETATM   35  C   UNL     1      26.365  38.246  49.910  1.00  0.00     0.015 C 
HETATM   36  C   UNL     1      26.720  36.377  48.309  1.00  0.00     0.015 C 
HETATM   37  C   UNL     1      28.676  37.570  49.271  1.00  0.00     0.015 C 
ENDBRANCH   8  34
TORSDOF 7
ENDMDL
