MODEL 1
REMARK VINA RESULT:      -9.6      0.000      0.000
REMARK  4 active torsions:
REMARK  status: ('A' for Active; 'I' for Inactive)
REMARK    1  A    between atoms: C_5  and  N_6 
REMARK       I    between atoms: N_6  and  C_7 
REMARK    2  A    between atoms: C_7  and  C_8 
REMARK    3  A    between atoms: N_10  and  C_11 
REMARK    4  A    between atoms: C_12  and  O_13 
ROOT
HETATM    1  C   UNL     1      24.686  44.490  51.036  1.00  0.00     0.086 A 
HETATM    2  C   UNL     1      24.489  45.692  50.185  1.00  0.00     0.186 A 
HETATM    3  N   UNL     1      24.894  46.869  50.559  1.00  0.00    -0.221 NA
HETATM    4  O   UNL     1      23.858  45.518  48.959  1.00  0.00    -0.290 OA
HETATM    5  C   UNL     1      23.461  44.250  48.506  1.00  0.00     0.088 A 
HETATM    6  C   UNL     1      23.682  43.121  49.285  1.00  0.00    -0.001 A 
HETATM    7  C   UNL     1      22.847  44.174  47.259  1.00  0.00     0.038 A 
HETATM    8  C   UNL     1      22.443  42.929  46.780  1.00  0.00     0.003 A 
HETATM    9  C   UNL     1      22.659  41.782  47.548  1.00  0.00     0.001 A 
HETATM   10  C   UNL     1      23.277  41.877  48.799  1.00  0.00     0.014 A 
HETATM   11  C   UNL     1      24.306  43.281  50.588  1.00  0.00     0.035 A 
ENDROOT
BRANCH   1  12
HETATM   12  C   UNL     1      25.270  44.534  52.427  1.00  0.00     0.260 C 
HETATM   13  N   UNL     1      26.580  44.955  52.489  1.00  0.00    -0.323 N 
HETATM   14  H   UNL     1      27.044  45.126  51.596  1.00  0.00     0.169 HD
HETATM   15  O   UNL     1      24.577  44.222  53.393  1.00  0.00    -0.267 OA
BRANCH  13  16
HETATM   16  C   UNL     1      27.359  45.226  53.631  1.00  0.00     0.035 A 
HETATM   17  C   UNL     1      27.231  46.372  54.415  1.00  0.00     0.030 A 
HETATM   18  C   UNL     1      28.080  46.581  55.510  1.00  0.00     0.009 A 
HETATM   19  C   UNL     1      29.060  45.641  55.844  1.00  0.00    -0.062 A 
HETATM   20  C   UNL     1      29.997  45.898  56.986  1.00  0.00     0.048 C 
HETATM   21  C   UNL     1      29.189  44.494  55.058  1.00  0.00     0.009 A 
HETATM   22  C   UNL     1      28.342  44.287  53.965  1.00  0.00     0.030 A 
ENDBRANCH  13  16
ENDBRANCH   1  12
BRANCH   3  23
HETATM   23  C   UNL     1      24.651  47.966  49.711  1.00  0.00     0.093 A 
HETATM   24  C   UNL     1      25.685  48.642  49.041  1.00  0.00     0.097 A 
HETATM   25  C   UNL     1      25.414  49.790  48.290  1.00  0.00     0.039 A 
HETATM   26  C   UNL     1      24.106  50.259  48.175  1.00  0.00     0.003 A 
HETATM   27  C   UNL     1      23.071  49.595  48.830  1.00  0.00     0.002 A 
HETATM   28  C   UNL     1      23.345  48.462  49.600  1.00  0.00     0.034 A 
BRANCH  24  29
HETATM   29  O   UNL     1      27.007  48.290  49.149  1.00  0.00    -0.354 OA
HETATM   30  C   UNL     1      27.867  49.426  49.092  1.00  0.00     0.210 C 
ENDBRANCH  24  29
ENDBRANCH   3  23
TORSDOF 4
ENDMDL
MODEL 2
REMARK VINA RESULT:      -9.5      3.593      4.907
REMARK  4 active torsions:
REMARK  status: ('A' for Active; 'I' for Inactive)
REMARK    1  A    between atoms: C_5  and  N_6 
REMARK       I    between atoms: N_6  and  C_7 
REMARK    2  A    between atoms: C_7  and  C_8 
REMARK    3  A    between atoms: N_10  and  C_11 
REMARK    4  A    between atoms: C_12  and  O_13 
ROOT
HETATM    1  C   UNL     1      28.193  41.066  51.577  1.00  0.00     0.086 A 
HETATM    2  C   UNL     1      27.089  41.687  50.800  1.00  0.00     0.186 A 
HETATM    3  N   UNL     1      26.449  42.732  51.234  1.00  0.00    -0.221 NA
HETATM    4  O   UNL     1      26.762  41.117  49.575  1.00  0.00    -0.290 OA
HETATM    5  C   UNL     1      27.473  40.024  49.056  1.00  0.00     0.088 A 
HETATM    6  C   UNL     1      28.530  39.469  49.766  1.00  0.00    -0.001 A 
HETATM    7  C   UNL     1      27.079  39.528  47.817  1.00  0.00     0.038 A 
HETATM    8  C   UNL     1      27.766  38.445  47.273  1.00  0.00     0.003 A 
HETATM    9  C   UNL     1      28.834  37.874  47.970  1.00  0.00     0.001 A 
HETATM   10  C   UNL     1      29.216  38.384  49.215  1.00  0.00     0.014 A 
HETATM   11  C   UNL     1      28.869  40.023  51.066  1.00  0.00     0.035 A 
ENDROOT
BRANCH   1  12
HETATM   12  C   UNL     1      28.600  41.514  52.959  1.00  0.00     0.260 C 
HETATM   13  N   UNL     1      29.189  42.759  53.011  1.00  0.00    -0.323 N 
HETATM   14  H   UNL     1      29.354  43.220  52.115  1.00  0.00     0.169 HD
HETATM   15  O   UNL     1      28.384  40.789  53.928  1.00  0.00    -0.267 OA
BRANCH  13  16
HETATM   16  C   UNL     1      29.557  43.506  54.147  1.00  0.00     0.035 A 
HETATM   17  C   UNL     1      30.635  43.197  54.975  1.00  0.00     0.030 A 
HETATM   18  C   UNL     1      30.903  43.971  56.111  1.00  0.00     0.009 A 
HETATM   19  C   UNL     1      30.102  45.073  56.430  1.00  0.00    -0.062 A 
HETATM   20  C   UNL     1      30.366  45.865  57.675  1.00  0.00     0.048 C 
HETATM   21  C   UNL     1      29.021  45.382  55.602  1.00  0.00     0.009 A 
HETATM   22  C   UNL     1      28.755  44.608  54.468  1.00  0.00     0.030 A 
ENDBRANCH  13  16
ENDBRANCH   1  12
BRANCH   3  23
HETATM   23  C   UNL     1      25.399  43.252  50.454  1.00  0.00     0.093 A 
HETATM   24  C   UNL     1      25.583  44.320  49.561  1.00  0.00     0.097 A 
HETATM   25  C   UNL     1      24.495  44.875  48.881  1.00  0.00     0.039 A 
HETATM   26  C   UNL     1      23.215  44.352  49.064  1.00  0.00     0.003 A 
HETATM   27  C   UNL     1      23.020  43.289  49.943  1.00  0.00     0.002 A 
HETATM   28  C   UNL     1      24.103  42.751  50.640  1.00  0.00     0.034 A 
BRANCH  24  29
HETATM   29  O   UNL     1      26.793  44.938  49.367  1.00  0.00    -0.354 OA
HETATM   30  C   UNL     1      26.736  46.330  49.671  1.00  0.00     0.210 C 
ENDBRANCH  24  29
ENDBRANCH   3  23
TORSDOF 4
ENDMDL
MODEL 3
REMARK VINA RESULT:      -9.4      3.803      7.908
REMARK  4 active torsions:
REMARK  status: ('A' for Active; 'I' for Inactive)
REMARK    1  A    between atoms: C_5  and  N_6 
REMARK       I    between atoms: N_6  and  C_7 
REMARK    2  A    between atoms: C_7  and  C_8 
REMARK    3  A    between atoms: N_10  and  C_11 
REMARK    4  A    between atoms: C_12  and  O_13 
ROOT
HETATM    1  C   UNL     1      28.872  42.086  52.788  1.00  0.00     0.086 A 
HETATM    2  C   UNL     1      28.103  43.313  52.459  1.00  0.00     0.186 A 
HETATM    3  N   UNL     1      27.259  43.348  51.470  1.00  0.00    -0.221 NA
HETATM    4  O   UNL     1      28.307  44.435  53.252  1.00  0.00    -0.290 OA
HETATM    5  C   UNL     1      29.170  44.409  54.360  1.00  0.00     0.088 A 
HETATM    6  C   UNL     1      29.858  43.249  54.691  1.00  0.00    -0.001 A 
HETATM    7  C   UNL     1      29.301  45.579  55.102  1.00  0.00     0.038 A 
HETATM    8  C   UNL     1      30.148  45.586  56.208  1.00  0.00     0.003 A 
HETATM    9  C   UNL     1      30.847  44.428  56.559  1.00  0.00     0.001 A 
HETATM   10  C   UNL     1      30.704  43.261  55.801  1.00  0.00     0.014 A 
HETATM   11  C   UNL     1      29.690  42.073  53.854  1.00  0.00     0.035 A 
ENDROOT
BRANCH   1  12
HETATM   12  C   UNL     1      28.826  40.822  51.966  1.00  0.00     0.260 C 
HETATM   13  N   UNL     1      28.489  41.006  50.643  1.00  0.00    -0.323 N 
HETATM   14  H   UNL     1      28.238  41.957  50.367  1.00  0.00     0.169 HD
HETATM   15  O   UNL     1      29.093  39.740  52.487  1.00  0.00    -0.267 OA
BRANCH  13  16
HETATM   16  C   UNL     1      28.486  40.059  49.599  1.00  0.00     0.035 A 
HETATM   17  C   UNL     1      28.862  38.725  49.749  1.00  0.00     0.030 A 
HETATM   18  C   UNL     1      28.872  37.863  48.646  1.00  0.00     0.009 A 
HETATM   19  C   UNL     1      28.494  38.319  47.378  1.00  0.00    -0.062 A 
HETATM   20  C   UNL     1      28.556  37.401  46.194  1.00  0.00     0.048 C 
HETATM   21  C   UNL     1      28.119  39.656  47.228  1.00  0.00     0.009 A 
HETATM   22  C   UNL     1      28.110  40.515  48.331  1.00  0.00     0.030 A 
ENDBRANCH  13  16
ENDBRANCH   1  12
BRANCH   3  23
HETATM   23  C   UNL     1      26.584  44.554  51.203  1.00  0.00     0.093 A 
HETATM   24  C   UNL     1      25.411  44.926  51.883  1.00  0.00     0.097 A 
HETATM   25  C   UNL     1      24.713  46.080  51.517  1.00  0.00     0.039 A 
HETATM   26  C   UNL     1      25.192  46.891  50.488  1.00  0.00     0.003 A 
HETATM   27  C   UNL     1      26.356  46.537  49.810  1.00  0.00     0.002 A 
HETATM   28  C   UNL     1      27.040  45.370  50.160  1.00  0.00     0.034 A 
BRANCH  24  29
HETATM   29  O   UNL     1      24.834  44.157  52.862  1.00  0.00    -0.354 OA
HETATM   30  C   UNL     1      25.098  44.669  54.166  1.00  0.00     0.210 C 
ENDBRANCH  24  29
ENDBRANCH   3  23
TORSDOF 4
ENDMDL
MODEL 4
REMARK VINA RESULT:      -9.0      2.966      4.397
REMARK  4 active torsions:
REMARK  status: ('A' for Active; 'I' for Inactive)
REMARK    1  A    between atoms: C_5  and  N_6 
REMARK       I    between atoms: N_6  and  C_7 
REMARK    2  A    between atoms: C_7  and  C_8 
REMARK    3  A    between atoms: N_10  and  C_11 
REMARK    4  A    between atoms: C_12  and  O_13 
ROOT
HETATM    1  C   UNL     1      28.079  42.076  51.666  1.00  0.00     0.086 A 
HETATM    2  C   UNL     1      27.157  43.042  51.015  1.00  0.00     0.186 A 
HETATM    3  N   UNL     1      26.777  44.134  51.609  1.00  0.00    -0.221 NA
HETATM    4  O   UNL     1      26.713  42.745  49.732  1.00  0.00    -0.290 OA
HETATM    5  C   UNL     1      27.152  41.601  49.045  1.00  0.00     0.088 A 
HETATM    6  C   UNL     1      28.045  40.720  49.641  1.00  0.00    -0.001 A 
HETATM    7  C   UNL     1      26.660  41.394  47.760  1.00  0.00     0.038 A 
HETATM    8  C   UNL     1      27.078  40.269  47.050  1.00  0.00     0.003 A 
HETATM    9  C   UNL     1      27.978  39.372  47.631  1.00  0.00     0.001 A 
HETATM   10  C   UNL     1      28.461  39.596  48.924  1.00  0.00     0.014 A 
HETATM   11  C   UNL     1      28.495  40.988  50.996  1.00  0.00     0.035 A 
ENDROOT
BRANCH   1  12
HETATM   12  C   UNL     1      28.572  42.215  53.086  1.00  0.00     0.260 C 
HETATM   13  N   UNL     1      29.248  43.386  53.350  1.00  0.00    -0.323 N 
HETATM   14  H   UNL     1      29.409  44.006  52.554  1.00  0.00     0.169 HD
HETATM   15  O   UNL     1      28.344  41.326  53.904  1.00  0.00    -0.267 OA
BRANCH  13  16
HETATM   16  C   UNL     1      29.712  43.869  54.589  1.00  0.00     0.035 A 
HETATM   17  C   UNL     1      30.727  43.270  55.335  1.00  0.00     0.030 A 
HETATM   18  C   UNL     1      31.095  43.794  56.581  1.00  0.00     0.009 A 
HETATM   19  C   UNL     1      30.462  44.931  57.094  1.00  0.00    -0.062 A 
HETATM   20  C   UNL     1      30.829  45.454  58.451  1.00  0.00     0.048 C 
HETATM   21  C   UNL     1      29.445  45.530  56.348  1.00  0.00     0.009 A 
HETATM   22  C   UNL     1      29.078  45.006  55.105  1.00  0.00     0.030 A 
ENDBRANCH  13  16
ENDBRANCH   1  12
BRANCH   3  23
HETATM   23  C   UNL     1      25.883  44.989  50.939  1.00  0.00     0.093 A 
HETATM   24  C   UNL     1      24.522  44.679  50.780  1.00  0.00     0.097 A 
HETATM   25  C   UNL     1      23.688  45.505  50.019  1.00  0.00     0.039 A 
HETATM   26  C   UNL     1      24.197  46.663  49.433  1.00  0.00     0.003 A 
HETATM   27  C   UNL     1      25.544  46.985  49.587  1.00  0.00     0.002 A 
HETATM   28  C   UNL     1      26.381  46.147  50.327  1.00  0.00     0.034 A 
BRANCH  24  29
HETATM   29  O   UNL     1      23.950  43.531  51.267  1.00  0.00    -0.354 OA
HETATM   30  C   UNL     1      23.251  42.812  50.253  1.00  0.00     0.210 C 
ENDBRANCH  24  29
ENDBRANCH   3  23
TORSDOF 4
ENDMDL
MODEL 5
REMARK VINA RESULT:      -9.0      3.040      8.293
REMARK  4 active torsions:
REMARK  status: ('A' for Active; 'I' for Inactive)
REMARK    1  A    between atoms: C_5  and  N_6 
REMARK       I    between atoms: N_6  and  C_7 
REMARK    2  A    between atoms: C_7  and  C_8 
REMARK    3  A    between atoms: N_10  and  C_11 
REMARK    4  A    between atoms: C_12  and  O_13 
ROOT
HETATM    1  C   UNL     1      26.925  44.441  52.835  1.00  0.00     0.086 A 
HETATM    2  C   UNL     1      27.631  43.242  52.313  1.00  0.00     0.186 A 
HETATM    3  N   UNL     1      27.198  42.590  51.275  1.00  0.00    -0.221 NA
HETATM    4  O   UNL     1      28.787  42.837  52.970  1.00  0.00    -0.290 OA
HETATM    5  C   UNL     1      29.307  43.555  54.059  1.00  0.00     0.088 A 
HETATM    6  C   UNL     1      28.668  44.698  54.521  1.00  0.00    -0.001 A 
HETATM    7  C   UNL     1      30.476  43.078  54.645  1.00  0.00     0.038 A 
HETATM    8  C   UNL     1      31.020  43.768  55.726  1.00  0.00     0.003 A 
HETATM    9  C   UNL     1      30.393  44.923  56.204  1.00  0.00     0.001 A 
HETATM   10  C   UNL     1      29.219  45.387  55.603  1.00  0.00     0.014 A 
HETATM   11  C   UNL     1      27.438  45.122  53.875  1.00  0.00     0.035 A 
ENDROOT
BRANCH   1  12
HETATM   12  C   UNL     1      25.614  44.946  52.286  1.00  0.00     0.260 C 
HETATM   13  N   UNL     1      25.711  45.624  51.091  1.00  0.00    -0.323 N 
HETATM   14  H   UNL     1      26.655  45.778  50.733  1.00  0.00     0.169 HD
HETATM   15  O   UNL     1      24.568  44.726  52.895  1.00  0.00    -0.267 OA
BRANCH  13  16
HETATM   16  C   UNL     1      24.673  46.099  50.267  1.00  0.00     0.035 A 
HETATM   17  C   UNL     1      23.877  45.287  49.460  1.00  0.00     0.030 A 
HETATM   18  C   UNL     1      22.893  45.851  48.637  1.00  0.00     0.009 A 
HETATM   19  C   UNL     1      22.684  47.233  48.617  1.00  0.00    -0.062 A 
HETATM   20  C   UNL     1      21.663  47.831  47.695  1.00  0.00     0.048 C 
HETATM   21  C   UNL     1      23.482  48.047  49.424  1.00  0.00     0.009 A 
HETATM   22  C   UNL     1      24.463  47.483  50.245  1.00  0.00     0.030 A 
ENDBRANCH  13  16
ENDBRANCH   1  12
BRANCH   3  23
HETATM   23  C   UNL     1      27.906  41.450  50.852  1.00  0.00     0.093 A 
HETATM   24  C   UNL     1      28.012  41.089  49.499  1.00  0.00     0.097 A 
HETATM   25  C   UNL     1      28.635  39.894  49.127  1.00  0.00     0.039 A 
HETATM   26  C   UNL     1      29.184  39.059  50.101  1.00  0.00     0.003 A 
HETATM   27  C   UNL     1      29.090  39.408  51.446  1.00  0.00     0.002 A 
HETATM   28  C   UNL     1      28.447  40.590  51.818  1.00  0.00     0.034 A 
BRANCH  24  29
HETATM   29  O   UNL     1      27.448  41.816  48.481  1.00  0.00    -0.354 OA
HETATM   30  C   UNL     1      27.288  41.038  47.295  1.00  0.00     0.210 C 
ENDBRANCH  24  29
ENDBRANCH   3  23
TORSDOF 4
ENDMDL
MODEL 6
REMARK VINA RESULT:      -8.5      3.083      6.561
REMARK  4 active torsions:
REMARK  status: ('A' for Active; 'I' for Inactive)
REMARK    1  A    between atoms: C_5  and  N_6 
REMARK       I    between atoms: N_6  and  C_7 
REMARK    2  A    between atoms: C_7  and  C_8 
REMARK    3  A    between atoms: N_10  and  C_11 
REMARK    4  A    between atoms: C_12  and  O_13 
ROOT
HETATM    1  C   UNL     1      22.610  48.421  48.820  1.00  0.00     0.086 A 
HETATM    2  C   UNL     1      21.861  47.580  47.851  1.00  0.00     0.186 A 
HETATM    3  N   UNL     1      22.233  46.368  47.565  1.00  0.00    -0.221 NA
HETATM    4  O   UNL     1      20.732  48.131  47.257  1.00  0.00    -0.290 OA
HETATM    5  C   UNL     1      20.275  49.416  47.588  1.00  0.00     0.088 A 
HETATM    6  C   UNL     1      20.953  50.186  48.524  1.00  0.00    -0.001 A 
HETATM    7  C   UNL     1      19.128  49.878  46.949  1.00  0.00     0.038 A 
HETATM    8  C   UNL     1      18.647  51.148  47.257  1.00  0.00     0.003 A 
HETATM    9  C   UNL     1      19.314  51.937  48.199  1.00  0.00     0.001 A 
HETATM   10  C   UNL     1      20.466  51.458  48.831  1.00  0.00     0.014 A 
HETATM   11  C   UNL     1      22.158  49.648  49.133  1.00  0.00     0.035 A 
ENDROOT
BRANCH   1  12
HETATM   12  C   UNL     1      23.901  47.997  49.475  1.00  0.00     0.260 C 
HETATM   13  N   UNL     1      23.933  46.685  49.891  1.00  0.00    -0.323 N 
HETATM   14  H   UNL     1      23.068  46.153  49.782  1.00  0.00     0.169 HD
HETATM   15  O   UNL     1      24.825  48.801  49.586  1.00  0.00    -0.267 OA
BRANCH  13  16
HETATM   16  C   UNL     1      25.022  45.958  50.412  1.00  0.00     0.035 A 
HETATM   17  C   UNL     1      26.041  45.407  49.636  1.00  0.00     0.030 A 
HETATM   18  C   UNL     1      27.063  44.660  50.234  1.00  0.00     0.009 A 
HETATM   19  C   UNL     1      27.088  44.462  51.618  1.00  0.00    -0.062 A 
HETATM   20  C   UNL     1      28.158  43.618  52.244  1.00  0.00     0.048 C 
HETATM   21  C   UNL     1      26.066  45.012  52.396  1.00  0.00     0.009 A 
HETATM   22  C   UNL     1      25.046  45.758  51.797  1.00  0.00     0.030 A 
ENDBRANCH  13  16
ENDBRANCH   1  12
BRANCH   3  23
HETATM   23  C   UNL     1      21.489  45.639  46.619  1.00  0.00     0.093 A 
HETATM   24  C   UNL     1      20.349  44.897  46.970  1.00  0.00     0.097 A 
HETATM   25  C   UNL     1      19.697  44.103  46.021  1.00  0.00     0.039 A 
HETATM   26  C   UNL     1      20.158  44.065  44.705  1.00  0.00     0.003 A 
HETATM   27  C   UNL     1      21.284  44.801  44.343  1.00  0.00     0.002 A 
HETATM   28  C   UNL     1      21.949  45.574  45.297  1.00  0.00     0.034 A 
BRANCH  24  29
HETATM   29  O   UNL     1      19.863  44.825  48.251  1.00  0.00    -0.354 OA
HETATM   30  C   UNL     1      18.630  45.527  48.395  1.00  0.00     0.210 C 
ENDBRANCH  24  29
ENDBRANCH   3  23
TORSDOF 4
ENDMDL
MODEL 7
REMARK VINA RESULT:      -8.4      1.961      7.849
REMARK  4 active torsions:
REMARK  status: ('A' for Active; 'I' for Inactive)
REMARK    1  A    between atoms: C_5  and  N_6 
REMARK       I    between atoms: N_6  and  C_7 
REMARK    2  A    between atoms: C_7  and  C_8 
REMARK    3  A    between atoms: N_10  and  C_11 
REMARK    4  A    between atoms: C_12  and  O_13 
ROOT
HETATM    1  C   UNL     1      25.057  46.816  50.722  1.00  0.00     0.086 A 
HETATM    2  C   UNL     1      24.996  45.388  50.319  1.00  0.00     0.186 A 
HETATM    3  N   UNL     1      24.485  45.017  49.183  1.00  0.00    -0.221 NA
HETATM    4  O   UNL     1      25.516  44.447  51.200  1.00  0.00    -0.290 OA
HETATM    5  C   UNL     1      26.125  44.823  52.408  1.00  0.00     0.088 A 
HETATM    6  C   UNL     1      26.216  46.163  52.765  1.00  0.00    -0.001 A 
HETATM    7  C   UNL     1      26.627  43.810  53.220  1.00  0.00     0.038 A 
HETATM    8  C   UNL     1      27.239  44.151  54.425  1.00  0.00     0.003 A 
HETATM    9  C   UNL     1      27.343  45.493  54.800  1.00  0.00     0.001 A 
HETATM   10  C   UNL     1      26.832  46.498  53.972  1.00  0.00     0.014 A 
HETATM   11  C   UNL     1      25.647  47.163  51.879  1.00  0.00     0.035 A 
ENDROOT
BRANCH   1  12
HETATM   12  C   UNL     1      24.453  47.940  49.916  1.00  0.00     0.260 C 
HETATM   13  N   UNL     1      23.086  47.872  49.765  1.00  0.00    -0.323 N 
HETATM   14  H   UNL     1      22.628  47.043  50.147  1.00  0.00     0.169 HD
HETATM   15  O   UNL     1      25.174  48.829  49.467  1.00  0.00    -0.267 OA
BRANCH  13  16
HETATM   16  C   UNL     1      22.220  48.822  49.187  1.00  0.00     0.035 A 
HETATM   17  C   UNL     1      22.224  50.180  49.501  1.00  0.00     0.030 A 
HETATM   18  C   UNL     1      21.296  51.047  48.909  1.00  0.00     0.009 A 
HETATM   19  C   UNL     1      20.359  50.571  47.987  1.00  0.00    -0.062 A 
HETATM   20  C   UNL     1      19.338  51.497  47.398  1.00  0.00     0.048 C 
HETATM   21  C   UNL     1      20.354  49.210  47.673  1.00  0.00     0.009 A 
HETATM   22  C   UNL     1      21.281  48.345  48.265  1.00  0.00     0.030 A 
ENDBRANCH  13  16
ENDBRANCH   1  12
BRANCH   3  23
HETATM   23  C   UNL     1      24.441  43.643  48.880  1.00  0.00     0.093 A 
HETATM   24  C   UNL     1      23.233  42.963  48.646  1.00  0.00     0.097 A 
HETATM   25  C   UNL     1      23.223  41.579  48.451  1.00  0.00     0.039 A 
HETATM   26  C   UNL     1      24.419  40.862  48.459  1.00  0.00     0.003 A 
HETATM   27  C   UNL     1      25.624  41.525  48.684  1.00  0.00     0.002 A 
HETATM   28  C   UNL     1      25.631  42.904  48.904  1.00  0.00     0.034 A 
BRANCH  24  29
HETATM   29  O   UNL     1      22.006  43.576  48.684  1.00  0.00    -0.354 OA
HETATM   30  C   UNL     1      21.557  43.950  47.383  1.00  0.00     0.210 C 
ENDBRANCH  24  29
ENDBRANCH   3  23
TORSDOF 4
ENDMDL
MODEL 8
REMARK VINA RESULT:      -8.4      4.634      8.320
REMARK  4 active torsions:
REMARK  status: ('A' for Active; 'I' for Inactive)
REMARK    1  A    between atoms: C_5  and  N_6 
REMARK       I    between atoms: N_6  and  C_7 
REMARK    2  A    between atoms: C_7  and  C_8 
REMARK    3  A    between atoms: N_10  and  C_11 
REMARK    4  A    between atoms: C_12  and  O_13 
ROOT
HETATM    1  C   UNL     1      20.165  50.334  49.379  1.00  0.00     0.086 A 
HETATM    2  C   UNL     1      19.474  49.305  48.560  1.00  0.00     0.186 A 
HETATM    3  N   UNL     1      20.078  48.224  48.163  1.00  0.00    -0.221 NA
HETATM    4  O   UNL     1      18.142  49.529  48.232  1.00  0.00    -0.290 OA
HETATM    5  C   UNL     1      17.448  50.660  48.693  1.00  0.00     0.088 A 
HETATM    6  C   UNL     1      18.085  51.601  49.492  1.00  0.00    -0.001 A 
HETATM    7  C   UNL     1      16.114  50.793  48.321  1.00  0.00     0.038 A 
HETATM    8  C   UNL     1      15.397  51.902  48.765  1.00  0.00     0.003 A 
HETATM    9  C   UNL     1      16.018  52.859  49.571  1.00  0.00     0.001 A 
HETATM   10  C   UNL     1      17.361  52.709  49.934  1.00  0.00     0.014 A 
HETATM   11  C   UNL     1      19.488  51.408  49.818  1.00  0.00     0.035 A 
ENDROOT
BRANCH   1  12
HETATM   12  C   UNL     1      21.630  50.274  49.736  1.00  0.00     0.260 C 
HETATM   13  N   UNL     1      22.349  49.310  49.065  1.00  0.00    -0.323 N 
HETATM   14  H   UNL     1      21.815  48.691  48.453  1.00  0.00     0.169 HD
HETATM   15  O   UNL     1      22.093  51.063  50.558  1.00  0.00    -0.267 OA
BRANCH  13  16
HETATM   16  C   UNL     1      23.740  49.088  49.077  1.00  0.00     0.035 A 
HETATM   17  C   UNL     1      24.364  48.050  49.768  1.00  0.00     0.030 A 
HETATM   18  C   UNL     1      25.760  47.931  49.760  1.00  0.00     0.009 A 
HETATM   19  C   UNL     1      26.551  48.841  49.052  1.00  0.00    -0.062 A 
HETATM   20  C   UNL     1      28.046  48.734  49.091  1.00  0.00     0.048 C 
HETATM   21  C   UNL     1      25.926  49.881  48.361  1.00  0.00     0.009 A 
HETATM   22  C   UNL     1      24.533  49.999  48.370  1.00  0.00     0.030 A 
ENDBRANCH  13  16
ENDBRANCH   1  12
BRANCH   3  23
HETATM   23  C   UNL     1      19.366  47.306  47.370  1.00  0.00     0.093 A 
HETATM   24  C   UNL     1      19.229  45.953  47.725  1.00  0.00     0.097 A 
HETATM   25  C   UNL     1      18.603  45.051  46.860  1.00  0.00     0.039 A 
HETATM   26  C   UNL     1      18.081  45.493  45.645  1.00  0.00     0.003 A 
HETATM   27  C   UNL     1      18.206  46.833  45.283  1.00  0.00     0.002 A 
HETATM   28  C   UNL     1      18.853  47.729  46.137  1.00  0.00     0.034 A 
BRANCH  24  29
HETATM   29  O   UNL     1      19.765  45.418  48.869  1.00  0.00    -0.354 OA
HETATM   30  C   UNL     1      21.065  44.875  48.645  1.00  0.00     0.210 C 
ENDBRANCH  24  29
ENDBRANCH   3  23
TORSDOF 4
ENDMDL
MODEL 9
REMARK VINA RESULT:      -8.4      1.574      2.108
REMARK  4 active torsions:
REMARK  status: ('A' for Active; 'I' for Inactive)
REMARK    1  A    between atoms: C_5  and  N_6 
REMARK       I    between atoms: N_6  and  C_7 
REMARK    2  A    between atoms: C_7  and  C_8 
REMARK    3  A    between atoms: N_10  and  C_11 
REMARK    4  A    between atoms: C_12  and  O_13 
ROOT
HETATM    1  C   UNL     1      24.790  45.534  49.523  1.00  0.00     0.086 A 
HETATM    2  C   UNL     1      24.005  46.727  49.114  1.00  0.00     0.186 A 
HETATM    3  N   UNL     1      24.321  47.924  49.508  1.00  0.00    -0.221 NA
HETATM    4  O   UNL     1      22.912  46.525  48.279  1.00  0.00    -0.290 OA
HETATM    5  C   UNL     1      22.580  45.251  47.792  1.00  0.00     0.088 A 
HETATM    6  C   UNL     1      23.339  44.141  48.143  1.00  0.00    -0.001 A 
HETATM    7  C   UNL     1      21.475  45.149  46.952  1.00  0.00     0.038 A 
HETATM    8  C   UNL     1      21.121  43.898  46.450  1.00  0.00     0.003 A 
HETATM    9  C   UNL     1      21.873  42.771  46.790  1.00  0.00     0.001 A 
HETATM   10  C   UNL     1      22.981  42.891  47.636  1.00  0.00     0.014 A 
HETATM   11  C   UNL     1      24.465  44.320  49.045  1.00  0.00     0.035 A 
ENDROOT
BRANCH   1  12
HETATM   12  C   UNL     1      25.943  45.583  50.495  1.00  0.00     0.260 C 
HETATM   13  N   UNL     1      25.592  45.887  51.791  1.00  0.00    -0.323 N 
HETATM   14  H   UNL     1      24.610  46.117  51.953  1.00  0.00     0.169 HD
HETATM   15  O   UNL     1      27.085  45.344  50.105  1.00  0.00    -0.267 OA
BRANCH  13  16
HETATM   16  C   UNL     1      26.404  45.883  52.942  1.00  0.00     0.035 A 
HETATM   17  C   UNL     1      26.940  44.733  53.520  1.00  0.00     0.030 A 
HETATM   18  C   UNL     1      27.702  44.817  54.692  1.00  0.00     0.009 A 
HETATM   19  C   UNL     1      27.949  46.053  55.298  1.00  0.00    -0.062 A 
HETATM   20  C   UNL     1      28.722  46.127  56.580  1.00  0.00     0.048 C 
HETATM   21  C   UNL     1      27.410  47.205  54.720  1.00  0.00     0.009 A 
HETATM   22  C   UNL     1      26.650  47.120  53.550  1.00  0.00     0.030 A 
ENDBRANCH  13  16
ENDBRANCH   1  12
BRANCH   3  23
HETATM   23  C   UNL     1      23.517  49.004  49.100  1.00  0.00     0.093 A 
HETATM   24  C   UNL     1      23.914  49.899  48.092  1.00  0.00     0.097 A 
HETATM   25  C   UNL     1      23.134  51.018  47.787  1.00  0.00     0.039 A 
HETATM   26  C   UNL     1      21.935  51.241  48.463  1.00  0.00     0.003 A 
HETATM   27  C   UNL     1      21.527  50.358  49.460  1.00  0.00     0.002 A 
HETATM   28  C   UNL     1      22.318  49.253  49.782  1.00  0.00     0.034 A 
BRANCH  24  29
HETATM   29  O   UNL     1      25.107  49.794  47.421  1.00  0.00    -0.354 OA
HETATM   30  C   UNL     1      26.218  50.122  48.253  1.00  0.00     0.210 C 
ENDBRANCH  24  29
ENDBRANCH   3  23
TORSDOF 4
ENDMDL
MODEL 10
REMARK VINA RESULT:      -8.3      2.612      7.122
REMARK  4 active torsions:
REMARK  status: ('A' for Active; 'I' for Inactive)
REMARK    1  A    between atoms: C_5  and  N_6 
REMARK       I    between atoms: N_6  and  C_7 
REMARK    2  A    between atoms: C_7  and  C_8 
REMARK    3  A    between atoms: N_10  and  C_11 
REMARK    4  A    between atoms: C_12  and  O_13 
ROOT
HETATM    1  C   UNL     1      26.174  43.560  51.353  1.00  0.00     0.086 A 
HETATM    2  C   UNL     1      27.254  43.515  52.372  1.00  0.00     0.186 A 
HETATM    3  N   UNL     1      27.411  44.465  53.246  1.00  0.00    -0.221 NA
HETATM    4  O   UNL     1      28.098  42.411  52.369  1.00  0.00    -0.290 OA
HETATM    5  C   UNL     1      27.918  41.346  51.473  1.00  0.00     0.088 A 
HETATM    6  C   UNL     1      26.883  41.370  50.547  1.00  0.00    -0.001 A 
HETATM    7  C   UNL     1      28.807  40.278  51.553  1.00  0.00     0.038 A 
HETATM    8  C   UNL     1      28.653  39.204  50.680  1.00  0.00     0.003 A 
HETATM    9  C   UNL     1      27.616  39.208  49.743  1.00  0.00     0.001 A 
HETATM   10  C   UNL     1      26.732  40.290  49.676  1.00  0.00     0.014 A 
HETATM   11  C   UNL     1      26.008  42.530  50.505  1.00  0.00     0.035 A 
ENDROOT
BRANCH   1  12
HETATM   12  C   UNL     1      25.239  44.731  51.174  1.00  0.00     0.260 C 
HETATM   13  N   UNL     1      25.594  45.603  50.168  1.00  0.00    -0.323 N 
HETATM   14  H   UNL     1      26.479  45.414  49.696  1.00  0.00     0.169 HD
HETATM   15  O   UNL     1      24.245  44.837  51.889  1.00  0.00    -0.267 OA
BRANCH  13  16
HETATM   16  C   UNL     1      24.872  46.705  49.670  1.00  0.00     0.035 A 
HETATM   17  C   UNL     1      23.550  46.644  49.230  1.00  0.00     0.030 A 
HETATM   18  C   UNL     1      22.923  47.783  48.708  1.00  0.00     0.009 A 
HETATM   19  C   UNL     1      23.604  49.002  48.629  1.00  0.00    -0.062 A 
HETATM   20  C   UNL     1      22.941  50.202  48.022  1.00  0.00     0.048 C 
HETATM   21  C   UNL     1      24.928  49.063  49.069  1.00  0.00     0.009 A 
HETATM   22  C   UNL     1      25.553  47.926  49.590  1.00  0.00     0.030 A 
ENDBRANCH  13  16
ENDBRANCH   1  12
BRANCH   3  23
HETATM   23  C   UNL     1      28.472  44.365  54.166  1.00  0.00     0.093 A 
HETATM   24  C   UNL     1      28.605  45.240  55.257  1.00  0.00     0.097 A 
HETATM   25  C   UNL     1      29.728  45.175  56.088  1.00  0.00     0.039 A 
HETATM   26  C   UNL     1      30.715  44.217  55.856  1.00  0.00     0.003 A 
HETATM   27  C   UNL     1      30.592  43.341  54.780  1.00  0.00     0.002 A 
HETATM   28  C   UNL     1      29.483  43.422  53.936  1.00  0.00     0.034 A 
BRANCH  24  29
HETATM   29  O   UNL     1      27.717  46.251  55.523  1.00  0.00    -0.354 OA
HETATM   30  C   UNL     1      28.093  47.472  54.887  1.00  0.00     0.210 C 
ENDBRANCH  24  29
ENDBRANCH   3  23
TORSDOF 4
ENDMDL
