MODEL 1
REMARK VINA RESULT:     -11.0      0.000      0.000
REMARK  6 active torsions:
REMARK  status: ('A' for Active; 'I' for Inactive)
REMARK    1  A    between atoms: C_9  and  C_10 
REMARK       I    between atoms: C_10  and  N_11 
REMARK    2  A    between atoms: N_11  and  N_12 
REMARK       I    between atoms: N_12  and  C_13 
REMARK    3  A    between atoms: C_13  and  C_14 
REMARK    4  A    between atoms: C_14  and  O_15 
REMARK    5  A    between atoms: O_15  and  C_16 
REMARK    6  A    between atoms: C_17  and  C_18 
ROOT
HETATM    1  N   UNL     1      25.672  46.204  52.153  1.00  0.00    -0.265 N 
HETATM    2  C   UNL     1      25.889  46.645  53.447  1.00  0.00     0.260 C 
HETATM    3  O   UNL     1      25.660  47.793  53.825  1.00  0.00    -0.269 OA
HETATM    4  H   UNL     1      26.052  45.323  51.817  1.00  0.00     0.190 HD
ENDROOT
BRANCH   1   5
HETATM    5  N   UNL     1      25.271  47.133  51.190  1.00  0.00    -0.262 N 
HETATM    6  C   UNL     1      25.939  47.209  49.977  1.00  0.00     0.291 C 
HETATM    7  O   UNL     1      26.746  46.365  49.593  1.00  0.00    -0.264 OA
HETATM    8  H   UNL     1      24.798  47.980  51.507  1.00  0.00     0.190 HD
BRANCH   6   9
HETATM    9  C   UNL     1      25.562  48.404  49.205  1.00  0.00     0.158 A 
HETATM   10  C   UNL     1      24.255  48.929  48.975  1.00  0.00     0.029 A 
HETATM   11  C   UNL     1      22.936  48.570  49.323  1.00  0.00     0.023 A 
HETATM   12  C   UNL     1      24.455  50.073  48.211  1.00  0.00     0.063 A 
HETATM   13  C   UNL     1      21.865  49.376  48.898  1.00  0.00    -0.061 A 
HETATM   14  C   UNL     1      20.449  49.000  49.229  1.00  0.00     0.048 C 
HETATM   15  C   UNL     1      22.114  50.520  48.130  1.00  0.00     0.009 A 
HETATM   16  C   UNL     1      23.413  50.894  47.773  1.00  0.00     0.032 A 
HETATM   17  N   UNL     1      25.806  50.154  48.026  1.00  0.00    -0.277 N 
HETATM   18  H   UNL     1      26.314  50.865  47.512  1.00  0.00     0.189 HD
HETATM   19  N   UNL     1      26.507  49.165  48.606  1.00  0.00    -0.168 NA
ENDBRANCH   6   9
ENDBRANCH   1   5
BRANCH   2  20
HETATM   20  C   UNL     1      26.429  45.562  54.375  1.00  0.00     0.280 C 
BRANCH  20  21
HETATM   21  O   UNL     1      27.847  45.530  54.417  1.00  0.00    -0.341 OA
BRANCH  21  22
HETATM   22  C   UNL     1      28.510  44.463  53.862  1.00  0.00     0.080 A 
HETATM   23  C   UNL     1      29.576  43.925  54.621  1.00  0.00     0.007 A 
HETATM   24  C   UNL     1      30.279  42.816  54.104  1.00  0.00     0.015 A 
HETATM   25  C   UNL     1      29.949  42.258  52.871  1.00  0.00     0.001 A 
HETATM   26  C   UNL     1      28.909  42.802  52.128  1.00  0.00     0.003 A 
HETATM   27  C   UNL     1      28.194  43.897  52.619  1.00  0.00     0.037 A 
BRANCH  23  28
HETATM   28  C   UNL     1      29.995  44.486  55.922  1.00  0.00    -0.023 A 
HETATM   29  C   UNL     1      29.359  45.610  56.473  1.00  0.00     0.012 A 
HETATM   30  C   UNL     1      29.749  46.120  57.714  1.00  0.00     0.001 A 
HETATM   31  C   UNL     1      30.779  45.512  58.428  1.00  0.00     0.000 A 
HETATM   32  C   UNL     1      31.421  44.394  57.900  1.00  0.00     0.001 A 
HETATM   33  C   UNL     1      31.032  43.887  56.659  1.00  0.00     0.012 A 
ENDBRANCH  23  28
ENDBRANCH  21  22
ENDBRANCH  20  21
ENDBRANCH   2  20
TORSDOF 6
ENDMDL
MODEL 2
REMARK VINA RESULT:     -11.0      0.899      3.293
REMARK  6 active torsions:
REMARK  status: ('A' for Active; 'I' for Inactive)
REMARK    1  A    between atoms: C_9  and  C_10 
REMARK       I    between atoms: C_10  and  N_11 
REMARK    2  A    between atoms: N_11  and  N_12 
REMARK       I    between atoms: N_12  and  C_13 
REMARK    3  A    between atoms: C_13  and  C_14 
REMARK    4  A    between atoms: C_14  and  O_15 
REMARK    5  A    between atoms: O_15  and  C_16 
REMARK    6  A    between atoms: C_17  and  C_18 
ROOT
HETATM    1  N   UNL     1      26.083  46.630  52.654  1.00  0.00    -0.265 N 
HETATM    2  C   UNL     1      25.994  47.116  53.946  1.00  0.00     0.260 C 
HETATM    3  O   UNL     1      25.467  48.189  54.238  1.00  0.00    -0.269 OA
HETATM    4  H   UNL     1      26.692  45.851  52.415  1.00  0.00     0.190 HD
ENDROOT
BRANCH   1   5
HETATM    5  N   UNL     1      25.648  47.442  51.603  1.00  0.00    -0.262 N 
HETATM    6  C   UNL     1      26.126  47.233  50.319  1.00  0.00     0.291 C 
HETATM    7  O   UNL     1      26.762  46.235  49.986  1.00  0.00    -0.264 OA
HETATM    8  H   UNL     1      25.329  48.385  51.827  1.00  0.00     0.190 HD
BRANCH   6   9
HETATM    9  C   UNL     1      25.774  48.332  49.405  1.00  0.00     0.158 A 
HETATM   10  C   UNL     1      24.474  48.804  49.054  1.00  0.00     0.029 A 
HETATM   11  C   UNL     1      23.144  48.459  49.370  1.00  0.00     0.023 A 
HETATM   12  C   UNL     1      24.699  49.864  48.183  1.00  0.00     0.063 A 
HETATM   13  C   UNL     1      22.085  49.194  48.807  1.00  0.00    -0.061 A 
HETATM   14  C   UNL     1      20.659  48.827  49.103  1.00  0.00     0.048 C 
HETATM   15  C   UNL     1      22.359  50.255  47.935  1.00  0.00     0.009 A 
HETATM   16  C   UNL     1      23.670  50.614  47.607  1.00  0.00     0.032 A 
HETATM   17  N   UNL     1      26.056  49.952  48.061  1.00  0.00    -0.277 N 
HETATM   18  H   UNL     1      26.581  50.614  47.500  1.00  0.00     0.189 HD
HETATM   19  N   UNL     1      26.739  49.043  48.777  1.00  0.00    -0.168 NA
ENDBRANCH   6   9
ENDBRANCH   1   5
BRANCH   2  20
HETATM   20  C   UNL     1      26.603  46.184  54.989  1.00  0.00     0.280 C 
BRANCH  20  21
HETATM   21  O   UNL     1      27.446  45.196  54.418  1.00  0.00    -0.341 OA
BRANCH  21  22
HETATM   22  C   UNL     1      28.645  44.907  55.024  1.00  0.00     0.080 A 
HETATM   23  C   UNL     1      29.354  43.796  54.510  1.00  0.00     0.007 A 
HETATM   24  C   UNL     1      30.599  43.467  55.085  1.00  0.00     0.015 A 
HETATM   25  C   UNL     1      31.128  44.204  56.143  1.00  0.00     0.001 A 
HETATM   26  C   UNL     1      30.417  45.284  56.649  1.00  0.00     0.003 A 
HETATM   27  C   UNL     1      29.184  45.635  56.094  1.00  0.00     0.037 A 
BRANCH  23  28
HETATM   28  C   UNL     1      28.838  42.957  53.409  1.00  0.00    -0.023 A 
HETATM   29  C   UNL     1      28.708  41.567  53.547  1.00  0.00     0.012 A 
HETATM   30  C   UNL     1      28.198  40.785  52.506  1.00  0.00     0.001 A 
HETATM   31  C   UNL     1      27.807  41.382  51.311  1.00  0.00     0.000 A 
HETATM   32  C   UNL     1      27.926  42.761  51.154  1.00  0.00     0.001 A 
HETATM   33  C   UNL     1      28.437  43.540  52.194  1.00  0.00     0.012 A 
ENDBRANCH  23  28
ENDBRANCH  21  22
ENDBRANCH  20  21
ENDBRANCH   2  20
TORSDOF 6
ENDMDL
MODEL 3
REMARK VINA RESULT:     -10.9      1.964      9.472
REMARK  6 active torsions:
REMARK  status: ('A' for Active; 'I' for Inactive)
REMARK    1  A    between atoms: C_9  and  C_10 
REMARK       I    between atoms: C_10  and  N_11 
REMARK    2  A    between atoms: N_11  and  N_12 
REMARK       I    between atoms: N_12  and  C_13 
REMARK    3  A    between atoms: C_13  and  C_14 
REMARK    4  A    between atoms: C_14  and  O_15 
REMARK    5  A    between atoms: O_15  and  C_16 
REMARK    6  A    between atoms: C_17  and  C_18 
ROOT
HETATM    1  N   UNL     1      25.273  46.210  52.400  1.00  0.00    -0.265 N 
HETATM    2  C   UNL     1      25.253  45.536  51.192  1.00  0.00     0.260 C 
HETATM    3  O   UNL     1      25.941  44.545  50.950  1.00  0.00    -0.269 OA
HETATM    4  H   UNL     1      24.854  47.130  52.508  1.00  0.00     0.190 HD
ENDROOT
BRANCH   1   5
HETATM    5  N   UNL     1      26.200  45.817  53.369  1.00  0.00    -0.262 N 
HETATM    6  C   UNL     1      26.501  46.659  54.427  1.00  0.00     0.291 C 
HETATM    7  O   UNL     1      25.850  47.666  54.698  1.00  0.00    -0.264 OA
HETATM    8  H   UNL     1      26.919  45.143  53.099  1.00  0.00     0.190 HD
BRANCH   6   9
HETATM    9  C   UNL     1      27.676  46.206  55.188  1.00  0.00     0.158 A 
HETATM   10  C   UNL     1      28.558  45.125  54.886  1.00  0.00     0.029 A 
HETATM   11  C   UNL     1      28.661  44.144  53.878  1.00  0.00     0.023 A 
HETATM   12  C   UNL     1      29.506  45.138  55.903  1.00  0.00     0.063 A 
HETATM   13  C   UNL     1      29.717  43.215  53.921  1.00  0.00    -0.061 A 
HETATM   14  C   UNL     1      29.831  42.142  52.878  1.00  0.00     0.048 C 
HETATM   15  C   UNL     1      30.650  43.267  54.964  1.00  0.00     0.009 A 
HETATM   16  C   UNL     1      30.566  44.231  55.975  1.00  0.00     0.032 A 
HETATM   17  N   UNL     1      29.146  46.171  56.721  1.00  0.00    -0.277 N 
HETATM   18  H   UNL     1      29.613  46.475  57.568  1.00  0.00     0.189 HD
HETATM   19  N   UNL     1      28.047  46.835  56.327  1.00  0.00    -0.168 NA
ENDBRANCH   6   9
ENDBRANCH   1   5
BRANCH   2  20
HETATM   20  C   UNL     1      24.276  46.131  50.182  1.00  0.00     0.280 C 
BRANCH  20  21
HETATM   21  O   UNL     1      24.182  47.543  50.274  1.00  0.00    -0.341 OA
BRANCH  21  22
HETATM   22  C   UNL     1      25.097  48.321  49.608  1.00  0.00     0.080 A 
HETATM   23  C   UNL     1      24.571  49.383  48.834  1.00  0.00     0.007 A 
HETATM   24  C   UNL     1      25.470  50.222  48.143  1.00  0.00     0.015 A 
HETATM   25  C   UNL     1      26.847  50.018  48.204  1.00  0.00     0.001 A 
HETATM   26  C   UNL     1      27.351  48.965  48.955  1.00  0.00     0.003 A 
HETATM   27  C   UNL     1      26.484  48.121  49.653  1.00  0.00     0.037 A 
BRANCH  23  28
HETATM   28  C   UNL     1      23.122  49.637  48.706  1.00  0.00    -0.023 A 
HETATM   29  C   UNL     1      22.509  50.720  49.355  1.00  0.00     0.012 A 
HETATM   30  C   UNL     1      21.140  50.963  49.210  1.00  0.00     0.001 A 
HETATM   31  C   UNL     1      20.362  50.130  48.410  1.00  0.00     0.000 A 
HETATM   32  C   UNL     1      20.951  49.050  47.756  1.00  0.00     0.001 A 
HETATM   33  C   UNL     1      22.319  48.807  47.904  1.00  0.00     0.012 A 
ENDBRANCH  23  28
ENDBRANCH  21  22
ENDBRANCH  20  21
ENDBRANCH   2  20
TORSDOF 6
ENDMDL
MODEL 4
REMARK VINA RESULT:     -10.7      2.316      9.151
REMARK  6 active torsions:
REMARK  status: ('A' for Active; 'I' for Inactive)
REMARK    1  A    between atoms: C_9  and  C_10 
REMARK       I    between atoms: C_10  and  N_11 
REMARK    2  A    between atoms: N_11  and  N_12 
REMARK       I    between atoms: N_12  and  C_13 
REMARK    3  A    between atoms: C_13  and  C_14 
REMARK    4  A    between atoms: C_14  and  O_15 
REMARK    5  A    between atoms: O_15  and  C_16 
REMARK    6  A    between atoms: C_17  and  C_18 
ROOT
HETATM    1  N   UNL     1      23.494  45.161  50.252  1.00  0.00    -0.265 N 
HETATM    2  C   UNL     1      23.314  45.191  48.880  1.00  0.00     0.260 C 
HETATM    3  O   UNL     1      23.906  44.450  48.097  1.00  0.00    -0.269 OA
HETATM    4  H   UNL     1      23.152  45.905  50.854  1.00  0.00     0.190 HD
ENDROOT
BRANCH   1   5
HETATM    5  N   UNL     1      24.479  44.320  50.777  1.00  0.00    -0.262 N 
HETATM    6  C   UNL     1      25.309  44.770  51.792  1.00  0.00     0.291 C 
HETATM    7  O   UNL     1      25.109  45.807  52.422  1.00  0.00    -0.264 OA
HETATM    8  H   UNL     1      24.845  43.578  50.179  1.00  0.00     0.190 HD
BRANCH   6   9
HETATM    9  C   UNL     1      26.442  43.863  52.032  1.00  0.00     0.158 A 
HETATM   10  C   UNL     1      27.470  43.979  53.016  1.00  0.00     0.029 A 
HETATM   11  C   UNL     1      27.812  44.896  54.031  1.00  0.00     0.023 A 
HETATM   12  C   UNL     1      28.273  42.859  52.832  1.00  0.00     0.063 A 
HETATM   13  C   UNL     1      28.943  44.654  54.831  1.00  0.00    -0.061 A 
HETATM   14  C   UNL     1      29.346  45.630  55.899  1.00  0.00     0.048 C 
HETATM   15  C   UNL     1      29.722  43.511  54.611  1.00  0.00     0.009 A 
HETATM   16  C   UNL     1      29.402  42.588  53.610  1.00  0.00     0.032 A 
HETATM   17  N   UNL     1      27.711  42.176  51.791  1.00  0.00    -0.277 N 
HETATM   18  H   UNL     1      28.033  41.307  51.382  1.00  0.00     0.189 HD
HETATM   19  N   UNL     1      26.610  42.751  51.280  1.00  0.00    -0.168 NA
ENDBRANCH   6   9
ENDBRANCH   1   5
BRANCH   2  20
HETATM   20  C   UNL     1      22.290  46.227  48.426  1.00  0.00     0.280 C 
BRANCH  20  21
HETATM   21  O   UNL     1      22.888  47.362  47.820  1.00  0.00    -0.341 OA
BRANCH  21  22
HETATM   22  C   UNL     1      22.369  48.608  48.073  1.00  0.00     0.080 A 
HETATM   23  C   UNL     1      23.278  49.578  48.561  1.00  0.00     0.007 A 
HETATM   24  C   UNL     1      22.799  50.879  48.820  1.00  0.00     0.015 A 
HETATM   25  C   UNL     1      21.462  51.215  48.614  1.00  0.00     0.001 A 
HETATM   26  C   UNL     1      20.577  50.253  48.148  1.00  0.00     0.003 A 
HETATM   27  C   UNL     1      21.026  48.958  47.878  1.00  0.00     0.037 A 
BRANCH  23  28
HETATM   28  C   UNL     1      24.700  49.279  48.826  1.00  0.00    -0.023 A 
HETATM   29  C   UNL     1      25.081  48.216  49.659  1.00  0.00     0.012 A 
HETATM   30  C   UNL     1      26.430  47.929  49.886  1.00  0.00     0.001 A 
HETATM   31  C   UNL     1      27.420  48.699  49.282  1.00  0.00     0.000 A 
HETATM   32  C   UNL     1      27.063  49.758  48.450  1.00  0.00     0.001 A 
HETATM   33  C   UNL     1      25.715  50.044  48.225  1.00  0.00     0.012 A 
ENDBRANCH  23  28
ENDBRANCH  21  22
ENDBRANCH  20  21
ENDBRANCH   2  20
TORSDOF 6
ENDMDL
MODEL 5
REMARK VINA RESULT:     -10.7      1.951      9.696
REMARK  6 active torsions:
REMARK  status: ('A' for Active; 'I' for Inactive)
REMARK    1  A    between atoms: C_9  and  C_10 
REMARK       I    between atoms: C_10  and  N_11 
REMARK    2  A    between atoms: N_11  and  N_12 
REMARK       I    between atoms: N_12  and  C_13 
REMARK    3  A    between atoms: C_13  and  C_14 
REMARK    4  A    between atoms: C_14  and  O_15 
REMARK    5  A    between atoms: O_15  and  C_16 
REMARK    6  A    between atoms: C_17  and  C_18 
ROOT
HETATM    1  N   UNL     1      24.898  45.245  51.495  1.00  0.00    -0.265 N 
HETATM    2  C   UNL     1      24.813  45.219  50.114  1.00  0.00     0.260 C 
HETATM    3  O   UNL     1      25.528  44.520  49.397  1.00  0.00    -0.269 OA
HETATM    4  H   UNL     1      24.444  45.968  52.046  1.00  0.00     0.190 HD
ENDROOT
BRANCH   1   5
HETATM    5  N   UNL     1      25.919  44.520  52.114  1.00  0.00    -0.262 N 
HETATM    6  C   UNL     1      26.819  45.162  52.951  1.00  0.00     0.291 C 
HETATM    7  O   UNL     1      26.662  46.310  53.363  1.00  0.00    -0.264 OA
HETATM    8  H   UNL     1      26.244  43.665  51.660  1.00  0.00     0.190 HD
BRANCH   6   9
HETATM    9  C   UNL     1      27.969  44.311  53.296  1.00  0.00     0.158 A 
HETATM   10  C   UNL     1      28.848  44.429  54.414  1.00  0.00     0.029 A 
HETATM   11  C   UNL     1      28.990  45.302  55.512  1.00  0.00     0.023 A 
HETATM   12  C   UNL     1      29.741  43.371  54.284  1.00  0.00     0.063 A 
HETATM   13  C   UNL     1      30.019  45.079  56.445  1.00  0.00    -0.061 A 
HETATM   14  C   UNL     1      30.211  46.013  57.606  1.00  0.00     0.048 C 
HETATM   15  C   UNL     1      30.895  44.000  56.274  1.00  0.00     0.009 A 
HETATM   16  C   UNL     1      30.772  43.122  55.192  1.00  0.00     0.032 A 
HETATM   17  N   UNL     1      29.368  42.720  53.142  1.00  0.00    -0.277 N 
HETATM   18  H   UNL     1      29.799  41.898  52.736  1.00  0.00     0.189 HD
HETATM   19  N   UNL     1      28.308  43.258  52.516  1.00  0.00    -0.168 NA
ENDBRANCH   6   9
ENDBRANCH   1   5
BRANCH   2  20
HETATM   20  C   UNL     1      23.729  46.137  49.555  1.00  0.00     0.280 C 
BRANCH  20  21
HETATM   21  O   UNL     1      23.861  47.477  49.999  1.00  0.00    -0.341 OA
BRANCH  21  22
HETATM   22  C   UNL     1      24.824  48.278  49.433  1.00  0.00     0.080 A 
HETATM   23  C   UNL     1      24.359  49.409  48.721  1.00  0.00     0.007 A 
HETATM   24  C   UNL     1      25.307  50.273  48.136  1.00  0.00     0.015 A 
HETATM   25  C   UNL     1      26.675  50.027  48.240  1.00  0.00     0.001 A 
HETATM   26  C   UNL     1      27.120  48.907  48.929  1.00  0.00     0.003 A 
HETATM   27  C   UNL     1      26.202  48.038  49.523  1.00  0.00     0.037 A 
BRANCH  23  28
HETATM   28  C   UNL     1      22.923  49.712  48.551  1.00  0.00    -0.023 A 
HETATM   29  C   UNL     1      22.101  48.924  47.731  1.00  0.00     0.012 A 
HETATM   30  C   UNL     1      20.739  49.207  47.593  1.00  0.00     0.001 A 
HETATM   31  C   UNL     1      20.176  50.281  48.277  1.00  0.00     0.000 A 
HETATM   32  C   UNL     1      20.974  51.075  49.098  1.00  0.00     0.001 A 
HETATM   33  C   UNL     1      22.334  50.792  49.233  1.00  0.00     0.012 A 
ENDBRANCH  23  28
ENDBRANCH  21  22
ENDBRANCH  20  21
ENDBRANCH   2  20
TORSDOF 6
ENDMDL
MODEL 6
REMARK VINA RESULT:     -10.4      2.554     10.452
REMARK  6 active torsions:
REMARK  status: ('A' for Active; 'I' for Inactive)
REMARK    1  A    between atoms: C_9  and  C_10 
REMARK       I    between atoms: C_10  and  N_11 
REMARK    2  A    between atoms: N_11  and  N_12 
REMARK       I    between atoms: N_12  and  C_13 
REMARK    3  A    between atoms: C_13  and  C_14 
REMARK    4  A    between atoms: C_14  and  O_15 
REMARK    5  A    between atoms: O_15  and  C_16 
REMARK    6  A    between atoms: C_17  and  C_18 
ROOT
HETATM    1  N   UNL     1      24.038  46.835  50.319  1.00  0.00    -0.265 N 
HETATM    2  C   UNL     1      23.810  47.895  49.458  1.00  0.00     0.260 C 
HETATM    3  O   UNL     1      24.466  48.936  49.467  1.00  0.00    -0.269 OA
HETATM    4  H   UNL     1      23.366  46.080  50.428  1.00  0.00     0.190 HD
ENDROOT
BRANCH   1   5
HETATM    5  N   UNL     1      24.993  46.988  51.327  1.00  0.00    -0.262 N 
HETATM    6  C   UNL     1      25.102  46.038  52.331  1.00  0.00     0.291 C 
HETATM    7  O   UNL     1      24.547  44.942  52.291  1.00  0.00    -0.264 OA
HETATM    8  H   UNL     1      25.305  47.933  51.552  1.00  0.00     0.190 HD
BRANCH   6   9
HETATM    9  C   UNL     1      25.961  46.489  53.437  1.00  0.00     0.158 A 
HETATM   10  C   UNL     1      27.101  45.832  53.991  1.00  0.00     0.029 A 
HETATM   11  C   UNL     1      27.792  44.624  53.766  1.00  0.00     0.023 A 
HETATM   12  C   UNL     1      27.558  46.685  54.990  1.00  0.00     0.063 A 
HETATM   13  C   UNL     1      28.922  44.317  54.544  1.00  0.00    -0.061 A 
HETATM   14  C   UNL     1      29.657  43.022  54.345  1.00  0.00     0.048 C 
HETATM   15  C   UNL     1      29.347  45.206  55.539  1.00  0.00     0.009 A 
HETATM   16  C   UNL     1      28.676  46.410  55.780  1.00  0.00     0.032 A 
HETATM   17  N   UNL     1      26.698  47.746  54.983  1.00  0.00    -0.277 N 
HETATM   18  H   UNL     1      26.726  48.563  55.582  1.00  0.00     0.189 HD
HETATM   19  N   UNL     1      25.721  47.663  54.065  1.00  0.00    -0.168 NA
ENDBRANCH   6   9
ENDBRANCH   1   5
BRANCH   2  20
HETATM   20  C   UNL     1      22.669  47.645  48.476  1.00  0.00     0.280 C 
BRANCH  20  21
HETATM   21  O   UNL     1      21.409  48.053  48.983  1.00  0.00    -0.341 OA
BRANCH  21  22
HETATM   22  C   UNL     1      20.290  47.322  48.665  1.00  0.00     0.080 A 
HETATM   23  C   UNL     1      19.090  48.054  48.499  1.00  0.00     0.007 A 
HETATM   24  C   UNL     1      17.916  47.352  48.155  1.00  0.00     0.015 A 
HETATM   25  C   UNL     1      17.919  45.968  47.987  1.00  0.00     0.001 A 
HETATM   26  C   UNL     1      19.099  45.259  48.164  1.00  0.00     0.003 A 
HETATM   27  C   UNL     1      20.278  45.930  48.501  1.00  0.00     0.037 A 
BRANCH  23  28
HETATM   28  C   UNL     1      19.012  49.516  48.690  1.00  0.00    -0.023 A 
HETATM   29  C   UNL     1      19.598  50.405  47.775  1.00  0.00     0.012 A 
HETATM   30  C   UNL     1      19.501  51.788  47.954  1.00  0.00     0.001 A 
HETATM   31  C   UNL     1      18.813  52.305  49.049  1.00  0.00     0.000 A 
HETATM   32  C   UNL     1      18.223  51.440  49.967  1.00  0.00     0.001 A 
HETATM   33  C   UNL     1      18.322  50.059  49.788  1.00  0.00     0.012 A 
ENDBRANCH  23  28
ENDBRANCH  21  22
ENDBRANCH  20  21
ENDBRANCH   2  20
TORSDOF 6
ENDMDL
MODEL 7
REMARK VINA RESULT:     -10.2      1.946      3.894
REMARK  6 active torsions:
REMARK  status: ('A' for Active; 'I' for Inactive)
REMARK    1  A    between atoms: C_9  and  C_10 
REMARK       I    between atoms: C_10  and  N_11 
REMARK    2  A    between atoms: N_11  and  N_12 
REMARK       I    between atoms: N_12  and  C_13 
REMARK    3  A    between atoms: C_13  and  C_14 
REMARK    4  A    between atoms: C_14  and  O_15 
REMARK    5  A    between atoms: O_15  and  C_16 
REMARK    6  A    between atoms: C_17  and  C_18 
ROOT
HETATM    1  N   UNL     1      25.305  46.908  51.702  1.00  0.00    -0.265 N 
HETATM    2  C   UNL     1      25.425  45.901  52.643  1.00  0.00     0.260 C 
HETATM    3  O   UNL     1      24.836  44.823  52.571  1.00  0.00    -0.269 OA
HETATM    4  H   UNL     1      25.636  47.852  51.882  1.00  0.00     0.190 HD
ENDROOT
BRANCH   1   5
HETATM    5  N   UNL     1      24.384  46.745  50.664  1.00  0.00    -0.262 N 
HETATM    6  C   UNL     1      24.168  47.771  49.757  1.00  0.00     0.291 C 
HETATM    7  O   UNL     1      24.889  48.763  49.672  1.00  0.00    -0.264 OA
HETATM    8  H   UNL     1      23.617  46.085  50.802  1.00  0.00     0.190 HD
BRANCH   6   9
HETATM    9  C   UNL     1      22.991  47.530  48.908  1.00  0.00     0.158 A 
HETATM   10  C   UNL     1      21.958  48.449  48.553  1.00  0.00     0.029 A 
HETATM   11  C   UNL     1      21.648  49.794  48.838  1.00  0.00     0.023 A 
HETATM   12  C   UNL     1      21.106  47.730  47.722  1.00  0.00     0.063 A 
HETATM   13  C   UNL     1      20.498  50.375  48.273  1.00  0.00    -0.061 A 
HETATM   14  C   UNL     1      20.128  51.796  48.586  1.00  0.00     0.048 C 
HETATM   15  C   UNL     1      19.669  49.613  47.440  1.00  0.00     0.009 A 
HETATM   16  C   UNL     1      19.957  48.276  47.145  1.00  0.00     0.032 A 
HETATM   17  N   UNL     1      21.648  46.479  47.642  1.00  0.00    -0.277 N 
HETATM   18  H   UNL     1      21.290  45.687  47.119  1.00  0.00     0.189 HD
HETATM   19  N   UNL     1      22.780  46.317  48.346  1.00  0.00    -0.168 NA
ENDBRANCH   6   9
ENDBRANCH   1   5
BRANCH   2  20
HETATM   20  C   UNL     1      26.378  46.247  53.784  1.00  0.00     0.280 C 
BRANCH  20  21
HETATM   21  O   UNL     1      26.730  45.119  54.567  1.00  0.00    -0.341 OA
BRANCH  21  22
HETATM   22  C   UNL     1      27.945  45.102  55.209  1.00  0.00     0.080 A 
HETATM   23  C   UNL     1      28.887  44.154  54.742  1.00  0.00     0.007 A 
HETATM   24  C   UNL     1      30.156  44.107  55.356  1.00  0.00     0.015 A 
HETATM   25  C   UNL     1      30.487  44.961  56.406  1.00  0.00     0.001 A 
HETATM   26  C   UNL     1      29.551  45.878  56.865  1.00  0.00     0.003 A 
HETATM   27  C   UNL     1      28.288  45.949  56.271  1.00  0.00     0.037 A 
BRANCH  23  28
HETATM   28  C   UNL     1      28.590  43.202  53.653  1.00  0.00    -0.023 A 
HETATM   29  C   UNL     1      28.623  43.597  52.306  1.00  0.00     0.012 A 
HETATM   30  C   UNL     1      28.360  42.683  51.282  1.00  0.00     0.001 A 
HETATM   31  C   UNL     1      28.064  41.357  51.587  1.00  0.00     0.000 A 
HETATM   32  C   UNL     1      28.028  40.943  52.917  1.00  0.00     0.001 A 
HETATM   33  C   UNL     1      28.289  41.858  53.939  1.00  0.00     0.012 A 
ENDBRANCH  23  28
ENDBRANCH  21  22
ENDBRANCH  20  21
ENDBRANCH   2  20
TORSDOF 6
ENDMDL
MODEL 8
REMARK VINA RESULT:     -10.2      2.694     10.810
REMARK  6 active torsions:
REMARK  status: ('A' for Active; 'I' for Inactive)
REMARK    1  A    between atoms: C_9  and  C_10 
REMARK       I    between atoms: C_10  and  N_11 
REMARK    2  A    between atoms: N_11  and  N_12 
REMARK       I    between atoms: N_12  and  C_13 
REMARK    3  A    between atoms: C_13  and  C_14 
REMARK    4  A    between atoms: C_14  and  O_15 
REMARK    5  A    between atoms: O_15  and  C_16 
REMARK    6  A    between atoms: C_17  and  C_18 
ROOT
HETATM    1  N   UNL     1      23.945  47.097  50.278  1.00  0.00    -0.265 N 
HETATM    2  C   UNL     1      23.675  48.197  49.483  1.00  0.00     0.260 C 
HETATM    3  O   UNL     1      24.292  49.259  49.552  1.00  0.00    -0.269 OA
HETATM    4  H   UNL     1      23.302  46.313  50.344  1.00  0.00     0.190 HD
ENDROOT
BRANCH   1   5
HETATM    5  N   UNL     1      24.899  47.223  51.290  1.00  0.00    -0.262 N 
HETATM    6  C   UNL     1      25.101  46.188  52.190  1.00  0.00     0.291 C 
HETATM    7  O   UNL     1      24.638  45.059  52.039  1.00  0.00    -0.264 OA
HETATM    8  H   UNL     1      25.137  48.163  51.611  1.00  0.00     0.190 HD
BRANCH   6   9
HETATM    9  C   UNL     1      25.937  46.592  53.332  1.00  0.00     0.158 A 
HETATM   10  C   UNL     1      27.041  45.894  53.906  1.00  0.00     0.029 A 
HETATM   11  C   UNL     1      27.707  44.672  53.675  1.00  0.00     0.023 A 
HETATM   12  C   UNL     1      27.489  46.712  54.936  1.00  0.00     0.063 A 
HETATM   13  C   UNL     1      28.804  44.319  54.481  1.00  0.00    -0.061 A 
HETATM   14  C   UNL     1      29.511  43.010  54.275  1.00  0.00     0.048 C 
HETATM   15  C   UNL     1      29.221  45.175  55.507  1.00  0.00     0.009 A 
HETATM   16  C   UNL     1      28.574  46.391  55.755  1.00  0.00     0.032 A 
HETATM   17  N   UNL     1      26.658  47.796  54.926  1.00  0.00    -0.277 N 
HETATM   18  H   UNL     1      26.688  48.599  55.544  1.00  0.00     0.189 HD
HETATM   19  N   UNL     1      25.707  47.759  53.977  1.00  0.00    -0.168 NA
ENDBRANCH   6   9
ENDBRANCH   1   5
BRANCH   2  20
HETATM   20  C   UNL     1      22.538  47.965  48.492  1.00  0.00     0.280 C 
BRANCH  20  21
HETATM   21  O   UNL     1      21.260  48.215  49.052  1.00  0.00    -0.341 OA
BRANCH  21  22
HETATM   22  C   UNL     1      20.585  49.359  48.699  1.00  0.00     0.080 A 
HETATM   23  C   UNL     1      19.375  49.178  47.989  1.00  0.00     0.007 A 
HETATM   24  C   UNL     1      18.635  50.319  47.617  1.00  0.00     0.015 A 
HETATM   25  C   UNL     1      19.077  51.604  47.927  1.00  0.00     0.001 A 
HETATM   26  C   UNL     1      20.273  51.771  48.612  1.00  0.00     0.003 A 
HETATM   27  C   UNL     1      21.023  50.657  48.996  1.00  0.00     0.037 A 
BRANCH  23  28
HETATM   28  C   UNL     1      18.864  47.846  47.606  1.00  0.00    -0.023 A 
HETATM   29  C   UNL     1      17.944  47.155  48.411  1.00  0.00     0.012 A 
HETATM   30  C   UNL     1      17.452  45.904  48.030  1.00  0.00     0.001 A 
HETATM   31  C   UNL     1      17.867  45.324  46.834  1.00  0.00     0.000 A 
HETATM   32  C   UNL     1      18.778  45.994  46.019  1.00  0.00     0.001 A 
HETATM   33  C   UNL     1      19.270  47.242  46.403  1.00  0.00     0.012 A 
ENDBRANCH  23  28
ENDBRANCH  21  22
ENDBRANCH  20  21
ENDBRANCH   2  20
TORSDOF 6
ENDMDL
MODEL 9
REMARK VINA RESULT:     -10.1      5.342      8.650
REMARK  6 active torsions:
REMARK  status: ('A' for Active; 'I' for Inactive)
REMARK    1  A    between atoms: C_9  and  C_10 
REMARK       I    between atoms: C_10  and  N_11 
REMARK    2  A    between atoms: N_11  and  N_12 
REMARK       I    between atoms: N_12  and  C_13 
REMARK    3  A    between atoms: C_13  and  C_14 
REMARK    4  A    between atoms: C_14  and  O_15 
REMARK    5  A    between atoms: O_15  and  C_16 
REMARK    6  A    between atoms: C_17  and  C_18 
ROOT
HETATM    1  N   UNL     1      29.551  40.559  51.715  1.00  0.00    -0.265 N 
HETATM    2  C   UNL     1      28.980  41.370  52.680  1.00  0.00     0.260 C 
HETATM    3  O   UNL     1      27.811  41.272  53.051  1.00  0.00    -0.269 OA
HETATM    4  H   UNL     1      30.444  40.785  51.285  1.00  0.00     0.190 HD
ENDROOT
BRANCH   1   5
HETATM    5  N   UNL     1      28.735  39.645  51.043  1.00  0.00    -0.262 N 
HETATM    6  C   UNL     1      29.274  38.475  50.533  1.00  0.00     0.291 C 
HETATM    7  O   UNL     1      30.402  38.071  50.809  1.00  0.00    -0.264 OA
HETATM    8  H   UNL     1      27.892  39.999  50.588  1.00  0.00     0.190 HD
BRANCH   6   9
HETATM    9  C   UNL     1      28.342  37.772  49.637  1.00  0.00     0.158 A 
HETATM   10  C   UNL     1      27.988  38.107  48.295  1.00  0.00     0.029 A 
HETATM   11  C   UNL     1      28.315  39.127  47.379  1.00  0.00     0.023 A 
HETATM   12  C   UNL     1      27.096  37.117  47.900  1.00  0.00     0.063 A 
HETATM   13  C   UNL     1      27.743  39.113  46.094  1.00  0.00    -0.061 A 
HETATM   14  C   UNL     1      28.052  40.205  45.109  1.00  0.00     0.048 C 
HETATM   15  C   UNL     1      26.850  38.095  45.738  1.00  0.00     0.009 A 
HETATM   16  C   UNL     1      26.511  37.074  46.632  1.00  0.00     0.032 A 
HETATM   17  N   UNL     1      26.967  36.292  48.981  1.00  0.00    -0.277 N 
HETATM   18  H   UNL     1      26.392  35.460  49.053  1.00  0.00     0.189 HD
HETATM   19  N   UNL     1      27.697  36.656  50.048  1.00  0.00    -0.168 NA
ENDBRANCH   6   9
ENDBRANCH   1   5
BRANCH   2  20
HETATM   20  C   UNL     1      29.948  42.397  53.259  1.00  0.00     0.280 C 
BRANCH  20  21
HETATM   21  O   UNL     1      29.292  43.419  53.991  1.00  0.00    -0.341 OA
BRANCH  21  22
HETATM   22  C   UNL     1      29.848  43.865  55.166  1.00  0.00     0.080 A 
HETATM   23  C   UNL     1      29.257  45.015  55.742  1.00  0.00     0.007 A 
HETATM   24  C   UNL     1      29.780  45.504  56.957  1.00  0.00     0.015 A 
HETATM   25  C   UNL     1      30.860  44.885  57.584  1.00  0.00     0.001 A 
HETATM   26  C   UNL     1      31.441  43.766  57.003  1.00  0.00     0.003 A 
HETATM   27  C   UNL     1      30.939  43.258  55.802  1.00  0.00     0.037 A 
BRANCH  23  28
HETATM   28  C   UNL     1      28.129  45.733  55.115  1.00  0.00    -0.023 A 
HETATM   29  C   UNL     1      26.972  45.057  54.698  1.00  0.00     0.012 A 
HETATM   30  C   UNL     1      25.902  45.749  54.125  1.00  0.00     0.001 A 
HETATM   31  C   UNL     1      25.968  47.131  53.964  1.00  0.00     0.000 A 
HETATM   32  C   UNL     1      27.106  47.822  54.373  1.00  0.00     0.001 A 
HETATM   33  C   UNL     1      28.176  47.128  54.944  1.00  0.00     0.012 A 
ENDBRANCH  23  28
ENDBRANCH  21  22
ENDBRANCH  20  21
ENDBRANCH   2  20
TORSDOF 6
ENDMDL
MODEL 10
REMARK VINA RESULT:     -10.1      4.782      9.838
REMARK  6 active torsions:
REMARK  status: ('A' for Active; 'I' for Inactive)
REMARK    1  A    between atoms: C_9  and  C_10 
REMARK       I    between atoms: C_10  and  N_11 
REMARK    2  A    between atoms: N_11  and  N_12 
REMARK       I    between atoms: N_12  and  C_13 
REMARK    3  A    between atoms: C_13  and  C_14 
REMARK    4  A    between atoms: C_14  and  O_15 
REMARK    5  A    between atoms: O_15  and  C_16 
REMARK    6  A    between atoms: C_17  and  C_18 
ROOT
HETATM    1  N   UNL     1      26.950  42.917  51.277  1.00  0.00    -0.265 N 
HETATM    2  C   UNL     1      26.956  43.352  49.964  1.00  0.00     0.260 C 
HETATM    3  O   UNL     1      27.256  44.495  49.623  1.00  0.00    -0.269 OA
HETATM    4  H   UNL     1      26.510  42.042  51.550  1.00  0.00     0.190 HD
ENDROOT
BRANCH   1   5
HETATM    5  N   UNL     1      27.193  43.849  52.290  1.00  0.00    -0.262 N 
HETATM    6  C   UNL     1      28.438  43.907  52.897  1.00  0.00     0.291 C 
HETATM    7  O   UNL     1      29.431  43.326  52.464  1.00  0.00    -0.264 OA
HETATM    8  H   UNL     1      26.399  44.179  52.839  1.00  0.00     0.190 HD
BRANCH   6   9
HETATM    9  C   UNL     1      28.434  44.747  54.105  1.00  0.00     0.158 A 
HETATM   10  C   UNL     1      29.315  44.683  55.225  1.00  0.00     0.029 A 
HETATM   11  C   UNL     1      30.409  43.885  55.618  1.00  0.00     0.023 A 
HETATM   12  C   UNL     1      28.897  45.704  56.071  1.00  0.00     0.063 A 
HETATM   13  C   UNL     1      31.051  44.144  56.843  1.00  0.00    -0.061 A 
HETATM   14  C   UNL     1      32.198  43.289  57.299  1.00  0.00     0.048 C 
HETATM   15  C   UNL     1      30.595  45.184  57.663  1.00  0.00     0.009 A 
HETATM   16  C   UNL     1      29.512  45.987  57.293  1.00  0.00     0.032 A 
HETATM   17  N   UNL     1      27.833  46.284  55.442  1.00  0.00    -0.277 N 
HETATM   18  H   UNL     1      27.275  47.064  55.771  1.00  0.00     0.189 HD
HETATM   19  N   UNL     1      27.520  45.733  54.257  1.00  0.00    -0.168 NA
ENDBRANCH   6   9
ENDBRANCH   1   5
BRANCH   2  20
HETATM   20  C   UNL     1      26.566  42.267  48.964  1.00  0.00     0.280 C 
BRANCH  20  21
HETATM   21  O   UNL     1      27.662  41.823  48.180  1.00  0.00    -0.341 OA
BRANCH  21  22
HETATM   22  C   UNL     1      28.052  40.508  48.257  1.00  0.00     0.080 A 
HETATM   23  C   UNL     1      27.959  39.756  47.062  1.00  0.00     0.007 A 
HETATM   24  C   UNL     1      28.363  38.405  47.084  1.00  0.00     0.015 A 
HETATM   25  C   UNL     1      28.838  37.807  48.250  1.00  0.00     0.001 A 
HETATM   26  C   UNL     1      28.913  38.551  49.419  1.00  0.00     0.003 A 
HETATM   27  C   UNL     1      28.523  39.892  49.425  1.00  0.00     0.037 A 
BRANCH  23  28
HETATM   28  C   UNL     1      27.439  40.321  45.800  1.00  0.00    -0.023 A 
HETATM   29  C   UNL     1      28.303  40.802  44.804  1.00  0.00     0.012 A 
HETATM   30  C   UNL     1      27.801  41.316  43.605  1.00  0.00     0.001 A 
HETATM   31  C   UNL     1      26.427  41.353  43.380  1.00  0.00     0.000 A 
HETATM   32  C   UNL     1      25.553  40.879  44.355  1.00  0.00     0.001 A 
HETATM   33  C   UNL     1      26.056  40.368  45.554  1.00  0.00     0.012 A 
ENDBRANCH  23  28
ENDBRANCH  21  22
ENDBRANCH  20  21
ENDBRANCH   2  20
TORSDOF 6
ENDMDL
