MODEL 1
REMARK VINA RESULT:      -7.5      0.000      0.000
REMARK  2 active torsions:
REMARK  status: ('A' for Active; 'I' for Inactive)
REMARK    1  A    between atoms: C_2  and  C_3 
REMARK    2  A    between atoms: C_3  and  N_4 
ROOT
HETATM    1  N   UNL     1      31.202  50.809  42.014  1.00  0.00    -0.203 NA
HETATM    2  S   UNL     1      30.826  52.453  41.783  1.00  0.00     0.219 S 
HETATM    3  O   UNL     1      31.877  53.114  41.057  1.00  0.00    -0.211 OA
HETATM    4  O   UNL     1      30.291  52.951  43.033  1.00  0.00    -0.211 OA
HETATM    5  C   UNL     1      29.414  52.171  40.742  1.00  0.00     0.164 C 
HETATM    6  C   UNL     1      29.156  50.662  40.796  1.00  0.00     0.116 C 
HETATM    7  O   UNL     1      29.634  50.165  39.520  1.00  0.00    -0.369 OA
HETATM    8  C   UNL     1      29.203  51.162  38.575  1.00  0.00     0.149 C 
HETATM    9  C   UNL     1      27.684  50.964  38.367  1.00  0.00     0.264 C 
HETATM   10  N   UNL     1      26.938  51.044  39.691  1.00  0.00    -0.070 N 
HETATM   11  H   UNL     1      26.751  52.029  39.922  1.00  0.00     0.277 HD
HETATM   12  H   UNL     1      26.007  50.618  39.565  1.00  0.00     0.277 HD
HETATM   13  C   UNL     1      27.650  50.343  40.841  1.00  0.00     0.273 C 
HETATM   14  C   UNL     1      29.943  50.030  41.953  1.00  0.00     0.148 C 
HETATM   15  C   UNL     1      29.586  52.470  39.260  1.00  0.00     0.058 C 
ENDROOT
BRANCH   1  16
HETATM   16  C   UNL     1      32.038  50.492  43.199  1.00  0.00     0.145 C 
BRANCH  16  17
HETATM   17  C   UNL     1      33.459  50.987  43.111  1.00  0.00    -0.044 A 
HETATM   18  C   UNL     1      34.308  50.534  42.089  1.00  0.00     0.010 A 
HETATM   19  C   UNL     1      35.625  50.991  42.006  1.00  0.00     0.024 A 
HETATM   20  C   UNL     1      36.102  51.901  42.946  1.00  0.00     0.034 A 
HETATM   21  C   UNL     1      35.273  52.356  43.971  1.00  0.00     0.024 A 
HETATM   22 CL   UNL     1      37.723  52.465  42.842  1.00  0.00    -0.084 Cl
HETATM   23  C   UNL     1      33.956  51.900  44.054  1.00  0.00     0.010 A 
ENDBRANCH  16  17
ENDBRANCH   1  16
TORSDOF 2
ENDMDL
MODEL 2
REMARK VINA RESULT:      -7.5     13.234     14.355
REMARK  2 active torsions:
REMARK  status: ('A' for Active; 'I' for Inactive)
REMARK    1  A    between atoms: C_2  and  C_3 
REMARK    2  A    between atoms: C_3  and  N_4 
ROOT
HETATM    1  N   UNL     1      27.530  43.472  51.767  1.00  0.00    -0.203 NA
HETATM    2  S   UNL     1      26.617  43.911  50.400  1.00  0.00     0.219 S 
HETATM    3  O   UNL     1      27.392  44.745  49.521  1.00  0.00    -0.211 OA
HETATM    4  O   UNL     1      25.293  44.265  50.864  1.00  0.00    -0.211 OA
HETATM    5  C   UNL     1      26.466  42.266  49.747  1.00  0.00     0.164 C 
HETATM    6  C   UNL     1      27.011  41.337  50.836  1.00  0.00     0.116 C 
HETATM    7  O   UNL     1      28.315  40.929  50.347  1.00  0.00    -0.369 OA
HETATM    8  C   UNL     1      28.106  40.710  48.940  1.00  0.00     0.149 C 
HETATM    9  C   UNL     1      27.353  39.368  48.796  1.00  0.00     0.264 C 
HETATM   10  N   UNL     1      26.056  39.382  49.590  1.00  0.00    -0.070 N 
HETATM   11  H   UNL     1      25.314  39.827  49.032  1.00  0.00     0.277 HD
HETATM   12  H   UNL     1      25.743  38.408  49.721  1.00  0.00     0.277 HD
HETATM   13  C   UNL     1      26.178  40.048  50.955  1.00  0.00     0.273 C 
HETATM   14  C   UNL     1      27.144  42.097  52.163  1.00  0.00     0.148 C 
HETATM   15  C   UNL     1      27.303  41.937  48.519  1.00  0.00     0.058 C 
ENDROOT
BRANCH   1  16
HETATM   16  C   UNL     1      27.523  44.438  52.894  1.00  0.00     0.145 C 
BRANCH  16  17
HETATM   17  C   UNL     1      28.629  44.235  53.897  1.00  0.00    -0.044 A 
HETATM   18  C   UNL     1      28.758  45.096  54.998  1.00  0.00     0.010 A 
HETATM   19  C   UNL     1      29.782  44.910  55.928  1.00  0.00     0.024 A 
HETATM   20  C   UNL     1      30.686  43.864  55.762  1.00  0.00     0.034 A 
HETATM   21  C   UNL     1      30.576  43.004  54.671  1.00  0.00     0.024 A 
HETATM   22 CL   UNL     1      31.947  43.634  56.910  1.00  0.00    -0.084 Cl
HETATM   23  C   UNL     1      29.551  43.189  53.740  1.00  0.00     0.010 A 
ENDBRANCH  16  17
ENDBRANCH   1  16
TORSDOF 2
ENDMDL
MODEL 3
REMARK VINA RESULT:      -7.2     11.803     13.381
REMARK  2 active torsions:
REMARK  status: ('A' for Active; 'I' for Inactive)
REMARK    1  A    between atoms: C_2  and  C_3 
REMARK    2  A    between atoms: C_3  and  N_4 
ROOT
HETATM    1  N   UNL     1      26.172  44.853  50.798  1.00  0.00    -0.203 NA
HETATM    2  S   UNL     1      24.832  43.895  51.227  1.00  0.00     0.219 S 
HETATM    3  O   UNL     1      23.725  44.151  50.345  1.00  0.00    -0.211 OA
HETATM    4  O   UNL     1      24.721  43.933  52.670  1.00  0.00    -0.211 OA
HETATM    5  C   UNL     1      25.596  42.336  50.851  1.00  0.00     0.164 C 
HETATM    6  C   UNL     1      27.069  42.653  50.578  1.00  0.00     0.116 C 
HETATM    7  O   UNL     1      27.201  42.556  49.136  1.00  0.00    -0.369 OA
HETATM    8  C   UNL     1      26.405  41.408  48.790  1.00  0.00     0.149 C 
HETATM    9  C   UNL     1      27.212  40.155  49.200  1.00  0.00     0.264 C 
HETATM   10  N   UNL     1      27.575  40.199  50.677  1.00  0.00    -0.070 N 
HETATM   11  H   UNL     1      26.788  39.842  51.236  1.00  0.00     0.277 HD
HETATM   12  H   UNL     1      28.344  39.532  50.843  1.00  0.00     0.277 HD
HETATM   13  C   UNL     1      28.002  41.578  51.164  1.00  0.00     0.273 C 
HETATM   14  C   UNL     1      27.404  44.072  51.058  1.00  0.00     0.148 C 
HETATM   15  C   UNL     1      25.124  41.628  49.589  1.00  0.00     0.058 C 
ENDROOT
BRANCH   1  16
HETATM   16  C   UNL     1      26.205  46.221  51.372  1.00  0.00     0.145 C 
BRANCH  16  17
HETATM   17  C   UNL     1      25.704  47.299  50.445  1.00  0.00    -0.044 A 
HETATM   18  C   UNL     1      24.327  47.477  50.239  1.00  0.00     0.010 A 
HETATM   19  C   UNL     1      23.861  48.474  49.380  1.00  0.00     0.024 A 
HETATM   20  C   UNL     1      24.769  49.297  48.719  1.00  0.00     0.034 A 
HETATM   21  C   UNL     1      26.140  49.129  48.907  1.00  0.00     0.024 A 
HETATM   22 CL   UNL     1      24.195  50.528  47.662  1.00  0.00    -0.084 Cl
HETATM   23  C   UNL     1      26.606  48.132  49.767  1.00  0.00     0.010 A 
ENDBRANCH  16  17
ENDBRANCH   1  16
TORSDOF 2
ENDMDL
MODEL 4
REMARK VINA RESULT:      -7.0     11.694     13.428
REMARK  2 active torsions:
REMARK  status: ('A' for Active; 'I' for Inactive)
REMARK    1  A    between atoms: C_2  and  C_3 
REMARK    2  A    between atoms: C_3  and  N_4 
ROOT
HETATM    1  N   UNL     1      20.108  49.275  48.701  1.00  0.00    -0.203 NA
HETATM    2  S   UNL     1      19.495  50.160  50.020  1.00  0.00     0.219 S 
HETATM    3  O   UNL     1      20.351  51.278  50.318  1.00  0.00    -0.211 OA
HETATM    4  O   UNL     1      19.064  49.204  51.016  1.00  0.00    -0.211 OA
HETATM    5  C   UNL     1      18.011  50.696  49.203  1.00  0.00     0.164 C 
HETATM    6  C   UNL     1      17.960  49.917  47.885  1.00  0.00     0.116 C 
HETATM    7  O   UNL     1      18.333  50.888  46.873  1.00  0.00    -0.369 OA
HETATM    8  C   UNL     1      17.659  52.092  47.282  1.00  0.00     0.149 C 
HETATM    9  C   UNL     1      16.165  51.921  46.926  1.00  0.00     0.264 C 
HETATM   10  N   UNL     1      15.589  50.673  47.578  1.00  0.00    -0.070 N 
HETATM   11  H   UNL     1      15.306  50.887  48.544  1.00  0.00     0.277 HD
HETATM   12  H   UNL     1      14.712  50.427  47.092  1.00  0.00     0.277 HD
HETATM   13  C   UNL     1      16.527  49.472  47.542  1.00  0.00     0.273 C 
HETATM   14  C   UNL     1      18.963  48.756  47.917  1.00  0.00     0.148 C 
HETATM   15  C   UNL     1      17.953  52.156  48.778  1.00  0.00     0.058 C 
ENDROOT
BRANCH   1  16
HETATM   16  C   UNL     1      21.121  48.240  49.026  1.00  0.00     0.145 C 
BRANCH  16  17
HETATM   17  C   UNL     1      22.550  48.696  48.874  1.00  0.00    -0.044 A 
HETATM   18  C   UNL     1      22.855  49.835  48.112  1.00  0.00     0.010 A 
HETATM   19  C   UNL     1      24.178  50.259  47.970  1.00  0.00     0.024 A 
HETATM   20  C   UNL     1      25.204  49.545  48.584  1.00  0.00     0.034 A 
HETATM   21  C   UNL     1      24.918  48.409  49.339  1.00  0.00     0.024 A 
HETATM   22 CL   UNL     1      26.833  50.069  48.410  1.00  0.00    -0.084 Cl
HETATM   23  C   UNL     1      23.595  47.985  49.482  1.00  0.00     0.010 A 
ENDBRANCH  16  17
ENDBRANCH   1  16
TORSDOF 2
ENDMDL
MODEL 5
REMARK VINA RESULT:      -7.0      1.801      2.556
REMARK  2 active torsions:
REMARK  status: ('A' for Active; 'I' for Inactive)
REMARK    1  A    between atoms: C_2  and  C_3 
REMARK    2  A    between atoms: C_3  and  N_4 
ROOT
HETATM    1  N   UNL     1      30.862  50.635  41.857  1.00  0.00    -0.203 NA
HETATM    2  S   UNL     1      29.602  49.660  41.258  1.00  0.00     0.219 S 
HETATM    3  O   UNL     1      28.438  49.766  42.096  1.00  0.00    -0.211 OA
HETATM    4  O   UNL     1      30.187  48.394  40.870  1.00  0.00    -0.211 OA
HETATM    5  C   UNL     1      29.380  50.563  39.744  1.00  0.00     0.164 C 
HETATM    6  C   UNL     1      30.546  51.553  39.678  1.00  0.00     0.116 C 
HETATM    7  O   UNL     1      29.954  52.836  40.006  1.00  0.00    -0.369 OA
HETATM    8  C   UNL     1      28.690  52.823  39.318  1.00  0.00     0.149 C 
HETATM    9  C   UNL     1      28.987  53.060  37.819  1.00  0.00     0.264 C 
HETATM   10  N   UNL     1      29.961  52.021  37.285  1.00  0.00    -0.070 N 
HETATM   11  H   UNL     1      29.447  51.169  37.021  1.00  0.00     0.277 HD
HETATM   12  H   UNL     1      30.362  52.374  36.403  1.00  0.00     0.277 HD
HETATM   13  C   UNL     1      31.096  51.691  38.247  1.00  0.00     0.273 C 
HETATM   14  C   UNL     1      31.622  51.174  40.705  1.00  0.00     0.148 C 
HETATM   15  C   UNL     1      28.139  51.439  39.645  1.00  0.00     0.058 C 
ENDROOT
BRANCH   1  16
HETATM   16  C   UNL     1      31.721  50.021  42.900  1.00  0.00     0.145 C 
BRANCH  16  17
HETATM   17  C   UNL     1      32.991  50.779  43.188  1.00  0.00    -0.044 A 
HETATM   18  C   UNL     1      34.136  50.575  42.402  1.00  0.00     0.010 A 
HETATM   19  C   UNL     1      35.314  51.277  42.668  1.00  0.00     0.024 A 
HETATM   20  C   UNL     1      35.355  52.184  43.724  1.00  0.00     0.034 A 
HETATM   21  C   UNL     1      34.229  52.394  44.518  1.00  0.00     0.024 A 
HETATM   22 CL   UNL     1      36.805  53.050  44.050  1.00  0.00    -0.084 Cl
HETATM   23  C   UNL     1      33.051  51.692  44.252  1.00  0.00     0.010 A 
ENDBRANCH  16  17
ENDBRANCH   1  16
TORSDOF 2
ENDMDL
MODEL 6
REMARK VINA RESULT:      -6.9      2.245      3.256
REMARK  2 active torsions:
REMARK  status: ('A' for Active; 'I' for Inactive)
REMARK    1  A    between atoms: C_2  and  C_3 
REMARK    2  A    between atoms: C_3  and  N_4 
ROOT
HETATM    1  N   UNL     1      33.598  51.011  41.715  1.00  0.00    -0.203 NA
HETATM    2  S   UNL     1      32.243  50.321  42.478  1.00  0.00     0.219 S 
HETATM    3  O   UNL     1      32.176  50.731  43.855  1.00  0.00    -0.211 OA
HETATM    4  O   UNL     1      32.172  48.937  42.059  1.00  0.00    -0.211 OA
HETATM    5  C   UNL     1      31.030  51.175  41.500  1.00  0.00     0.164 C 
HETATM    6  C   UNL     1      31.814  51.868  40.382  1.00  0.00     0.116 C 
HETATM    7  O   UNL     1      31.836  53.267  40.766  1.00  0.00    -0.369 OA
HETATM    8  C   UNL     1      30.513  53.508  41.277  1.00  0.00     0.149 C 
HETATM    9  C   UNL     1      29.564  53.597  40.060  1.00  0.00     0.264 C 
HETATM   10  N   UNL     1      29.649  52.338  39.210  1.00  0.00    -0.070 N 
HETATM   11  H   UNL     1      29.031  51.614  39.603  1.00  0.00     0.277 HD
HETATM   12  H   UNL     1      29.255  52.547  38.279  1.00  0.00     0.277 HD
HETATM   13  C   UNL     1      31.066  51.806  39.038  1.00  0.00     0.273 C 
HETATM   14  C   UNL     1      33.241  51.305  40.307  1.00  0.00     0.148 C 
HETATM   15  C   UNL     1      30.272  52.304  42.183  1.00  0.00     0.058 C 
ENDROOT
BRANCH   1  16
HETATM   16  C   UNL     1      34.876  50.269  41.859  1.00  0.00     0.145 C 
BRANCH  16  17
HETATM   17  C   UNL     1      35.920  50.979  42.681  1.00  0.00    -0.044 A 
HETATM   18  C   UNL     1      35.573  52.086  43.471  1.00  0.00     0.010 A 
HETATM   19  C   UNL     1      36.539  52.745  44.233  1.00  0.00     0.024 A 
HETATM   20  C   UNL     1      37.860  52.304  44.208  1.00  0.00     0.034 A 
HETATM   21  C   UNL     1      38.223  51.210  43.424  1.00  0.00     0.024 A 
HETATM   22 CL   UNL     1      39.050  53.115  45.149  1.00  0.00    -0.084 Cl
HETATM   23  C   UNL     1      37.256  50.550  42.662  1.00  0.00     0.010 A 
ENDBRANCH  16  17
ENDBRANCH   1  16
TORSDOF 2
ENDMDL
MODEL 7
REMARK VINA RESULT:      -6.9      4.193      6.852
REMARK  2 active torsions:
REMARK  status: ('A' for Active; 'I' for Inactive)
REMARK    1  A    between atoms: C_2  and  C_3 
REMARK    2  A    between atoms: C_3  and  N_4 
ROOT
HETATM    1  N   UNL     1      31.340  49.243  40.546  1.00  0.00    -0.203 NA
HETATM    2  S   UNL     1      31.110  50.879  40.137  1.00  0.00     0.219 S 
HETATM    3  O   UNL     1      29.749  51.274  40.382  1.00  0.00    -0.211 OA
HETATM    4  O   UNL     1      31.787  51.106  38.878  1.00  0.00    -0.211 OA
HETATM    5  C   UNL     1      32.195  51.531  41.384  1.00  0.00     0.164 C 
HETATM    6  C   UNL     1      32.912  50.317  41.984  1.00  0.00     0.116 C 
HETATM    7  O   UNL     1      32.278  50.121  43.274  1.00  0.00    -0.369 OA
HETATM    8  C   UNL     1      32.102  51.457  43.781  1.00  0.00     0.149 C 
HETATM    9  C   UNL     1      33.488  51.950  44.255  1.00  0.00     0.264 C 
HETATM   10  N   UNL     1      34.507  51.876  43.128  1.00  0.00    -0.070 N 
HETATM   11  H   UNL     1      34.437  52.721  42.544  1.00  0.00     0.277 HD
HETATM   12  H   UNL     1      35.452  51.916  43.541  1.00  0.00     0.277 HD
HETATM   13  C   UNL     1      34.393  50.618  42.277  1.00  0.00     0.273 C 
HETATM   14  C   UNL     1      32.710  49.086  41.089  1.00  0.00     0.148 C 
HETATM   15  C   UNL     1      31.538  52.207  42.578  1.00  0.00     0.058 C 
ENDROOT
BRANCH   1  16
HETATM   16  C   UNL     1      31.004  48.255  39.491  1.00  0.00     0.145 C 
BRANCH  16  17
HETATM   17  C   UNL     1      29.833  47.364  39.819  1.00  0.00    -0.044 A 
HETATM   18  C   UNL     1      29.739  46.078  39.264  1.00  0.00     0.010 A 
HETATM   19  C   UNL     1      28.654  45.253  39.568  1.00  0.00     0.024 A 
HETATM   20  C   UNL     1      27.656  45.709  40.425  1.00  0.00     0.034 A 
HETATM   21  C   UNL     1      27.731  46.985  40.979  1.00  0.00     0.024 A 
HETATM   22 CL   UNL     1      26.321  44.690  40.800  1.00  0.00    -0.084 Cl
HETATM   23  C   UNL     1      28.816  47.811  40.677  1.00  0.00     0.010 A 
ENDBRANCH  16  17
ENDBRANCH   1  16
TORSDOF 2
ENDMDL
MODEL 8
REMARK VINA RESULT:      -6.7     12.422     13.516
REMARK  2 active torsions:
REMARK  status: ('A' for Active; 'I' for Inactive)
REMARK    1  A    between atoms: C_2  and  C_3 
REMARK    2  A    between atoms: C_3  and  N_4 
ROOT
HETATM    1  N   UNL     1      26.511  44.122  51.295  1.00  0.00    -0.203 NA
HETATM    2  S   UNL     1      25.683  44.971  52.516  1.00  0.00     0.219 S 
HETATM    3  O   UNL     1      26.598  45.774  53.282  1.00  0.00    -0.211 OA
HETATM    4  O   UNL     1      24.742  44.050  53.116  1.00  0.00    -0.211 OA
HETATM    5  C   UNL     1      24.721  45.980  51.414  1.00  0.00     0.164 C 
HETATM    6  C   UNL     1      24.965  45.411  50.013  1.00  0.00     0.116 C 
HETATM    7  O   UNL     1      25.861  46.363  49.383  1.00  0.00    -0.369 OA
HETATM    8  C   UNL     1      25.358  47.644  49.805  1.00  0.00     0.149 C 
HETATM    9  C   UNL     1      24.078  47.923  48.984  1.00  0.00     0.264 C 
HETATM   10  N   UNL     1      23.063  46.804  49.160  1.00  0.00    -0.070 N 
HETATM   11  H   UNL     1      22.516  46.966  50.017  1.00  0.00     0.277 HD
HETATM   12  H   UNL     1      22.377  46.863  48.391  1.00  0.00     0.277 HD
HETATM   13  C   UNL     1      23.679  45.410  49.166  1.00  0.00     0.273 C 
HETATM   14  C   UNL     1      25.626  44.028  50.110  1.00  0.00     0.148 C 
HETATM   15  C   UNL     1      25.123  47.443  51.299  1.00  0.00     0.058 C 
ENDROOT
BRANCH   1  16
HETATM   16  C   UNL     1      27.107  42.823  51.694  1.00  0.00     0.145 C 
BRANCH  16  17
HETATM   17  C   UNL     1      28.171  42.925  52.757  1.00  0.00    -0.044 A 
HETATM   18  C   UNL     1      27.821  42.922  54.116  1.00  0.00     0.010 A 
HETATM   19  C   UNL     1      28.805  43.017  55.102  1.00  0.00     0.024 A 
HETATM   20  C   UNL     1      30.145  43.118  54.735  1.00  0.00     0.034 A 
HETATM   21  C   UNL     1      30.508  43.128  53.390  1.00  0.00     0.024 A 
HETATM   22 CL   UNL     1      31.357  43.232  55.950  1.00  0.00    -0.084 Cl
HETATM   23  C   UNL     1      29.524  43.033  52.403  1.00  0.00     0.010 A 
ENDBRANCH  16  17
ENDBRANCH   1  16
TORSDOF 2
ENDMDL
MODEL 9
REMARK VINA RESULT:      -6.7     24.552     25.825
REMARK  2 active torsions:
REMARK  status: ('A' for Active; 'I' for Inactive)
REMARK    1  A    between atoms: C_2  and  C_3 
REMARK    2  A    between atoms: C_3  and  N_4 
ROOT
HETATM    1  N   UNL     1      37.318  44.224  64.572  1.00  0.00    -0.203 NA
HETATM    2  S   UNL     1      36.641  44.491  66.110  1.00  0.00     0.219 S 
HETATM    3  O   UNL     1      37.360  43.753  67.114  1.00  0.00    -0.211 OA
HETATM    4  O   UNL     1      35.202  44.433  65.962  1.00  0.00    -0.211 OA
HETATM    5  C   UNL     1      37.040  46.221  66.185  1.00  0.00     0.164 C 
HETATM    6  C   UNL     1      37.548  46.589  64.789  1.00  0.00     0.116 C 
HETATM    7  O   UNL     1      38.986  46.709  64.944  1.00  0.00    -0.369 OA
HETATM    8  C   UNL     1      39.144  47.376  66.210  1.00  0.00     0.149 C 
HETATM    9  C   UNL     1      38.791  48.864  65.987  1.00  0.00     0.264 C 
HETATM   10  N   UNL     1      37.390  49.012  65.414  1.00  0.00    -0.070 N 
HETATM   11  H   UNL     1      36.700  48.991  66.178  1.00  0.00     0.277 HD
HETATM   12  H   UNL     1      37.304  49.955  65.004  1.00  0.00     0.277 HD
HETATM   13  C   UNL     1      37.049  47.977  64.348  1.00  0.00     0.273 C 
HETATM   14  C   UNL     1      37.203  45.477  63.788  1.00  0.00     0.148 C 
HETATM   15  C   UNL     1      38.176  46.622  67.116  1.00  0.00     0.058 C 
ENDROOT
BRANCH   1  16
HETATM   16  C   UNL     1      36.833  43.024  63.845  1.00  0.00     0.145 C 
BRANCH  16  17
HETATM   17  C   UNL     1      37.796  41.865  63.842  1.00  0.00    -0.044 A 
HETATM   18  C   UNL     1      38.608  41.618  62.724  1.00  0.00     0.010 A 
HETATM   19  C   UNL     1      39.501  40.544  62.720  1.00  0.00     0.024 A 
HETATM   20  C   UNL     1      39.584  39.708  63.830  1.00  0.00     0.034 A 
HETATM   21  C   UNL     1      38.779  39.936  64.945  1.00  0.00     0.024 A 
HETATM   22 CL   UNL     1      40.685  38.387  63.825  1.00  0.00    -0.084 Cl
HETATM   23  C   UNL     1      37.887  41.010  64.951  1.00  0.00     0.010 A 
ENDBRANCH  16  17
ENDBRANCH   1  16
TORSDOF 2
ENDMDL
MODEL 10
REMARK VINA RESULT:      -6.4      2.989      3.788
REMARK  2 active torsions:
REMARK  status: ('A' for Active; 'I' for Inactive)
REMARK    1  A    between atoms: C_2  and  C_3 
REMARK    2  A    between atoms: C_3  and  N_4 
ROOT
HETATM    1  N   UNL     1      29.950  49.598  40.813  1.00  0.00    -0.203 NA
HETATM    2  S   UNL     1      29.337  49.772  39.235  1.00  0.00     0.219 S 
HETATM    3  O   UNL     1      30.411  49.937  38.292  1.00  0.00    -0.211 OA
HETATM    4  O   UNL     1      28.204  50.669  39.311  1.00  0.00    -0.211 OA
HETATM    5  C   UNL     1      28.644  48.140  39.130  1.00  0.00     0.164 C 
HETATM    6  C   UNL     1      28.754  47.552  40.539  1.00  0.00     0.116 C 
HETATM    7  O   UNL     1      29.850  46.605  40.455  1.00  0.00    -0.369 OA
HETATM    8  C   UNL     1      29.660  45.965  39.180  1.00  0.00     0.149 C 
HETATM    9  C   UNL     1      28.484  44.974  39.340  1.00  0.00     0.264 C 
HETATM   10  N   UNL     1      27.235  45.685  39.836  1.00  0.00    -0.070 N 
HETATM   11  H   UNL     1      26.737  46.104  39.039  1.00  0.00     0.277 HD
HETATM   12  H   UNL     1      26.586  44.978  40.214  1.00  0.00     0.277 HD
HETATM   13  C   UNL     1      27.508  46.729  40.913  1.00  0.00     0.273 C 
HETATM   14  C   UNL     1      29.073  48.660  41.553  1.00  0.00     0.148 C 
HETATM   15  C   UNL     1      29.377  47.139  38.248  1.00  0.00     0.058 C 
ENDROOT
BRANCH   1  16
HETATM   16  C   UNL     1      30.224  50.858  41.548  1.00  0.00     0.145 C 
BRANCH  16  17
HETATM   17  C   UNL     1      31.666  51.051  41.941  1.00  0.00    -0.044 A 
HETATM   18  C   UNL     1      32.004  51.406  43.257  1.00  0.00     0.010 A 
HETATM   19  C   UNL     1      33.339  51.585  43.622  1.00  0.00     0.024 A 
HETATM   20  C   UNL     1      34.345  51.414  42.674  1.00  0.00     0.034 A 
HETATM   21  C   UNL     1      34.026  51.068  41.362  1.00  0.00     0.024 A 
HETATM   22 CL   UNL     1      35.991  51.633  43.126  1.00  0.00    -0.084 Cl
HETATM   23  C   UNL     1      32.690  50.888  40.996  1.00  0.00     0.010 A 
ENDBRANCH  16  17
ENDBRANCH   1  16
TORSDOF 2
ENDMDL
