MODEL 1
REMARK VINA RESULT:      -8.5      0.000      0.000
REMARK  4 active torsions:
REMARK  status: ('A' for Active; 'I' for Inactive)
REMARK    1  A    between atoms: C_5  and  C_6 
REMARK       I    between atoms: C_6  and  N_7 
REMARK    2  A    between atoms: N_7  and  C_8 
REMARK    3  A    between atoms: C_8  and  N_9 
REMARK    4  A    between atoms: N_9  and  C_10 
ROOT
HETATM    1  C   UNL     1      26.643  45.339  53.247  1.00  0.00     0.257 C 
HETATM    2  N   UNL     1      26.773  45.197  51.869  1.00  0.00    -0.299 N 
HETATM    3  O   UNL     1      25.701  45.852  53.838  1.00  0.00    -0.267 OA
HETATM    4  H   UNL     1      27.722  45.136  51.529  1.00  0.00     0.171 HD
ENDROOT
BRANCH   2   5
HETATM    5  C   UNL     1      25.885  45.590  50.917  1.00  0.00     0.180 C 
HETATM    6  S   UNL     1      25.570  44.556  49.638  1.00  0.00    -0.040 SA
BRANCH   5   7
HETATM    7  N   UNL     1      25.290  46.803  50.946  1.00  0.00    -0.318 N 
HETATM    8  H   UNL     1      24.852  47.047  51.824  1.00  0.00     0.170 HD
BRANCH   7   9
HETATM    9  C   UNL     1      25.584  47.893  50.108  1.00  0.00     0.129 A 
HETATM   10  N   UNL     1      24.589  48.586  49.514  1.00  0.00    -0.236 NA
HETATM   11  C   UNL     1      24.932  49.557  48.631  1.00  0.00     0.033 A 
HETATM   12  C   UNL     1      23.816  50.297  47.959  1.00  0.00     0.070 C 
HETATM   13  C   UNL     1      26.253  49.842  48.299  1.00  0.00     0.027 A 
HETATM   14  C   UNL     1      27.265  49.117  48.912  1.00  0.00     0.006 A 
HETATM   15  C   UNL     1      26.927  48.125  49.828  1.00  0.00     0.050 A 
ENDBRANCH   7   9
ENDBRANCH   5   7
ENDBRANCH   2   5
BRANCH   1  16
HETATM   16  C   UNL     1      27.867  44.966  54.005  1.00  0.00     0.032 A 
HETATM   17  C   UNL     1      28.492  43.749  53.712  1.00  0.00     0.017 A 
HETATM   18  C   UNL     1      29.594  43.331  54.460  1.00  0.00     0.007 A 
HETATM   19  C   UNL     1      30.086  44.127  55.502  1.00  0.00    -0.062 A 
HETATM   20  C   UNL     1      31.273  43.685  56.308  1.00  0.00     0.048 C 
HETATM   21  C   UNL     1      29.478  45.363  55.766  1.00  0.00     0.007 A 
HETATM   22  C   UNL     1      28.371  45.783  55.023  1.00  0.00     0.017 A 
ENDBRANCH   1  16
TORSDOF 4
ENDMDL
MODEL 2
REMARK VINA RESULT:      -8.3      1.271      1.906
REMARK  4 active torsions:
REMARK  status: ('A' for Active; 'I' for Inactive)
REMARK    1  A    between atoms: C_5  and  C_6 
REMARK       I    between atoms: C_6  and  N_7 
REMARK    2  A    between atoms: N_7  and  C_8 
REMARK    3  A    between atoms: C_8  and  N_9 
REMARK    4  A    between atoms: N_9  and  C_10 
ROOT
HETATM    1  C   UNL     1      27.614  45.101  53.544  1.00  0.00     0.257 C 
HETATM    2  N   UNL     1      27.469  44.283  52.429  1.00  0.00    -0.299 N 
HETATM    3  O   UNL     1      26.998  46.135  53.772  1.00  0.00    -0.267 OA
HETATM    4  H   UNL     1      28.279  43.728  52.191  1.00  0.00     0.171 HD
ENDROOT
BRANCH   2   5
HETATM    5  C   UNL     1      26.617  44.465  51.384  1.00  0.00     0.180 C 
HETATM    6  S   UNL     1      26.821  43.528  50.011  1.00  0.00    -0.040 SA
BRANCH   5   7
HETATM    7  N   UNL     1      25.648  45.406  51.402  1.00  0.00    -0.318 N 
HETATM    8  H   UNL     1      25.154  45.499  52.278  1.00  0.00     0.170 HD
BRANCH   7   9
HETATM    9  C   UNL     1      25.559  46.522  50.551  1.00  0.00     0.129 A 
HETATM   10  N   UNL     1      26.671  47.204  50.201  1.00  0.00    -0.236 NA
HETATM   11  C   UNL     1      26.516  48.335  49.468  1.00  0.00     0.033 A 
HETATM   12  C   UNL     1      27.757  49.096  49.113  1.00  0.00     0.070 C 
HETATM   13  C   UNL     1      25.270  48.825  49.091  1.00  0.00     0.027 A 
HETATM   14  C   UNL     1      24.136  48.116  49.463  1.00  0.00     0.006 A 
HETATM   15  C   UNL     1      24.281  46.949  50.206  1.00  0.00     0.050 A 
ENDBRANCH   7   9
ENDBRANCH   5   7
ENDBRANCH   2   5
BRANCH   1  16
HETATM   16  C   UNL     1      28.754  44.722  54.420  1.00  0.00     0.032 A 
HETATM   17  C   UNL     1      29.421  43.518  54.169  1.00  0.00     0.017 A 
HETATM   18  C   UNL     1      30.442  43.092  55.021  1.00  0.00     0.007 A 
HETATM   19  C   UNL     1      30.810  43.867  56.127  1.00  0.00    -0.062 A 
HETATM   20  C   UNL     1      31.909  43.418  57.045  1.00  0.00     0.048 C 
HETATM   21  C   UNL     1      30.164  45.091  56.352  1.00  0.00     0.007 A 
HETATM   22  C   UNL     1      29.137  45.519  55.505  1.00  0.00     0.017 A 
ENDBRANCH   1  16
TORSDOF 4
ENDMDL
MODEL 3
REMARK VINA RESULT:      -8.1      1.166      2.183
REMARK  4 active torsions:
REMARK  status: ('A' for Active; 'I' for Inactive)
REMARK    1  A    between atoms: C_5  and  C_6 
REMARK       I    between atoms: C_6  and  N_7 
REMARK    2  A    between atoms: N_7  and  C_8 
REMARK    3  A    between atoms: C_8  and  N_9 
REMARK    4  A    between atoms: N_9  and  C_10 
ROOT
HETATM    1  C   UNL     1      25.953  46.461  52.953  1.00  0.00     0.257 C 
HETATM    2  N   UNL     1      25.622  45.580  51.930  1.00  0.00    -0.299 N 
HETATM    3  O   UNL     1      25.524  47.599  53.100  1.00  0.00    -0.267 OA
HETATM    4  H   UNL     1      26.319  44.880  51.719  1.00  0.00     0.171 HD
ENDROOT
BRANCH   2   5
HETATM    5  C   UNL     1      24.758  45.804  50.902  1.00  0.00     0.180 C 
HETATM    6  S   UNL     1      24.600  44.631  49.718  1.00  0.00    -0.040 SA
BRANCH   5   7
HETATM    7  N   UNL     1      24.065  46.958  50.785  1.00  0.00    -0.318 N 
HETATM    8  H   UNL     1      23.637  47.292  51.637  1.00  0.00     0.170 HD
BRANCH   7   9
HETATM    9  C   UNL     1      24.240  47.934  49.789  1.00  0.00     0.129 A 
HETATM   10  N   UNL     1      25.460  48.470  49.565  1.00  0.00    -0.236 NA
HETATM   11  C   UNL     1      25.552  49.483  48.668  1.00  0.00     0.033 A 
HETATM   12  C   UNL     1      26.907  50.086  48.453  1.00  0.00     0.070 C 
HETATM   13  C   UNL     1      24.448  50.003  48.000  1.00  0.00     0.027 A 
HETATM   14  C   UNL     1      23.200  49.446  48.245  1.00  0.00     0.006 A 
HETATM   15  C   UNL     1      23.093  48.398  49.154  1.00  0.00     0.050 A 
ENDBRANCH   7   9
ENDBRANCH   5   7
ENDBRANCH   2   5
BRANCH   1  16
HETATM   16  C   UNL     1      27.061  45.980  53.822  1.00  0.00     0.032 A 
HETATM   17  C   UNL     1      27.562  46.839  54.805  1.00  0.00     0.017 A 
HETATM   18  C   UNL     1      28.655  46.450  55.583  1.00  0.00     0.007 A 
HETATM   19  C   UNL     1      29.252  45.198  55.390  1.00  0.00    -0.062 A 
HETATM   20  C   UNL     1      30.424  44.771  56.224  1.00  0.00     0.048 C 
HETATM   21  C   UNL     1      28.720  44.327  54.428  1.00  0.00     0.007 A 
HETATM   22  C   UNL     1      27.630  44.714  53.643  1.00  0.00     0.017 A 
ENDBRANCH   1  16
TORSDOF 4
ENDMDL
MODEL 4
REMARK VINA RESULT:      -7.8      2.214      3.069
REMARK  4 active torsions:
REMARK  status: ('A' for Active; 'I' for Inactive)
REMARK    1  A    between atoms: C_5  and  C_6 
REMARK       I    between atoms: C_6  and  N_7 
REMARK    2  A    between atoms: N_7  and  C_8 
REMARK    3  A    between atoms: C_8  and  N_9 
REMARK    4  A    between atoms: N_9  and  C_10 
ROOT
HETATM    1  C   UNL     1      28.972  43.132  52.746  1.00  0.00     0.257 C 
HETATM    2  N   UNL     1      27.875  43.712  52.118  1.00  0.00    -0.299 N 
HETATM    3  O   UNL     1      29.549  42.108  52.400  1.00  0.00    -0.267 OA
HETATM    4  H   UNL     1      27.290  44.283  52.711  1.00  0.00     0.171 HD
ENDROOT
BRANCH   2   5
HETATM    5  C   UNL     1      27.236  43.264  51.004  1.00  0.00     0.180 C 
HETATM    6  S   UNL     1      26.633  41.702  50.999  1.00  0.00    -0.040 SA
BRANCH   5   7
HETATM    7  N   UNL     1      27.117  44.021  49.890  1.00  0.00    -0.318 N 
HETATM    8  H   UNL     1      27.097  43.507  49.021  1.00  0.00     0.170 HD
BRANCH   7   9
HETATM    9  C   UNL     1      26.586  45.321  49.824  1.00  0.00     0.129 A 
HETATM   10  N   UNL     1      27.353  46.352  49.408  1.00  0.00    -0.236 NA
HETATM   11  C   UNL     1      26.825  47.599  49.467  1.00  0.00     0.033 A 
HETATM   12  C   UNL     1      27.700  48.735  49.030  1.00  0.00     0.070 C 
HETATM   13  C   UNL     1      25.549  47.856  49.959  1.00  0.00     0.027 A 
HETATM   14  C   UNL     1      24.774  46.787  50.388  1.00  0.00     0.006 A 
HETATM   15  C   UNL     1      25.300  45.501  50.323  1.00  0.00     0.050 A 
ENDBRANCH   7   9
ENDBRANCH   5   7
ENDBRANCH   2   5
BRANCH   1  16
HETATM   16  C   UNL     1      29.326  43.767  54.043  1.00  0.00     0.032 A 
HETATM   17  C   UNL     1      28.589  44.879  54.467  1.00  0.00     0.017 A 
HETATM   18  C   UNL     1      28.946  45.549  55.638  1.00  0.00     0.007 A 
HETATM   19  C   UNL     1      30.037  45.112  56.400  1.00  0.00    -0.062 A 
HETATM   20  C   UNL     1      30.424  45.824  57.663  1.00  0.00     0.048 C 
HETATM   21  C   UNL     1      30.747  43.974  55.990  1.00  0.00     0.007 A 
HETATM   22  C   UNL     1      30.397  43.304  54.815  1.00  0.00     0.017 A 
ENDBRANCH   1  16
TORSDOF 4
ENDMDL
MODEL 5
REMARK VINA RESULT:      -7.7      2.762      3.628
REMARK  4 active torsions:
REMARK  status: ('A' for Active; 'I' for Inactive)
REMARK    1  A    between atoms: C_5  and  C_6 
REMARK       I    between atoms: C_6  and  N_7 
REMARK    2  A    between atoms: N_7  and  C_8 
REMARK    3  A    between atoms: C_8  and  N_9 
REMARK    4  A    between atoms: N_9  and  C_10 
ROOT
HETATM    1  C   UNL     1      29.402  43.431  53.252  1.00  0.00     0.257 C 
HETATM    2  N   UNL     1      28.044  43.144  53.160  1.00  0.00    -0.299 N 
HETATM    3  O   UNL     1      30.258  43.170  52.416  1.00  0.00    -0.267 OA
HETATM    4  H   UNL     1      27.561  43.050  54.042  1.00  0.00     0.171 HD
ENDROOT
BRANCH   2   5
HETATM    5  C   UNL     1      27.404  42.530  52.129  1.00  0.00     0.180 C 
HETATM    6  S   UNL     1      27.669  40.896  51.880  1.00  0.00    -0.040 SA
BRANCH   5   7
HETATM    7  N   UNL     1      26.603  43.206  51.276  1.00  0.00    -0.318 N 
HETATM    8  H   UNL     1      25.831  42.675  50.898  1.00  0.00     0.170 HD
BRANCH   7   9
HETATM    9  C   UNL     1      26.451  44.602  51.210  1.00  0.00     0.129 A 
HETATM   10  N   UNL     1      26.266  45.322  52.338  1.00  0.00    -0.236 NA
HETATM   11  C   UNL     1      26.016  46.649  52.209  1.00  0.00     0.033 A 
HETATM   12  C   UNL     1      25.785  47.427  53.469  1.00  0.00     0.070 C 
HETATM   13  C   UNL     1      25.916  47.281  50.974  1.00  0.00     0.027 A 
HETATM   14  C   UNL     1      26.102  46.527  49.824  1.00  0.00     0.006 A 
HETATM   15  C   UNL     1      26.370  45.167  49.942  1.00  0.00     0.050 A 
ENDBRANCH   7   9
ENDBRANCH   5   7
ENDBRANCH   2   5
BRANCH   1  16
HETATM   16  C   UNL     1      29.815  43.950  54.584  1.00  0.00     0.032 A 
HETATM   17  C   UNL     1      30.782  43.244  55.307  1.00  0.00     0.017 A 
HETATM   18  C   UNL     1      31.133  43.657  56.594  1.00  0.00     0.007 A 
HETATM   19  C   UNL     1      30.527  44.782  57.166  1.00  0.00    -0.062 A 
HETATM   20  C   UNL     1      30.903  45.235  58.547  1.00  0.00     0.048 C 
HETATM   21  C   UNL     1      29.586  45.508  56.421  1.00  0.00     0.007 A 
HETATM   22  C   UNL     1      29.228  45.094  55.135  1.00  0.00     0.017 A 
ENDBRANCH   1  16
TORSDOF 4
ENDMDL
MODEL 6
REMARK VINA RESULT:      -7.6      4.331      5.921
REMARK  4 active torsions:
REMARK  status: ('A' for Active; 'I' for Inactive)
REMARK    1  A    between atoms: C_5  and  C_6 
REMARK       I    between atoms: C_6  and  N_7 
REMARK    2  A    between atoms: N_7  and  C_8 
REMARK    3  A    between atoms: C_8  and  N_9 
REMARK    4  A    between atoms: N_9  and  C_10 
ROOT
HETATM    1  C   UNL     1      29.256  43.424  53.067  1.00  0.00     0.257 C 
HETATM    2  N   UNL     1      28.089  43.940  52.515  1.00  0.00    -0.299 N 
HETATM    3  O   UNL     1      29.925  42.501  52.618  1.00  0.00    -0.267 OA
HETATM    4  H   UNL     1      27.464  44.391  53.168  1.00  0.00     0.171 HD
ENDROOT
BRANCH   2   5
HETATM    5  C   UNL     1      27.469  43.531  51.375  1.00  0.00     0.180 C 
HETATM    6  S   UNL     1      27.065  44.679  50.225  1.00  0.00    -0.040 SA
BRANCH   5   7
HETATM    7  N   UNL     1      27.129  42.240  51.166  1.00  0.00    -0.318 N 
HETATM    8  H   UNL     1      26.192  41.990  51.448  1.00  0.00     0.170 HD
BRANCH   7   9
HETATM    9  C   UNL     1      27.721  41.365  50.238  1.00  0.00     0.129 A 
HETATM   10  N   UNL     1      27.635  41.615  48.913  1.00  0.00    -0.236 NA
HETATM   11  C   UNL     1      28.128  40.684  48.059  1.00  0.00     0.033 A 
HETATM   12  C   UNL     1      27.998  40.963  46.593  1.00  0.00     0.070 C 
HETATM   13  C   UNL     1      28.687  39.485  48.491  1.00  0.00     0.027 A 
HETATM   14  C   UNL     1      28.764  39.240  49.855  1.00  0.00     0.006 A 
HETATM   15  C   UNL     1      28.271  40.191  50.742  1.00  0.00     0.050 A 
ENDBRANCH   7   9
ENDBRANCH   5   7
ENDBRANCH   2   5
BRANCH   1  16
HETATM   16  C   UNL     1      29.576  43.973  54.412  1.00  0.00     0.032 A 
HETATM   17  C   UNL     1      28.865  45.089  54.866  1.00  0.00     0.017 A 
HETATM   18  C   UNL     1      29.196  45.680  56.087  1.00  0.00     0.007 A 
HETATM   19  C   UNL     1      30.234  45.157  56.868  1.00  0.00    -0.062 A 
HETATM   20  C   UNL     1      30.593  45.784  58.184  1.00  0.00     0.048 C 
HETATM   21  C   UNL     1      30.918  44.015  56.425  1.00  0.00     0.007 A 
HETATM   22  C   UNL     1      30.594  43.425  55.200  1.00  0.00     0.017 A 
ENDBRANCH   1  16
TORSDOF 4
ENDMDL
MODEL 7
REMARK VINA RESULT:      -7.5      4.544      6.851
REMARK  4 active torsions:
REMARK  status: ('A' for Active; 'I' for Inactive)
REMARK    1  A    between atoms: C_5  and  C_6 
REMARK       I    between atoms: C_6  and  N_7 
REMARK    2  A    between atoms: N_7  and  C_8 
REMARK    3  A    between atoms: C_8  and  N_9 
REMARK    4  A    between atoms: N_9  and  C_10 
ROOT
HETATM    1  C   UNL     1      27.744  43.680  51.739  1.00  0.00     0.257 C 
HETATM    2  N   UNL     1      27.417  42.391  51.332  1.00  0.00    -0.299 N 
HETATM    3  O   UNL     1      27.478  44.719  51.147  1.00  0.00    -0.267 OA
HETATM    4  H   UNL     1      28.020  41.661  51.682  1.00  0.00     0.171 HD
ENDROOT
BRANCH   2   5
HETATM    5  C   UNL     1      26.738  42.034  50.208  1.00  0.00     0.180 C 
HETATM    6  S   UNL     1      25.065  42.109  50.225  1.00  0.00    -0.040 SA
BRANCH   5   7
HETATM    7  N   UNL     1      27.367  41.577  49.103  1.00  0.00    -0.318 N 
HETATM    8  H   UNL     1      27.772  42.289  48.512  1.00  0.00     0.170 HD
BRANCH   7   9
HETATM    9  C   UNL     1      27.896  40.287  48.924  1.00  0.00     0.129 A 
HETATM   10  N   UNL     1      28.582  39.685  49.919  1.00  0.00    -0.236 NA
HETATM   11  C   UNL     1      29.163  38.489  49.656  1.00  0.00     0.033 A 
HETATM   12  C   UNL     1      29.945  37.849  50.763  1.00  0.00     0.070 C 
HETATM   13  C   UNL     1      29.103  37.879  48.407  1.00  0.00     0.027 A 
HETATM   14  C   UNL     1      28.400  38.512  47.391  1.00  0.00     0.006 A 
HETATM   15  C   UNL     1      27.790  39.735  47.651  1.00  0.00     0.050 A 
ENDBRANCH   7   9
ENDBRANCH   5   7
ENDBRANCH   2   5
BRANCH   1  16
HETATM   16  C   UNL     1      28.643  43.724  52.923  1.00  0.00     0.032 A 
HETATM   17  C   UNL     1      29.781  42.909  52.931  1.00  0.00     0.017 A 
HETATM   18  C   UNL     1      30.601  42.864  54.060  1.00  0.00     0.007 A 
HETATM   19  C   UNL     1      30.298  43.637  55.187  1.00  0.00    -0.062 A 
HETATM   20  C   UNL     1      31.177  43.597  56.403  1.00  0.00     0.048 C 
HETATM   21  C   UNL     1      29.177  44.480  55.159  1.00  0.00     0.007 A 
HETATM   22  C   UNL     1      28.350  44.523  54.033  1.00  0.00     0.017 A 
ENDBRANCH   1  16
TORSDOF 4
ENDMDL
MODEL 8
REMARK VINA RESULT:      -7.5      4.545      6.482
REMARK  4 active torsions:
REMARK  status: ('A' for Active; 'I' for Inactive)
REMARK    1  A    between atoms: C_5  and  C_6 
REMARK       I    between atoms: C_6  and  N_7 
REMARK    2  A    between atoms: N_7  and  C_8 
REMARK    3  A    between atoms: C_8  and  N_9 
REMARK    4  A    between atoms: N_9  and  C_10 
ROOT
HETATM    1  C   UNL     1      29.063  42.982  53.295  1.00  0.00     0.257 C 
HETATM    2  N   UNL     1      28.165  43.639  52.462  1.00  0.00    -0.299 N 
HETATM    3  O   UNL     1      29.402  41.808  53.216  1.00  0.00    -0.267 OA
HETATM    4  H   UNL     1      27.699  44.437  52.872  1.00  0.00     0.171 HD
ENDROOT
BRANCH   2   5
HETATM    5  C   UNL     1      27.495  43.114  51.401  1.00  0.00     0.180 C 
HETATM    6  S   UNL     1      26.985  44.145  50.184  1.00  0.00    -0.040 SA
BRANCH   5   7
HETATM    7  N   UNL     1      27.189  41.799  51.323  1.00  0.00    -0.318 N 
HETATM    8  H   UNL     1      26.284  41.546  51.693  1.00  0.00     0.170 HD
BRANCH   7   9
HETATM    9  C   UNL     1      27.746  40.869  50.428  1.00  0.00     0.129 A 
HETATM   10  N   UNL     1      28.423  39.797  50.892  1.00  0.00    -0.236 NA
HETATM   11  C   UNL     1      29.032  38.991  49.986  1.00  0.00     0.033 A 
HETATM   12  C   UNL     1      29.804  37.822  50.518  1.00  0.00     0.070 C 
HETATM   13  C   UNL     1      29.008  39.242  48.617  1.00  0.00     0.027 A 
HETATM   14  C   UNL     1      28.313  40.351  48.156  1.00  0.00     0.006 A 
HETATM   15  C   UNL     1      27.674  41.180  49.074  1.00  0.00     0.050 A 
ENDBRANCH   7   9
ENDBRANCH   5   7
ENDBRANCH   2   5
BRANCH   1  16
HETATM   16  C   UNL     1      29.489  43.788  54.471  1.00  0.00     0.032 A 
HETATM   17  C   UNL     1      30.579  43.345  55.228  1.00  0.00     0.017 A 
HETATM   18  C   UNL     1      30.953  44.032  56.384  1.00  0.00     0.007 A 
HETATM   19  C   UNL     1      30.248  45.172  56.790  1.00  0.00    -0.062 A 
HETATM   20  C   UNL     1      30.648  45.919  58.029  1.00  0.00     0.048 C 
HETATM   21  C   UNL     1      29.181  45.634  56.005  1.00  0.00     0.007 A 
HETATM   22  C   UNL     1      28.799  44.945  54.851  1.00  0.00     0.017 A 
ENDBRANCH   1  16
TORSDOF 4
ENDMDL
MODEL 9
REMARK VINA RESULT:      -7.4      3.290      5.179
REMARK  4 active torsions:
REMARK  status: ('A' for Active; 'I' for Inactive)
REMARK    1  A    between atoms: C_5  and  C_6 
REMARK       I    between atoms: C_6  and  N_7 
REMARK    2  A    between atoms: N_7  and  C_8 
REMARK    3  A    between atoms: C_8  and  N_9 
REMARK    4  A    between atoms: N_9  and  C_10 
ROOT
HETATM    1  C   UNL     1      27.195  44.094  52.848  1.00  0.00     0.257 C 
HETATM    2  N   UNL     1      27.540  44.486  51.560  1.00  0.00    -0.299 N 
HETATM    3  O   UNL     1      26.061  43.901  53.270  1.00  0.00    -0.267 OA
HETATM    4  H   UNL     1      28.420  44.975  51.477  1.00  0.00     0.171 HD
ENDROOT
BRANCH   2   5
HETATM    5  C   UNL     1      26.695  44.725  50.521  1.00  0.00     0.180 C 
HETATM    6  S   UNL     1      26.502  46.301  49.991  1.00  0.00    -0.040 SA
BRANCH   5   7
HETATM    7  N   UNL     1      25.974  43.740  49.940  1.00  0.00    -0.318 N 
HETATM    8  H   UNL     1      25.206  44.053  49.362  1.00  0.00     0.170 HD
BRANCH   7   9
HETATM    9  C   UNL     1      26.414  42.430  49.684  1.00  0.00     0.129 A 
HETATM   10  N   UNL     1      27.165  42.163  48.593  1.00  0.00    -0.236 NA
HETATM   11  C   UNL     1      27.470  40.867  48.336  1.00  0.00     0.033 A 
HETATM   12  C   UNL     1      28.279  40.585  47.106  1.00  0.00     0.070 C 
HETATM   13  C   UNL     1      27.022  39.815  49.128  1.00  0.00     0.027 A 
HETATM   14  C   UNL     1      26.247  40.104  50.242  1.00  0.00     0.006 A 
HETATM   15  C   UNL     1      25.935  41.430  50.524  1.00  0.00     0.050 A 
ENDBRANCH   7   9
ENDBRANCH   5   7
ENDBRANCH   2   5
BRANCH   1  16
HETATM   16  C   UNL     1      28.339  44.086  53.798  1.00  0.00     0.032 A 
HETATM   17  C   UNL     1      29.194  42.979  53.810  1.00  0.00     0.017 A 
HETATM   18  C   UNL     1      30.228  42.903  54.745  1.00  0.00     0.007 A 
HETATM   19  C   UNL     1      30.423  43.935  55.671  1.00  0.00    -0.062 A 
HETATM   20  C   UNL     1      31.535  43.862  56.676  1.00  0.00     0.048 C 
HETATM   21  C   UNL     1      29.586  45.060  55.629  1.00  0.00     0.007 A 
HETATM   22  C   UNL     1      28.546  45.137  54.699  1.00  0.00     0.017 A 
ENDBRANCH   1  16
TORSDOF 4
ENDMDL
MODEL 10
REMARK VINA RESULT:      -7.4      3.165      4.976
REMARK  4 active torsions:
REMARK  status: ('A' for Active; 'I' for Inactive)
REMARK    1  A    between atoms: C_5  and  C_6 
REMARK       I    between atoms: C_6  and  N_7 
REMARK    2  A    between atoms: N_7  and  C_8 
REMARK    3  A    between atoms: C_8  and  N_9 
REMARK    4  A    between atoms: N_9  and  C_10 
ROOT
HETATM    1  C   UNL     1      24.453  47.366  50.227  1.00  0.00     0.257 C 
HETATM    2  N   UNL     1      23.359  46.781  49.599  1.00  0.00    -0.299 N 
HETATM    3  O   UNL     1      25.042  48.378  49.867  1.00  0.00    -0.267 OA
HETATM    4  H   UNL     1      23.247  45.790  49.760  1.00  0.00     0.171 HD
ENDROOT
BRANCH   2   5
HETATM    5  C   UNL     1      22.729  47.217  48.475  1.00  0.00     0.180 C 
HETATM    6  S   UNL     1      22.141  46.081  47.394  1.00  0.00    -0.040 SA
BRANCH   5   7
HETATM    7  N   UNL     1      22.607  48.531  48.183  1.00  0.00    -0.318 N 
HETATM    8  H   UNL     1      23.008  48.815  47.300  1.00  0.00     0.170 HD
BRANCH   7   9
HETATM    9  C   UNL     1      21.645  49.411  48.707  1.00  0.00     0.129 A 
HETATM   10  N   UNL     1      20.702  48.962  49.564  1.00  0.00    -0.236 NA
HETATM   11  C   UNL     1      19.735  49.828  49.953  1.00  0.00     0.033 A 
HETATM   12  C   UNL     1      18.679  49.305  50.880  1.00  0.00     0.070 C 
HETATM   13  C   UNL     1      19.662  51.137  49.488  1.00  0.00     0.027 A 
HETATM   14  C   UNL     1      20.635  51.584  48.604  1.00  0.00     0.006 A 
HETATM   15  C   UNL     1      21.640  50.708  48.204  1.00  0.00     0.050 A 
ENDBRANCH   7   9
ENDBRANCH   5   7
ENDBRANCH   2   5
BRANCH   1  16
HETATM   16  C   UNL     1      25.015  46.548  51.335  1.00  0.00     0.032 A 
HETATM   17  C   UNL     1      24.696  45.187  51.391  1.00  0.00     0.017 A 
HETATM   18  C   UNL     1      25.140  44.408  52.462  1.00  0.00     0.007 A 
HETATM   19  C   UNL     1      25.911  44.980  53.482  1.00  0.00    -0.062 A 
HETATM   20  C   UNL     1      26.395  44.148  54.634  1.00  0.00     0.048 C 
HETATM   21  C   UNL     1      26.259  46.336  53.399  1.00  0.00     0.007 A 
HETATM   22  C   UNL     1      25.812  47.120  52.332  1.00  0.00     0.017 A 
ENDBRANCH   1  16
TORSDOF 4
ENDMDL
