MODEL 1
REMARK VINA RESULT:      -9.7      0.000      0.000
REMARK  6 active torsions:
REMARK  status: ('A' for Active; 'I' for Inactive)
REMARK    1  A    between atoms: C_2  and  S_3 
REMARK    2  A    between atoms: S_3  and  C_4 
REMARK    3  A    between atoms: C_5  and  C_6 
REMARK       I    between atoms: C_6  and  N_7 
REMARK    4  A    between atoms: N_7  and  C_8 
REMARK    5  A    between atoms: N_9  and  C_10 
REMARK    6  A    between atoms: C_22  and  C_23 
ROOT
HETATM    1  C   UNL     1      25.390  45.435  51.030  1.00  0.00     0.152 A 
HETATM    2  N   UNL     1      25.547  46.497  51.912  1.00  0.00    -0.044 N 
HETATM    3  N   UNL     1      24.951  47.644  51.462  1.00  0.00    -0.148 NA
HETATM    4  C   UNL     1      24.435  47.295  50.277  1.00  0.00     0.115 A 
HETATM    5  C   UNL     1      24.650  45.934  49.982  1.00  0.00     0.087 A 
ENDROOT
BRANCH   1   6
HETATM    6  N   UNL     1      25.957  44.187  51.252  1.00  0.00    -0.307 N 
HETATM    7  C   UNL     1      26.911  43.640  50.418  1.00  0.00     0.258 C 
HETATM    8  O   UNL     1      27.282  44.077  49.334  1.00  0.00    -0.267 OA
HETATM    9  H   UNL     1      25.707  43.702  52.117  1.00  0.00     0.170 HD
BRANCH   7  10
HETATM   10  C   UNL     1      27.618  42.464  50.977  1.00  0.00     0.049 A 
HETATM   11  C   UNL     1      27.591  41.185  50.403  1.00  0.00     0.016 A 
HETATM   12  C   UNL     1      28.262  40.141  51.057  1.00  0.00     0.019 A 
HETATM   13  C   UNL     1      28.964  40.371  52.245  1.00  0.00     0.001 A 
HETATM   14  C   UNL     1      29.008  41.649  52.792  1.00  0.00     0.001 A 
HETATM   15  C   UNL     1      28.340  42.694  52.160  1.00  0.00     0.018 A 
BRANCH  11  16
HETATM   16  S   UNL     1      26.802  40.795  48.847  1.00  0.00    -0.129 SA
BRANCH  16  17
HETATM   17  C   UNL     1      28.290  40.773  47.791  1.00  0.00     0.075 C 
HETATM   18  C   UNL     1      27.894  40.814  46.327  1.00  0.00     0.016 C 
ENDBRANCH  16  17
ENDBRANCH  11  16
ENDBRANCH   7  10
ENDBRANCH   1   6
BRANCH   2  19
HETATM   19  C   UNL     1      26.261  46.526  53.126  1.00  0.00     0.732 A 
HETATM   20  N   UNL     1      27.232  45.715  53.406  1.00  0.00    -0.067 NA
HETATM   21  C   UNL     1      27.832  45.891  54.635  1.00  0.00     0.065 A 
HETATM   22  C   UNL     1      27.474  46.834  55.527  1.00  0.00     0.036 A 
HETATM   23  C   UNL     1      28.975  44.944  54.928  1.00  0.00     0.060 C 
HETATM   24  C   UNL     1      28.117  47.029  56.870  1.00  0.00     0.046 C 
HETATM   25  C   UNL     1      26.363  47.749  55.166  1.00  0.00     0.268 A 
HETATM   26  C   UNL     1      29.028  45.867  57.269  1.00  0.00     0.005 C 
HETATM   27  C   UNL     1      29.866  45.396  56.086  1.00  0.00     0.006 C 
HETATM   28  O   UNL     1      25.984  48.648  55.906  1.00  0.00    -0.267 OA
HETATM   29  N   UNL     1      25.806  47.517  53.950  1.00  0.00    -0.152 N 
HETATM   30  H   UNL     1      25.045  48.111  53.635  1.00  0.00     0.188 HD
ENDBRANCH   2  19
BRANCH   4  31
HETATM   31  C   UNL     1      23.745  48.264  49.377  1.00  0.00     0.105 A 
HETATM   32  O   UNL     1      22.417  48.206  49.049  1.00  0.00    -0.320 OA
HETATM   33  C   UNL     1      22.166  49.227  48.192  1.00  0.00     0.142 A 
HETATM   34  C   UNL     1      23.310  49.952  47.958  1.00  0.00     0.027 A 
HETATM   35  C   UNL     1      24.329  49.334  48.725  1.00  0.00     0.041 A 
ENDBRANCH   4  31
TORSDOF 6
ENDMDL
MODEL 2
REMARK VINA RESULT:      -9.7      3.051      8.466
REMARK  6 active torsions:
REMARK  status: ('A' for Active; 'I' for Inactive)
REMARK    1  A    between atoms: C_2  and  S_3 
REMARK    2  A    between atoms: S_3  and  C_4 
REMARK    3  A    between atoms: C_5  and  C_6 
REMARK       I    between atoms: C_6  and  N_7 
REMARK    4  A    between atoms: N_7  and  C_8 
REMARK    5  A    between atoms: N_9  and  C_10 
REMARK    6  A    between atoms: C_22  and  C_23 
ROOT
HETATM    1  C   UNL     1      27.588  43.370  52.589  1.00  0.00     0.152 A 
HETATM    2  N   UNL     1      28.433  42.274  52.478  1.00  0.00    -0.044 N 
HETATM    3  N   UNL     1      29.367  42.230  53.478  1.00  0.00    -0.148 NA
HETATM    4  C   UNL     1      29.111  43.324  54.206  1.00  0.00     0.115 A 
HETATM    5  C   UNL     1      28.001  44.042  53.718  1.00  0.00     0.087 A 
ENDROOT
BRANCH   1   6
HETATM    6  N   UNL     1      26.597  43.650  51.657  1.00  0.00    -0.307 N 
HETATM    7  C   UNL     1      25.333  44.074  52.013  1.00  0.00     0.258 C 
HETATM    8  O   UNL     1      24.865  44.129  53.145  1.00  0.00    -0.267 OA
HETATM    9  H   UNL     1      26.856  43.614  50.668  1.00  0.00     0.170 HD
BRANCH   7  10
HETATM   10  C   UNL     1      24.527  44.619  50.896  1.00  0.00     0.049 A 
HETATM   11  C   UNL     1      24.632  45.933  50.419  1.00  0.00     0.016 A 
HETATM   12  C   UNL     1      23.774  46.343  49.386  1.00  0.00     0.019 A 
HETATM   13  C   UNL     1      22.851  45.456  48.825  1.00  0.00     0.001 A 
HETATM   14  C   UNL     1      22.773  44.145  49.285  1.00  0.00     0.001 A 
HETATM   15  C   UNL     1      23.611  43.726  50.316  1.00  0.00     0.018 A 
BRANCH  11  16
HETATM   16  S   UNL     1      25.832  47.124  51.000  1.00  0.00    -0.129 SA
BRANCH  16  17
HETATM   17  C   UNL     1      25.843  48.222  49.542  1.00  0.00     0.075 C 
HETATM   18  C   UNL     1      27.270  48.583  49.170  1.00  0.00     0.016 C 
ENDBRANCH  16  17
ENDBRANCH  11  16
ENDBRANCH   7  10
ENDBRANCH   1   6
BRANCH   2  19
HETATM   19  C   UNL     1      28.459  41.289  51.471  1.00  0.00     0.732 A 
HETATM   20  N   UNL     1      27.941  41.453  50.295  1.00  0.00    -0.067 NA
HETATM   21  C   UNL     1      28.068  40.391  49.424  1.00  0.00     0.065 A 
HETATM   22  C   UNL     1      28.686  39.232  49.725  1.00  0.00     0.036 A 
HETATM   23  C   UNL     1      27.472  40.617  48.053  1.00  0.00     0.060 C 
HETATM   24  C   UNL     1      28.823  38.069  48.786  1.00  0.00     0.046 C 
HETATM   25  C   UNL     1      29.274  39.086  51.079  1.00  0.00     0.268 A 
HETATM   26  C   UNL     1      27.937  38.196  47.546  1.00  0.00     0.005 C 
HETATM   27  C   UNL     1      27.958  39.618  47.000  1.00  0.00     0.006 C 
HETATM   28  O   UNL     1      29.871  38.077  51.432  1.00  0.00    -0.267 OA
HETATM   29  N   UNL     1      29.104  40.161  51.893  1.00  0.00    -0.152 N 
HETATM   30  H   UNL     1      29.489  40.132  52.832  1.00  0.00     0.188 HD
ENDBRANCH   2  19
BRANCH   4  31
HETATM   31  C   UNL     1      29.942  43.731  55.376  1.00  0.00     0.105 A 
HETATM   32  O   UNL     1      29.791  44.906  56.062  1.00  0.00    -0.320 OA
HETATM   33  C   UNL     1      30.740  44.934  57.031  1.00  0.00     0.142 A 
HETATM   34  C   UNL     1      31.506  43.794  56.989  1.00  0.00     0.027 A 
HETATM   35  C   UNL     1      30.990  43.015  55.924  1.00  0.00     0.041 A 
ENDBRANCH   4  31
TORSDOF 6
ENDMDL
MODEL 3
REMARK VINA RESULT:      -9.6      2.755      7.621
REMARK  6 active torsions:
REMARK  status: ('A' for Active; 'I' for Inactive)
REMARK    1  A    between atoms: C_2  and  S_3 
REMARK    2  A    between atoms: S_3  and  C_4 
REMARK    3  A    between atoms: C_5  and  C_6 
REMARK       I    between atoms: C_6  and  N_7 
REMARK    4  A    between atoms: N_7  and  C_8 
REMARK    5  A    between atoms: N_9  and  C_10 
REMARK    6  A    between atoms: C_22  and  C_23 
ROOT
HETATM    1  C   UNL     1      27.983  42.271  51.406  1.00  0.00     0.152 A 
HETATM    2  N   UNL     1      27.033  42.567  50.439  1.00  0.00    -0.044 N 
HETATM    3  N   UNL     1      26.815  41.523  49.581  1.00  0.00    -0.148 NA
HETATM    4  C   UNL     1      27.655  40.574  50.010  1.00  0.00     0.115 A 
HETATM    5  C   UNL     1      28.374  40.975  51.154  1.00  0.00     0.087 A 
ENDROOT
BRANCH   1   6
HETATM    6  N   UNL     1      28.405  43.197  52.351  1.00  0.00    -0.307 N 
HETATM    7  C   UNL     1      28.053  43.121  53.683  1.00  0.00     0.258 C 
HETATM    8  O   UNL     1      27.241  42.353  54.188  1.00  0.00    -0.267 OA
HETATM    9  H   UNL     1      29.071  43.912  52.047  1.00  0.00     0.170 HD
BRANCH   7  10
HETATM   10  C   UNL     1      28.840  43.996  54.581  1.00  0.00     0.049 A 
HETATM   11  C   UNL     1      28.476  45.308  54.918  1.00  0.00     0.016 A 
HETATM   12  C   UNL     1      29.335  46.053  55.740  1.00  0.00     0.019 A 
HETATM   13  C   UNL     1      30.518  45.496  56.236  1.00  0.00     0.001 A 
HETATM   14  C   UNL     1      30.857  44.184  55.919  1.00  0.00     0.001 A 
HETATM   15  C   UNL     1      30.020  43.434  55.096  1.00  0.00     0.018 A 
BRANCH  11  16
HETATM   16  S   UNL     1      26.950  46.091  54.415  1.00  0.00    -0.129 SA
BRANCH  16  17
HETATM   17  C   UNL     1      27.407  47.821  54.777  1.00  0.00     0.075 C 
HETATM   18  C   UNL     1      26.404  48.439  55.733  1.00  0.00     0.016 C 
ENDBRANCH  16  17
ENDBRANCH  11  16
ENDBRANCH   7  10
ENDBRANCH   1   6
BRANCH   2  19
HETATM   19  C   UNL     1      26.348  43.781  50.229  1.00  0.00     0.732 A 
HETATM   20  N   UNL     1      26.939  44.931  50.141  1.00  0.00    -0.067 NA
HETATM   21  C   UNL     1      26.119  46.018  49.921  1.00  0.00     0.065 A 
HETATM   22  C   UNL     1      24.780  45.945  49.793  1.00  0.00     0.036 A 
HETATM   23  C   UNL     1      26.837  47.344  49.803  1.00  0.00     0.060 C 
HETATM   24  C   UNL     1      23.880  47.123  49.560  1.00  0.00     0.046 C 
HETATM   25  C   UNL     1      24.142  44.609  49.891  1.00  0.00     0.268 A 
HETATM   26  C   UNL     1      24.583  48.464  49.774  1.00  0.00     0.005 C 
HETATM   27  C   UNL     1      25.984  48.450  49.177  1.00  0.00     0.006 C 
HETATM   28  O   UNL     1      22.935  44.447  49.767  1.00  0.00    -0.267 OA
HETATM   29  N   UNL     1      25.001  43.583  50.122  1.00  0.00    -0.152 N 
HETATM   30  H   UNL     1      24.632  42.639  50.192  1.00  0.00     0.188 HD
ENDBRANCH   2  19
BRANCH   4  31
HETATM   31  C   UNL     1      27.817  39.263  49.317  1.00  0.00     0.105 A 
HETATM   32  O   UNL     1      27.004  38.179  49.511  1.00  0.00    -0.320 OA
HETATM   33  C   UNL     1      27.481  37.171  48.738  1.00  0.00     0.142 A 
HETATM   34  C   UNL     1      28.591  37.583  48.040  1.00  0.00     0.027 A 
HETATM   35  C   UNL     1      28.807  38.933  48.410  1.00  0.00     0.041 A 
ENDBRANCH   4  31
TORSDOF 6
ENDMDL
MODEL 4
REMARK VINA RESULT:      -9.1      1.513      2.146
REMARK  6 active torsions:
REMARK  status: ('A' for Active; 'I' for Inactive)
REMARK    1  A    between atoms: C_2  and  S_3 
REMARK    2  A    between atoms: S_3  and  C_4 
REMARK    3  A    between atoms: C_5  and  C_6 
REMARK       I    between atoms: C_6  and  N_7 
REMARK    4  A    between atoms: N_7  and  C_8 
REMARK    5  A    between atoms: N_9  and  C_10 
REMARK    6  A    between atoms: C_22  and  C_23 
ROOT
HETATM    1  C   UNL     1      26.428  44.225  50.721  1.00  0.00     0.152 A 
HETATM    2  N   UNL     1      26.530  45.124  51.774  1.00  0.00    -0.044 N 
HETATM    3  N   UNL     1      25.709  46.209  51.618  1.00  0.00    -0.148 NA
HETATM    4  C   UNL     1      25.105  45.989  50.444  1.00  0.00     0.115 A 
HETATM    5  C   UNL     1      25.490  44.761  49.868  1.00  0.00     0.087 A 
ENDROOT
BRANCH   1   6
HETATM    6  N   UNL     1      27.206  43.078  50.638  1.00  0.00    -0.307 N 
HETATM    7  C   UNL     1      26.666  41.808  50.616  1.00  0.00     0.258 C 
HETATM    8  O   UNL     1      25.493  41.501  50.802  1.00  0.00    -0.267 OA
HETATM    9  H   UNL     1      28.213  43.199  50.505  1.00  0.00     0.170 HD
BRANCH   7  10
HETATM   10  C   UNL     1      27.611  40.742  50.210  1.00  0.00     0.049 A 
HETATM   11  C   UNL     1      27.730  40.253  48.901  1.00  0.00     0.016 A 
HETATM   12  C   UNL     1      28.629  39.204  48.655  1.00  0.00     0.019 A 
HETATM   13  C   UNL     1      29.410  38.671  49.685  1.00  0.00     0.001 A 
HETATM   14  C   UNL     1      29.307  39.182  50.975  1.00  0.00     0.001 A 
HETATM   15  C   UNL     1      28.412  40.216  51.238  1.00  0.00     0.018 A 
BRANCH  11  16
HETATM   16  S   UNL     1      26.848  40.915  47.494  1.00  0.00    -0.129 SA
BRANCH  16  17
HETATM   17  C   UNL     1      27.684  39.959  46.183  1.00  0.00     0.075 C 
HETATM   18  C   UNL     1      28.131  40.883  45.065  1.00  0.00     0.016 C 
ENDBRANCH  16  17
ENDBRANCH  11  16
ENDBRANCH   7  10
ENDBRANCH   1   6
BRANCH   2  19
HETATM   19  C   UNL     1      27.382  45.065  52.895  1.00  0.00     0.732 A 
HETATM   20  N   UNL     1      28.240  44.115  53.093  1.00  0.00    -0.067 NA
HETATM   21  C   UNL     1      29.006  44.218  54.235  1.00  0.00     0.065 A 
HETATM   22  C   UNL     1      28.911  45.226  55.124  1.00  0.00     0.036 A 
HETATM   23  C   UNL     1      30.012  43.106  54.431  1.00  0.00     0.060 C 
HETATM   24  C   UNL     1      29.734  45.343  56.374  1.00  0.00     0.046 C 
HETATM   25  C   UNL     1      27.922  46.300  54.858  1.00  0.00     0.268 A 
HETATM   26  C   UNL     1      30.493  44.059  56.711  1.00  0.00     0.005 C 
HETATM   27  C   UNL     1      31.097  43.434  55.459  1.00  0.00     0.006 C 
HETATM   28  O   UNL     1      27.781  47.263  55.600  1.00  0.00    -0.267 OA
HETATM   29  N   UNL     1      27.191  46.133  53.725  1.00  0.00    -0.152 N 
HETATM   30  H   UNL     1      26.501  46.836  53.477  1.00  0.00     0.188 HD
ENDBRANCH   2  19
BRANCH   4  31
HETATM   31  C   UNL     1      24.162  46.964  49.823  1.00  0.00     0.105 A 
HETATM   32  O   UNL     1      24.114  48.296  50.131  1.00  0.00    -0.320 OA
HETATM   33  C   UNL     1      23.116  48.847  49.393  1.00  0.00     0.142 A 
HETATM   34  C   UNL     1      22.516  47.892  48.607  1.00  0.00     0.027 A 
HETATM   35  C   UNL     1      23.192  46.678  48.881  1.00  0.00     0.041 A 
ENDBRANCH   4  31
TORSDOF 6
ENDMDL
MODEL 5
REMARK VINA RESULT:      -9.0      2.701      7.714
REMARK  6 active torsions:
REMARK  status: ('A' for Active; 'I' for Inactive)
REMARK    1  A    between atoms: C_2  and  S_3 
REMARK    2  A    between atoms: S_3  and  C_4 
REMARK    3  A    between atoms: C_5  and  C_6 
REMARK       I    between atoms: C_6  and  N_7 
REMARK    4  A    between atoms: N_7  and  C_8 
REMARK    5  A    between atoms: N_9  and  C_10 
REMARK    6  A    between atoms: C_22  and  C_23 
ROOT
HETATM    1  C   UNL     1      26.863  42.167  51.663  1.00  0.00     0.152 A 
HETATM    2  N   UNL     1      26.184  42.521  50.505  1.00  0.00    -0.044 N 
HETATM    3  N   UNL     1      26.189  41.522  49.569  1.00  0.00    -0.148 NA
HETATM    4  C   UNL     1      26.896  40.543  50.146  1.00  0.00     0.115 A 
HETATM    5  C   UNL     1      27.305  40.880  51.452  1.00  0.00     0.087 A 
ENDROOT
BRANCH   1   6
HETATM    6  N   UNL     1      27.034  43.041  52.728  1.00  0.00    -0.307 N 
HETATM    7  C   UNL     1      28.199  43.752  52.932  1.00  0.00     0.258 C 
HETATM    8  O   UNL     1      29.257  43.625  52.325  1.00  0.00    -0.267 OA
HETATM    9  H   UNL     1      26.226  43.215  53.331  1.00  0.00     0.170 HD
BRANCH   7  10
HETATM   10  C   UNL     1      28.086  44.853  53.917  1.00  0.00     0.049 A 
HETATM   11  C   UNL     1      28.915  44.991  55.039  1.00  0.00     0.016 A 
HETATM   12  C   UNL     1      28.674  46.051  55.926  1.00  0.00     0.019 A 
HETATM   13  C   UNL     1      27.644  46.967  55.688  1.00  0.00     0.001 A 
HETATM   14  C   UNL     1      26.844  46.838  54.557  1.00  0.00     0.001 A 
HETATM   15  C   UNL     1      27.065  45.786  53.672  1.00  0.00     0.018 A 
BRANCH  11  16
HETATM   16  S   UNL     1      30.312  43.935  55.397  1.00  0.00    -0.129 SA
BRANCH  16  17
HETATM   17  C   UNL     1      30.792  44.662  57.001  1.00  0.00     0.075 C 
HETATM   18  C   UNL     1      31.879  43.825  57.651  1.00  0.00     0.016 C 
ENDBRANCH  16  17
ENDBRANCH  11  16
ENDBRANCH   7  10
ENDBRANCH   1   6
BRANCH   2  19
HETATM   19  C   UNL     1      25.572  43.751  50.192  1.00  0.00     0.732 A 
HETATM   20  N   UNL     1      26.163  44.898  50.320  1.00  0.00    -0.067 NA
HETATM   21  C   UNL     1      25.423  46.003  49.955  1.00  0.00     0.065 A 
HETATM   22  C   UNL     1      24.162  45.952  49.484  1.00  0.00     0.036 A 
HETATM   23  C   UNL     1      26.143  47.326  50.096  1.00  0.00     0.060 C 
HETATM   24  C   UNL     1      23.348  47.150  49.091  1.00  0.00     0.046 C 
HETATM   25  C   UNL     1      23.524  44.619  49.344  1.00  0.00     0.268 A 
HETATM   26  C   UNL     1      23.969  48.470  49.550  1.00  0.00     0.005 C 
HETATM   27  C   UNL     1      25.476  48.472  49.332  1.00  0.00     0.006 C 
HETATM   28  O   UNL     1      22.390  44.476  48.906  1.00  0.00    -0.267 OA
HETATM   29  N   UNL     1      24.298  43.573  49.732  1.00  0.00    -0.152 N 
HETATM   30  H   UNL     1      23.927  42.631  49.655  1.00  0.00     0.188 HD
ENDBRANCH   2  19
BRANCH   4  31
HETATM   31  C   UNL     1      27.228  39.266  49.451  1.00  0.00     0.105 A 
HETATM   32  O   UNL     1      26.498  38.113  49.561  1.00  0.00    -0.320 OA
HETATM   33  C   UNL     1      27.123  37.165  48.816  1.00  0.00     0.142 A 
HETATM   34  C   UNL     1      28.247  37.685  48.221  1.00  0.00     0.027 A 
HETATM   35  C   UNL     1      28.314  39.041  48.627  1.00  0.00     0.041 A 
ENDBRANCH   4  31
TORSDOF 6
ENDMDL
MODEL 6
REMARK VINA RESULT:      -8.9      2.610      7.424
REMARK  6 active torsions:
REMARK  status: ('A' for Active; 'I' for Inactive)
REMARK    1  A    between atoms: C_2  and  S_3 
REMARK    2  A    between atoms: S_3  and  C_4 
REMARK    3  A    between atoms: C_5  and  C_6 
REMARK       I    between atoms: C_6  and  N_7 
REMARK    4  A    between atoms: N_7  and  C_8 
REMARK    5  A    between atoms: N_9  and  C_10 
REMARK    6  A    between atoms: C_22  and  C_23 
ROOT
HETATM    1  C   UNL     1      25.211  44.453  50.414  1.00  0.00     0.152 A 
HETATM    2  N   UNL     1      24.315  44.800  49.412  1.00  0.00    -0.044 N 
HETATM    3  N   UNL     1      24.084  43.773  48.536  1.00  0.00    -0.148 NA
HETATM    4  C   UNL     1      24.862  42.783  48.990  1.00  0.00     0.115 A 
HETATM    5  C   UNL     1      25.551  43.142  50.166  1.00  0.00     0.087 A 
ENDROOT
BRANCH   1   6
HETATM    6  N   UNL     1      25.636  45.352  51.383  1.00  0.00    -0.307 N 
HETATM    7  C   UNL     1      25.390  45.173  52.729  1.00  0.00     0.258 C 
HETATM    8  O   UNL     1      24.674  44.319  53.241  1.00  0.00    -0.267 OA
HETATM    9  H   UNL     1      26.225  46.131  51.078  1.00  0.00     0.170 HD
BRANCH   7  10
HETATM   10  C   UNL     1      26.179  46.051  53.623  1.00  0.00     0.049 A 
HETATM   11  C   UNL     1      27.384  45.674  54.233  1.00  0.00     0.016 A 
HETATM   12  C   UNL     1      28.011  46.582  55.101  1.00  0.00     0.019 A 
HETATM   13  C   UNL     1      27.463  47.846  55.335  1.00  0.00     0.001 A 
HETATM   14  C   UNL     1      26.282  48.223  54.704  1.00  0.00     0.001 A 
HETATM   15  C   UNL     1      25.642  47.330  53.847  1.00  0.00     0.018 A 
BRANCH  11  16
HETATM   16  S   UNL     1      28.220  44.121  53.939  1.00  0.00    -0.129 SA
BRANCH  16  17
HETATM   17  C   UNL     1      29.599  44.334  55.116  1.00  0.00     0.075 C 
HETATM   18  C   UNL     1      30.498  43.112  55.096  1.00  0.00     0.016 C 
ENDBRANCH  16  17
ENDBRANCH  11  16
ENDBRANCH   7  10
ENDBRANCH   1   6
BRANCH   2  19
HETATM   19  C   UNL     1      23.695  46.045  49.186  1.00  0.00     0.732 A 
HETATM   20  N   UNL     1      24.338  47.170  49.154  1.00  0.00    -0.067 NA
HETATM   21  C   UNL     1      23.579  48.294  48.906  1.00  0.00     0.065 A 
HETATM   22  C   UNL     1      22.248  48.281  48.700  1.00  0.00     0.036 A 
HETATM   23  C   UNL     1      24.357  49.590  48.856  1.00  0.00     0.060 C 
HETATM   24  C   UNL     1      21.413  49.500  48.437  1.00  0.00     0.046 C 
HETATM   25  C   UNL     1      21.549  46.973  48.736  1.00  0.00     0.268 A 
HETATM   26  C   UNL     1      22.158  50.806  48.718  1.00  0.00     0.005 C 
HETATM   27  C   UNL     1      23.590  50.741  48.202  1.00  0.00     0.006 C 
HETATM   28  O   UNL     1      20.346  46.864  48.539  1.00  0.00    -0.267 OA
HETATM   29  N   UNL     1      22.349  45.906  48.996  1.00  0.00    -0.152 N 
HETATM   30  H   UNL     1      21.938  44.979  49.027  1.00  0.00     0.188 HD
ENDBRANCH   2  19
BRANCH   4  31
HETATM   31  C   UNL     1      24.993  41.470  48.293  1.00  0.00     0.105 A 
HETATM   32  O   UNL     1      24.153  41.033  47.305  1.00  0.00    -0.320 OA
HETATM   33  C   UNL     1      24.566  39.792  46.941  1.00  0.00     0.142 A 
HETATM   34  C   UNL     1      25.665  39.416  47.677  1.00  0.00     0.027 A 
HETATM   35  C   UNL     1      25.943  40.500  48.546  1.00  0.00     0.041 A 
ENDBRANCH   4  31
TORSDOF 6
ENDMDL
MODEL 7
REMARK VINA RESULT:      -8.8      2.529      3.431
REMARK  6 active torsions:
REMARK  status: ('A' for Active; 'I' for Inactive)
REMARK    1  A    between atoms: C_2  and  S_3 
REMARK    2  A    between atoms: S_3  and  C_4 
REMARK    3  A    between atoms: C_5  and  C_6 
REMARK       I    between atoms: C_6  and  N_7 
REMARK    4  A    between atoms: N_7  and  C_8 
REMARK    5  A    between atoms: N_9  and  C_10 
REMARK    6  A    between atoms: C_22  and  C_23 
ROOT
HETATM    1  C   UNL     1      24.638  45.458  49.601  1.00  0.00     0.152 A 
HETATM    2  N   UNL     1      25.150  46.098  50.722  1.00  0.00    -0.044 N 
HETATM    3  N   UNL     1      24.703  47.386  50.839  1.00  0.00    -0.148 NA
HETATM    4  C   UNL     1      23.920  47.554  49.766  1.00  0.00     0.115 A 
HETATM    5  C   UNL     1      23.821  46.382  48.990  1.00  0.00     0.087 A 
ENDROOT
BRANCH   1   6
HETATM    6  N   UNL     1      24.995  44.163  49.249  1.00  0.00    -0.307 N 
HETATM    7  C   UNL     1      24.266  43.056  49.633  1.00  0.00     0.258 C 
HETATM    8  O   UNL     1      23.326  43.028  50.419  1.00  0.00    -0.267 OA
HETATM    9  H   UNL     1      25.786  44.048  48.611  1.00  0.00     0.170 HD
BRANCH   7  10
HETATM   10  C   UNL     1      24.612  41.809  48.912  1.00  0.00     0.049 A 
HETATM   11  C   UNL     1      23.871  41.288  47.842  1.00  0.00     0.016 A 
HETATM   12  C   UNL     1      24.275  40.069  47.275  1.00  0.00     0.019 A 
HETATM   13  C   UNL     1      25.406  39.397  47.749  1.00  0.00     0.001 A 
HETATM   14  C   UNL     1      26.152  39.935  48.792  1.00  0.00     0.001 A 
HETATM   15  C   UNL     1      25.759  41.140  49.372  1.00  0.00     0.018 A 
BRANCH  11  16
HETATM   16  S   UNL     1      22.463  42.101  47.100  1.00  0.00    -0.129 SA
BRANCH  16  17
HETATM   17  C   UNL     1      23.365  43.303  46.064  1.00  0.00     0.075 C 
HETATM   18  C   UNL     1      22.391  44.262  45.405  1.00  0.00     0.016 C 
ENDBRANCH  16  17
ENDBRANCH  11  16
ENDBRANCH   7  10
ENDBRANCH   1   6
BRANCH   2  19
HETATM   19  C   UNL     1      26.070  45.602  51.667  1.00  0.00     0.732 A 
HETATM   20  N   UNL     1      26.886  44.624  51.428  1.00  0.00    -0.067 NA
HETATM   21  C   UNL     1      27.730  44.275  52.461  1.00  0.00     0.065 A 
HETATM   22  C   UNL     1      27.750  44.881  53.664  1.00  0.00     0.036 A 
HETATM   23  C   UNL     1      28.685  43.144  52.149  1.00  0.00     0.060 C 
HETATM   24  C   UNL     1      28.661  44.502  54.796  1.00  0.00     0.046 C 
HETATM   25  C   UNL     1      26.806  46.002  53.896  1.00  0.00     0.268 A 
HETATM   26  C   UNL     1      29.369  43.165  54.571  1.00  0.00     0.005 C 
HETATM   27  C   UNL     1      29.852  43.037  53.132  1.00  0.00     0.006 C 
HETATM   28  O   UNL     1      26.769  46.623  54.950  1.00  0.00    -0.267 OA
HETATM   29  N   UNL     1      25.994  46.289  52.846  1.00  0.00    -0.152 N 
HETATM   30  H   UNL     1      25.329  47.051  52.932  1.00  0.00     0.188 HD
ENDBRANCH   2  19
BRANCH   4  31
HETATM   31  C   UNL     1      23.267  48.854  49.436  1.00  0.00     0.105 A 
HETATM   32  O   UNL     1      23.917  50.057  49.389  1.00  0.00    -0.320 OA
HETATM   33  C   UNL     1      22.994  51.006  49.090  1.00  0.00     0.142 A 
HETATM   34  C   UNL     1      21.752  50.438  48.939  1.00  0.00     0.027 A 
HETATM   35  C   UNL     1      21.927  49.049  49.158  1.00  0.00     0.041 A 
ENDBRANCH   4  31
TORSDOF 6
ENDMDL
MODEL 8
REMARK VINA RESULT:      -8.7      3.325      8.467
REMARK  6 active torsions:
REMARK  status: ('A' for Active; 'I' for Inactive)
REMARK    1  A    between atoms: C_2  and  S_3 
REMARK    2  A    between atoms: S_3  and  C_4 
REMARK    3  A    between atoms: C_5  and  C_6 
REMARK       I    between atoms: C_6  and  N_7 
REMARK    4  A    between atoms: N_7  and  C_8 
REMARK    5  A    between atoms: N_9  and  C_10 
REMARK    6  A    between atoms: C_22  and  C_23 
ROOT
HETATM    1  C   UNL     1      27.082  42.488  52.139  1.00  0.00     0.152 A 
HETATM    2  N   UNL     1      28.186  41.679  51.909  1.00  0.00    -0.044 N 
HETATM    3  N   UNL     1      29.209  41.925  52.785  1.00  0.00    -0.148 NA
HETATM    4  C   UNL     1      28.740  42.914  53.556  1.00  0.00     0.115 A 
HETATM    5  C   UNL     1      27.420  43.273  53.218  1.00  0.00     0.087 A 
ENDROOT
BRANCH   1   6
HETATM    6  N   UNL     1      25.947  42.453  51.340  1.00  0.00    -0.307 N 
HETATM    7  C   UNL     1      25.783  43.266  50.237  1.00  0.00     0.258 C 
HETATM    8  O   UNL     1      26.505  44.196  49.891  1.00  0.00    -0.267 OA
HETATM    9  H   UNL     1      25.250  41.732  51.542  1.00  0.00     0.170 HD
BRANCH   7  10
HETATM   10  C   UNL     1      24.673  42.873  49.340  1.00  0.00     0.049 A 
HETATM   11  C   UNL     1      23.660  43.744  48.914  1.00  0.00     0.016 A 
HETATM   12  C   UNL     1      22.633  43.236  48.103  1.00  0.00     0.019 A 
HETATM   13  C   UNL     1      22.629  41.895  47.706  1.00  0.00     0.001 A 
HETATM   14  C   UNL     1      23.653  41.045  48.109  1.00  0.00     0.001 A 
HETATM   15  C   UNL     1      24.674  41.531  48.922  1.00  0.00     0.018 A 
BRANCH  11  16
HETATM   16  S   UNL     1      23.610  45.491  49.288  1.00  0.00    -0.129 SA
BRANCH  16  17
HETATM   17  C   UNL     1      21.968  45.867  48.584  1.00  0.00     0.075 C 
HETATM   18  C   UNL     1      22.074  47.008  47.589  1.00  0.00     0.016 C 
ENDBRANCH  16  17
ENDBRANCH  11  16
ENDBRANCH   7  10
ENDBRANCH   1   6
BRANCH   2  19
HETATM   19  C   UNL     1      28.371  40.721  50.891  1.00  0.00     0.732 A 
HETATM   20  N   UNL     1      27.885  40.843  49.696  1.00  0.00    -0.067 NA
HETATM   21  C   UNL     1      28.174  39.820  48.818  1.00  0.00     0.065 A 
HETATM   22  C   UNL     1      28.913  38.738  49.129  1.00  0.00     0.036 A 
HETATM   23  C   UNL     1      27.610  39.997  47.426  1.00  0.00     0.060 C 
HETATM   24  C   UNL     1      29.226  37.616  48.182  1.00  0.00     0.046 C 
HETATM   25  C   UNL     1      29.459  38.639  50.505  1.00  0.00     0.268 A 
HETATM   26  C   UNL     1      28.382  37.658  46.907  1.00  0.00     0.005 C 
HETATM   27  C   UNL     1      28.254  39.082  46.382  1.00  0.00     0.006 C 
HETATM   28  O   UNL     1      30.158  37.702  50.870  1.00  0.00    -0.267 OA
HETATM   29  N   UNL     1      29.129  39.671  51.325  1.00  0.00    -0.152 N 
HETATM   30  H   UNL     1      29.477  39.672  52.279  1.00  0.00     0.188 HD
ENDBRANCH   2  19
BRANCH   4  31
HETATM   31  C   UNL     1      29.556  43.566  54.621  1.00  0.00     0.105 A 
HETATM   32  O   UNL     1      30.676  43.016  55.184  1.00  0.00    -0.320 OA
HETATM   33  C   UNL     1      31.121  43.882  56.129  1.00  0.00     0.142 A 
HETATM   34  C   UNL     1      30.310  44.990  56.188  1.00  0.00     0.027 A 
HETATM   35  C   UNL     1      29.302  44.789  55.213  1.00  0.00     0.041 A 
ENDBRANCH   4  31
TORSDOF 6
ENDMDL
MODEL 9
REMARK VINA RESULT:      -8.7      2.979      7.243
REMARK  6 active torsions:
REMARK  status: ('A' for Active; 'I' for Inactive)
REMARK    1  A    between atoms: C_2  and  S_3 
REMARK    2  A    between atoms: S_3  and  C_4 
REMARK    3  A    between atoms: C_5  and  C_6 
REMARK       I    between atoms: C_6  and  N_7 
REMARK    4  A    between atoms: N_7  and  C_8 
REMARK    5  A    between atoms: N_9  and  C_10 
REMARK    6  A    between atoms: C_22  and  C_23 
ROOT
HETATM    1  C   UNL     1      25.679  44.221  50.010  1.00  0.00     0.152 A 
HETATM    2  N   UNL     1      25.963  45.538  50.347  1.00  0.00    -0.044 N 
HETATM    3  N   UNL     1      26.897  45.636  51.343  1.00  0.00    -0.148 NA
HETATM    4  C   UNL     1      27.182  44.362  51.642  1.00  0.00     0.115 A 
HETATM    5  C   UNL     1      26.481  43.453  50.824  1.00  0.00     0.087 A 
ENDROOT
BRANCH   1   6
HETATM    6  N   UNL     1      24.723  43.879  49.064  1.00  0.00    -0.307 N 
HETATM    7  C   UNL     1      23.453  43.459  49.402  1.00  0.00     0.258 C 
HETATM    8  O   UNL     1      23.037  43.196  50.525  1.00  0.00    -0.267 OA
HETATM    9  H   UNL     1      24.959  44.029  48.079  1.00  0.00     0.170 HD
BRANCH   7  10
HETATM   10  C   UNL     1      22.489  43.443  48.278  1.00  0.00     0.049 A 
HETATM   11  C   UNL     1      22.334  42.369  47.389  1.00  0.00     0.016 A 
HETATM   12  C   UNL     1      21.419  42.498  46.333  1.00  0.00     0.019 A 
HETATM   13  C   UNL     1      20.658  43.661  46.179  1.00  0.00     0.001 A 
HETATM   14  C   UNL     1      20.797  44.710  47.082  1.00  0.00     0.001 A 
HETATM   15  C   UNL     1      21.708  44.602  48.130  1.00  0.00     0.018 A 
BRANCH  11  16
HETATM   16  S   UNL     1      23.187  40.806  47.539  1.00  0.00    -0.129 SA
BRANCH  16  17
HETATM   17  C   UNL     1      24.674  41.220  46.566  1.00  0.00     0.075 C 
HETATM   18  C   UNL     1      25.927  40.898  47.361  1.00  0.00     0.016 C 
ENDBRANCH  16  17
ENDBRANCH  11  16
ENDBRANCH   7  10
ENDBRANCH   1   6
BRANCH   2  19
HETATM   19  C   UNL     1      25.382  46.716  49.834  1.00  0.00     0.732 A 
HETATM   20  N   UNL     1      24.105  46.883  49.696  1.00  0.00    -0.067 NA
HETATM   21  C   UNL     1      23.705  48.103  49.192  1.00  0.00     0.065 A 
HETATM   22  C   UNL     1      24.548  49.097  48.850  1.00  0.00     0.036 A 
HETATM   23  C   UNL     1      22.209  48.278  49.058  1.00  0.00     0.060 C 
HETATM   24  C   UNL     1      24.123  50.424  48.294  1.00  0.00     0.046 C 
HETATM   25  C   UNL     1      26.003  48.870  49.032  1.00  0.00     0.268 A 
HETATM   26  C   UNL     1      22.655  50.449  47.866  1.00  0.00     0.005 C 
HETATM   27  C   UNL     1      21.774  49.734  48.883  1.00  0.00     0.006 C 
HETATM   28  O   UNL     1      26.840  49.723  48.768  1.00  0.00    -0.267 OA
HETATM   29  N   UNL     1      26.333  47.645  49.519  1.00  0.00    -0.152 N 
HETATM   30  H   UNL     1      27.312  47.425  49.676  1.00  0.00     0.188 HD
ENDBRANCH   2  19
BRANCH   4  31
HETATM   31  C   UNL     1      28.112  43.977  52.742  1.00  0.00     0.105 A 
HETATM   32  O   UNL     1      28.128  44.559  53.981  1.00  0.00    -0.320 OA
HETATM   33  C   UNL     1      29.123  43.972  54.693  1.00  0.00     0.142 A 
HETATM   34  C   UNL     1      29.755  43.013  53.936  1.00  0.00     0.027 A 
HETATM   35  C   UNL     1      29.101  43.014  52.679  1.00  0.00     0.041 A 
ENDBRANCH   4  31
TORSDOF 6
ENDMDL
MODEL 10
REMARK VINA RESULT:      -8.5      2.624      3.866
REMARK  6 active torsions:
REMARK  status: ('A' for Active; 'I' for Inactive)
REMARK    1  A    between atoms: C_2  and  S_3 
REMARK    2  A    between atoms: S_3  and  C_4 
REMARK    3  A    between atoms: C_5  and  C_6 
REMARK       I    between atoms: C_6  and  N_7 
REMARK    4  A    between atoms: N_7  and  C_8 
REMARK    5  A    between atoms: N_9  and  C_10 
REMARK    6  A    between atoms: C_22  and  C_23 
ROOT
HETATM    1  C   UNL     1      24.196  45.311  49.142  1.00  0.00     0.152 A 
HETATM    2  N   UNL     1      24.674  45.771  50.361  1.00  0.00    -0.044 N 
HETATM    3  N   UNL     1      24.348  47.080  50.592  1.00  0.00    -0.148 NA
HETATM    4  C   UNL     1      23.676  47.443  49.492  1.00  0.00     0.115 A 
HETATM    5  C   UNL     1      23.527  46.377  48.583  1.00  0.00     0.087 A 
ENDROOT
BRANCH   1   6
HETATM    6  N   UNL     1      24.451  44.030  48.672  1.00  0.00    -0.307 N 
HETATM    7  C   UNL     1      23.721  42.928  49.069  1.00  0.00     0.258 C 
HETATM    8  O   UNL     1      22.877  42.883  49.957  1.00  0.00    -0.267 OA
HETATM    9  H   UNL     1      25.159  43.928  47.940  1.00  0.00     0.170 HD
BRANCH   7  10
HETATM   10  C   UNL     1      23.926  41.719  48.238  1.00  0.00     0.049 A 
HETATM   11  C   UNL     1      25.029  40.861  48.357  1.00  0.00     0.016 A 
HETATM   12  C   UNL     1      25.133  39.775  47.474  1.00  0.00     0.019 A 
HETATM   13  C   UNL     1      24.149  39.535  46.511  1.00  0.00     0.001 A 
HETATM   14  C   UNL     1      23.044  40.376  46.418  1.00  0.00     0.001 A 
HETATM   15  C   UNL     1      22.931  41.464  47.280  1.00  0.00     0.018 A 
BRANCH  11  16
HETATM   16  S   UNL     1      26.299  41.019  49.605  1.00  0.00    -0.129 SA
BRANCH  16  17
HETATM   17  C   UNL     1      27.172  39.446  49.296  1.00  0.00     0.075 C 
HETATM   18  C   UNL     1      28.637  39.710  48.998  1.00  0.00     0.016 C 
ENDBRANCH  16  17
ENDBRANCH  11  16
ENDBRANCH   7  10
ENDBRANCH   1   6
BRANCH   2  19
HETATM   19  C   UNL     1      25.460  45.083  51.308  1.00  0.00     0.732 A 
HETATM   20  N   UNL     1      26.659  44.656  51.067  1.00  0.00    -0.067 NA
HETATM   21  C   UNL     1      27.294  44.015  52.110  1.00  0.00     0.065 A 
HETATM   22  C   UNL     1      26.748  43.820  53.326  1.00  0.00     0.036 A 
HETATM   23  C   UNL     1      28.699  43.544  51.808  1.00  0.00     0.060 C 
HETATM   24  C   UNL     1      27.428  43.117  54.465  1.00  0.00     0.046 C 
HETATM   25  C   UNL     1      25.376  44.331  53.565  1.00  0.00     0.268 A 
HETATM   26  C   UNL     1      28.693  42.372  54.036  1.00  0.00     0.005 C 
HETATM   27  C   UNL     1      29.514  43.203  53.058  1.00  0.00     0.006 C 
HETATM   28  O   UNL     1      24.810  44.217  54.645  1.00  0.00    -0.267 OA
HETATM   29  N   UNL     1      24.801  44.941  52.496  1.00  0.00    -0.152 N 
HETATM   30  H   UNL     1      23.865  45.322  52.592  1.00  0.00     0.188 HD
ENDBRANCH   2  19
BRANCH   4  31
HETATM   31  C   UNL     1      23.183  48.833  49.266  1.00  0.00     0.105 A 
HETATM   32  O   UNL     1      23.987  49.938  49.198  1.00  0.00    -0.320 OA
HETATM   33  C   UNL     1      23.182  51.015  49.017  1.00  0.00     0.142 A 
HETATM   34  C   UNL     1      21.864  50.627  48.962  1.00  0.00     0.027 A 
HETATM   35  C   UNL     1      21.864  49.219  49.119  1.00  0.00     0.041 A 
ENDBRANCH   4  31
TORSDOF 6
ENDMDL
