MODEL 1
REMARK VINA RESULT:      -8.7      0.000      0.000
REMARK  3 active torsions:
REMARK  status: ('A' for Active; 'I' for Inactive)
REMARK    1  A    between atoms: C_5  and  N_6 
REMARK       I    between atoms: N_6  and  C_7 
REMARK    2  A    between atoms: C_7  and  C_8 
REMARK    3  A    between atoms: C_8  and  C_9 
ROOT
HETATM    1  C   UNL     1      25.690  45.628  51.041  1.00  0.00     0.286 C 
HETATM    2  N   UNL     1      26.173  46.889  50.310  1.00  0.00    -0.056 N 
HETATM    3  H   UNL     1      26.831  47.400  50.920  1.00  0.00     0.278 HD
HETATM    4  H   UNL     1      26.704  46.604  49.477  1.00  0.00     0.278 HD
HETATM    5  C   UNL     1      25.087  47.857  49.910  1.00  0.00     0.209 C 
HETATM    6  C   UNL     1      23.957  47.107  49.183  1.00  0.00     0.115 C 
HETATM    7  N   UNL     1      23.459  45.992  49.968  1.00  0.00    -0.353 N 
HETATM    8  C   UNL     1      24.247  45.181  50.735  1.00  0.00     0.249 C 
HETATM    9  O   UNL     1      23.779  44.157  51.228  1.00  0.00    -0.271 OA
HETATM   10  C   UNL     1      25.673  48.949  49.020  1.00  0.00     0.035 C 
HETATM   11  C   UNL     1      24.580  49.943  48.625  1.00  0.00     0.002 C 
HETATM   12  C   UNL     1      23.363  49.256  48.000  1.00  0.00     0.002 C 
HETATM   13  C   UNL     1      22.837  48.097  48.847  1.00  0.00     0.027 C 
HETATM   14  H   UNL     1      22.536  45.610  49.765  1.00  0.00     0.163 HD
ENDROOT
BRANCH   1  15
HETATM   15  C   UNL     1      25.901  45.722  52.557  1.00  0.00     0.146 C 
BRANCH  15  16
HETATM   16  C   UNL     1      27.101  44.894  52.936  1.00  0.00     0.224 C 
HETATM   17  N   UNL     1      27.368  44.897  54.287  1.00  0.00    -0.327 N 
HETATM   18  H   UNL     1      26.629  45.194  54.920  1.00  0.00     0.169 HD
HETATM   19  O   UNL     1      27.810  44.463  52.030  1.00  0.00    -0.273 OA
BRANCH  17  20
HETATM   20  C   UNL     1      28.602  44.615  54.912  1.00  0.00     0.034 A 
HETATM   21  C   UNL     1      29.242  45.479  55.803  1.00  0.00     0.030 A 
HETATM   22  C   UNL     1      30.414  45.081  56.457  1.00  0.00     0.009 A 
HETATM   23  C   UNL     1      30.974  43.823  56.218  1.00  0.00    -0.062 A 
HETATM   24  C   UNL     1      32.203  43.380  56.957  1.00  0.00     0.048 C 
HETATM   25  C   UNL     1      30.340  42.963  55.317  1.00  0.00     0.009 A 
HETATM   26  C   UNL     1      29.167  43.359  54.666  1.00  0.00     0.030 A 
ENDBRANCH  17  20
ENDBRANCH  15  16
ENDBRANCH   1  15
TORSDOF 3
ENDMDL
MODEL 2
REMARK VINA RESULT:      -8.7      2.746      4.592
REMARK  3 active torsions:
REMARK  status: ('A' for Active; 'I' for Inactive)
REMARK    1  A    between atoms: C_5  and  N_6 
REMARK       I    between atoms: N_6  and  C_7 
REMARK    2  A    between atoms: C_7  and  C_8 
REMARK    3  A    between atoms: C_8  and  C_9 
ROOT
HETATM    1  C   UNL     1      25.031  44.300  51.677  1.00  0.00     0.286 C 
HETATM    2  N   UNL     1      25.784  43.040  52.126  1.00  0.00    -0.056 N 
HETATM    3  H   UNL     1      26.304  43.249  52.993  1.00  0.00     0.278 HD
HETATM    4  H   UNL     1      25.097  42.312  52.362  1.00  0.00     0.278 HD
HETATM    5  C   UNL     1      26.777  42.494  51.129  1.00  0.00     0.209 C 
HETATM    6  C   UNL     1      26.116  42.367  49.745  1.00  0.00     0.115 C 
HETATM    7  N   UNL     1      25.517  43.619  49.318  1.00  0.00    -0.353 N 
HETATM    8  C   UNL     1      24.871  44.485  50.155  1.00  0.00     0.249 C 
HETATM    9  O   UNL     1      24.242  45.433  49.690  1.00  0.00    -0.271 OA
HETATM   10  C   UNL     1      27.296  41.141  51.607  1.00  0.00     0.035 C 
HETATM   11  C   UNL     1      28.315  40.589  50.610  1.00  0.00     0.002 C 
HETATM   12  C   UNL     1      27.768  40.544  49.181  1.00  0.00     0.002 C 
HETATM   13  C   UNL     1      27.159  41.875  48.737  1.00  0.00     0.027 C 
HETATM   14  H   UNL     1      25.325  43.769  48.329  1.00  0.00     0.163 HD
ENDROOT
BRANCH   1  15
HETATM   15  C   UNL     1      25.612  45.574  52.303  1.00  0.00     0.146 C 
BRANCH  15  16
HETATM   16  C   UNL     1      26.292  45.216  53.598  1.00  0.00     0.224 C 
HETATM   17  N   UNL     1      27.650  45.439  53.587  1.00  0.00    -0.327 N 
HETATM   18  H   UNL     1      28.029  46.052  52.869  1.00  0.00     0.169 HD
HETATM   19  O   UNL     1      25.635  44.611  54.442  1.00  0.00    -0.273 OA
BRANCH  17  20
HETATM   20  C   UNL     1      28.619  44.835  54.417  1.00  0.00     0.034 A 
HETATM   21  C   UNL     1      29.150  43.562  54.201  1.00  0.00     0.030 A 
HETATM   22  C   UNL     1      30.182  43.077  55.014  1.00  0.00     0.009 A 
HETATM   23  C   UNL     1      30.685  43.848  56.066  1.00  0.00    -0.062 A 
HETATM   24  C   UNL     1      31.824  43.345  56.905  1.00  0.00     0.048 C 
HETATM   25  C   UNL     1      30.146  45.118  56.290  1.00  0.00     0.009 A 
HETATM   26  C   UNL     1      29.117  45.603  55.476  1.00  0.00     0.030 A 
ENDBRANCH  17  20
ENDBRANCH  15  16
ENDBRANCH   1  15
TORSDOF 3
ENDMDL
MODEL 3
REMARK VINA RESULT:      -8.6      1.481      8.229
REMARK  3 active torsions:
REMARK  status: ('A' for Active; 'I' for Inactive)
REMARK    1  A    between atoms: C_5  and  N_6 
REMARK       I    between atoms: N_6  and  C_7 
REMARK    2  A    between atoms: C_7  and  C_8 
REMARK    3  A    between atoms: C_8  and  C_9 
ROOT
HETATM    1  C   UNL     1      27.515  45.422  53.642  1.00  0.00     0.286 C 
HETATM    2  N   UNL     1      28.698  44.450  53.766  1.00  0.00    -0.056 N 
HETATM    3  H   UNL     1      28.410  43.524  53.412  1.00  0.00     0.278 HD
HETATM    4  H   UNL     1      29.457  44.777  53.154  1.00  0.00     0.278 HD
HETATM    5  C   UNL     1      29.226  44.253  55.165  1.00  0.00     0.209 C 
HETATM    6  C   UNL     1      29.467  45.619  55.833  1.00  0.00     0.115 C 
HETATM    7  N   UNL     1      28.281  46.456  55.789  1.00  0.00    -0.353 N 
HETATM    8  C   UNL     1      27.419  46.510  54.730  1.00  0.00     0.249 C 
HETATM    9  O   UNL     1      26.540  47.368  54.697  1.00  0.00    -0.271 OA
HETATM   10  C   UNL     1      30.515  43.438  55.119  1.00  0.00     0.035 C 
HETATM   11  C   UNL     1      31.047  43.221  56.537  1.00  0.00     0.002 C 
HETATM   12  C   UNL     1      31.201  44.532  57.311  1.00  0.00     0.002 C 
HETATM   13  C   UNL     1      29.938  45.394  57.273  1.00  0.00     0.027 C 
HETATM   14  H   UNL     1      28.194  47.234  56.441  1.00  0.00     0.163 HD
ENDROOT
BRANCH   1  15
HETATM   15  C   UNL     1      26.175  44.687  53.513  1.00  0.00     0.146 C 
BRANCH  15  16
HETATM   16  C   UNL     1      25.486  45.145  52.255  1.00  0.00     0.224 C 
HETATM   17  N   UNL     1      26.194  46.095  51.553  1.00  0.00    -0.327 N 
HETATM   18  H   UNL     1      27.185  46.202  51.758  1.00  0.00     0.169 HD
HETATM   19  O   UNL     1      24.325  44.786  52.074  1.00  0.00    -0.273 OA
BRANCH  17  20
HETATM   20  C   UNL     1      25.682  47.024  50.622  1.00  0.00     0.034 A 
HETATM   21  C   UNL     1      24.325  47.167  50.325  1.00  0.00     0.030 A 
HETATM   22  C   UNL     1      23.891  48.181  49.464  1.00  0.00     0.009 A 
HETATM   23  C   UNL     1      24.807  49.056  48.871  1.00  0.00    -0.062 A 
HETATM   24  C   UNL     1      24.333  50.173  47.987  1.00  0.00     0.048 C 
HETATM   25  C   UNL     1      26.166  48.906  49.159  1.00  0.00     0.009 A 
HETATM   26  C   UNL     1      26.599  47.894  50.022  1.00  0.00     0.030 A 
ENDBRANCH  17  20
ENDBRANCH  15  16
ENDBRANCH   1  15
TORSDOF 3
ENDMDL
MODEL 4
REMARK VINA RESULT:      -8.5      4.114      7.628
REMARK  3 active torsions:
REMARK  status: ('A' for Active; 'I' for Inactive)
REMARK    1  A    between atoms: C_5  and  N_6 
REMARK       I    between atoms: N_6  and  C_7 
REMARK    2  A    between atoms: C_7  and  C_8 
REMARK    3  A    between atoms: C_8  and  C_9 
ROOT
HETATM    1  C   UNL     1      27.963  45.481  54.176  1.00  0.00     0.286 C 
HETATM    2  N   UNL     1      29.199  44.581  54.312  1.00  0.00    -0.056 N 
HETATM    3  H   UNL     1      28.999  43.667  53.877  1.00  0.00     0.278 HD
HETATM    4  H   UNL     1      29.972  45.000  53.778  1.00  0.00     0.278 HD
HETATM    5  C   UNL     1      29.649  44.315  55.727  1.00  0.00     0.209 C 
HETATM    6  C   UNL     1      29.752  45.640  56.504  1.00  0.00     0.115 C 
HETATM    7  N   UNL     1      28.517  46.400  56.437  1.00  0.00    -0.353 N 
HETATM    8  C   UNL     1      27.723  46.477  55.328  1.00  0.00     0.249 C 
HETATM    9  O   UNL     1      26.790  47.277  55.295  1.00  0.00    -0.271 OA
HETATM   10  C   UNL     1      30.992  43.589  55.714  1.00  0.00     0.035 C 
HETATM   11  C   UNL     1      31.446  43.302  57.146  1.00  0.00     0.002 C 
HETATM   12  C   UNL     1      31.459  44.560  58.018  1.00  0.00     0.002 C 
HETATM   13  C   UNL     1      30.145  45.340  57.954  1.00  0.00     0.027 C 
HETATM   14  H   UNL     1      28.335  47.120  57.134  1.00  0.00     0.163 HD
ENDROOT
BRANCH   1  15
HETATM   15  C   UNL     1      26.687  44.674  53.905  1.00  0.00     0.146 C 
BRANCH  15  16
HETATM   16  C   UNL     1      26.876  43.872  52.644  1.00  0.00     0.224 C 
HETATM   17  N   UNL     1      26.731  42.516  52.827  1.00  0.00    -0.327 N 
HETATM   18  H   UNL     1      26.258  42.193  53.669  1.00  0.00     0.169 HD
HETATM   19  O   UNL     1      27.305  44.456  51.652  1.00  0.00    -0.273 OA
BRANCH  17  20
HETATM   20  C   UNL     1      27.250  41.485  52.013  1.00  0.00     0.034 A 
HETATM   21  C   UNL     1      26.630  41.020  50.852  1.00  0.00     0.030 A 
HETATM   22  C   UNL     1      27.261  40.065  50.046  1.00  0.00     0.009 A 
HETATM   23  C   UNL     1      28.511  39.547  50.397  1.00  0.00    -0.062 A 
HETATM   24  C   UNL     1      29.207  38.560  49.505  1.00  0.00     0.048 C 
HETATM   25  C   UNL     1      29.126  40.004  51.565  1.00  0.00     0.009 A 
HETATM   26  C   UNL     1      28.497  40.961  52.369  1.00  0.00     0.030 A 
ENDBRANCH  17  20
ENDBRANCH  15  16
ENDBRANCH   1  15
TORSDOF 3
ENDMDL
MODEL 5
REMARK VINA RESULT:      -8.4      3.421      6.065
REMARK  3 active torsions:
REMARK  status: ('A' for Active; 'I' for Inactive)
REMARK    1  A    between atoms: C_5  and  N_6 
REMARK       I    between atoms: N_6  and  C_7 
REMARK    2  A    between atoms: C_7  and  C_8 
REMARK    3  A    between atoms: C_8  and  C_9 
ROOT
HETATM    1  C   UNL     1      22.395  48.769  48.918  1.00  0.00     0.286 C 
HETATM    2  N   UNL     1      21.155  48.883  49.816  1.00  0.00    -0.056 N 
HETATM    3  H   UNL     1      20.718  47.952  49.907  1.00  0.00     0.278 HD
HETATM    4  H   UNL     1      21.456  49.161  50.760  1.00  0.00     0.278 HD
HETATM    5  C   UNL     1      20.090  49.833  49.326  1.00  0.00     0.209 C 
HETATM    6  C   UNL     1      20.722  51.187  48.958  1.00  0.00     0.115 C 
HETATM    7  N   UNL     1      21.817  51.032  48.018  1.00  0.00    -0.353 N 
HETATM    8  C   UNL     1      22.714  50.001  48.047  1.00  0.00     0.249 C 
HETATM    9  O   UNL     1      23.711  50.033  47.330  1.00  0.00    -0.271 OA
HETATM   10  C   UNL     1      19.021  50.008  50.401  1.00  0.00     0.035 C 
HETATM   11  C   UNL     1      17.929  50.956  49.903  1.00  0.00     0.002 C 
HETATM   12  C   UNL     1      18.495  52.289  49.406  1.00  0.00     0.002 C 
HETATM   13  C   UNL     1      19.635  52.111  48.401  1.00  0.00     0.027 C 
HETATM   14  H   UNL     1      22.117  51.832  47.463  1.00  0.00     0.163 HD
ENDROOT
BRANCH   1  15
HETATM   15  C   UNL     1      22.366  47.505  48.051  1.00  0.00     0.146 C 
BRANCH  15  16
HETATM   16  C   UNL     1      22.952  46.361  48.835  1.00  0.00     0.224 C 
HETATM   17  N   UNL     1      23.921  46.748  49.733  1.00  0.00    -0.327 N 
HETATM   18  H   UNL     1      23.967  47.730  49.995  1.00  0.00     0.169 HD
HETATM   19  O   UNL     1      22.661  45.219  48.487  1.00  0.00    -0.273 OA
BRANCH  17  20
HETATM   20  C   UNL     1      24.943  45.943  50.283  1.00  0.00     0.034 A 
HETATM   21  C   UNL     1      25.932  45.311  49.528  1.00  0.00     0.030 A 
HETATM   22  C   UNL     1      26.969  44.613  50.159  1.00  0.00     0.009 A 
HETATM   23  C   UNL     1      27.023  44.521  51.553  1.00  0.00    -0.062 A 
HETATM   24  C   UNL     1      28.162  43.814  52.228  1.00  0.00     0.048 C 
HETATM   25  C   UNL     1      26.026  45.144  52.309  1.00  0.00     0.009 A 
HETATM   26  C   UNL     1      24.993  45.844  51.678  1.00  0.00     0.030 A 
ENDBRANCH  17  20
ENDBRANCH  15  16
ENDBRANCH   1  15
TORSDOF 3
ENDMDL
MODEL 6
REMARK VINA RESULT:      -8.1      2.028      3.220
REMARK  3 active torsions:
REMARK  status: ('A' for Active; 'I' for Inactive)
REMARK    1  A    between atoms: C_5  and  N_6 
REMARK       I    between atoms: N_6  and  C_7 
REMARK    2  A    between atoms: C_7  and  C_8 
REMARK    3  A    between atoms: C_8  and  C_9 
ROOT
HETATM    1  C   UNL     1      25.097  45.079  51.400  1.00  0.00     0.286 C 
HETATM    2  N   UNL     1      24.461  43.781  50.883  1.00  0.00    -0.056 N 
HETATM    3  H   UNL     1      25.163  43.025  50.918  1.00  0.00     0.278 HD
HETATM    4  H   UNL     1      23.702  43.509  51.521  1.00  0.00     0.278 HD
HETATM    5  C   UNL     1      23.935  43.840  49.470  1.00  0.00     0.209 C 
HETATM    6  C   UNL     1      23.048  45.086  49.291  1.00  0.00     0.115 C 
HETATM    7  N   UNL     1      23.739  46.299  49.688  1.00  0.00    -0.353 N 
HETATM    8  C   UNL     1      24.590  46.384  50.754  1.00  0.00     0.249 C 
HETATM    9  O   UNL     1      24.997  47.481  51.129  1.00  0.00    -0.271 OA
HETATM   10  C   UNL     1      23.152  42.568  49.157  1.00  0.00     0.035 C 
HETATM   11  C   UNL     1      22.631  42.615  47.720  1.00  0.00     0.002 C 
HETATM   12  C   UNL     1      21.834  43.889  47.429  1.00  0.00     0.002 C 
HETATM   13  C   UNL     1      22.581  45.161  47.834  1.00  0.00     0.027 C 
HETATM   14  H   UNL     1      23.406  47.199  49.345  1.00  0.00     0.163 HD
ENDROOT
BRANCH   1  15
HETATM   15  C   UNL     1      26.629  45.030  51.354  1.00  0.00     0.146 C 
BRANCH  15  16
HETATM   16  C   UNL     1      27.129  44.256  52.546  1.00  0.00     0.224 C 
HETATM   17  N   UNL     1      27.865  45.015  53.427  1.00  0.00    -0.327 N 
HETATM   18  H   UNL     1      27.783  46.028  53.371  1.00  0.00     0.169 HD
HETATM   19  O   UNL     1      27.000  43.034  52.530  1.00  0.00    -0.273 OA
BRANCH  17  20
HETATM   20  C   UNL     1      28.812  44.552  54.366  1.00  0.00     0.034 A 
HETATM   21  C   UNL     1      29.473  43.326  54.270  1.00  0.00     0.030 A 
HETATM   22  C   UNL     1      30.472  42.986  55.189  1.00  0.00     0.009 A 
HETATM   23  C   UNL     1      30.813  43.856  56.229  1.00  0.00    -0.062 A 
HETATM   24  C   UNL     1      31.919  43.509  57.183  1.00  0.00     0.048 C 
HETATM   25  C   UNL     1      30.144  45.078  56.332  1.00  0.00     0.009 A 
HETATM   26  C   UNL     1      29.147  45.419  55.411  1.00  0.00     0.030 A 
ENDBRANCH  17  20
ENDBRANCH  15  16
ENDBRANCH   1  15
TORSDOF 3
ENDMDL
MODEL 7
REMARK VINA RESULT:      -8.1      4.882      6.496
REMARK  3 active torsions:
REMARK  status: ('A' for Active; 'I' for Inactive)
REMARK    1  A    between atoms: C_5  and  N_6 
REMARK       I    between atoms: N_6  and  C_7 
REMARK    2  A    between atoms: C_7  and  C_8 
REMARK    3  A    between atoms: C_8  and  C_9 
ROOT
HETATM    1  C   UNL     1      27.155  41.252  50.861  1.00  0.00     0.286 C 
HETATM    2  N   UNL     1      26.923  39.735  50.901  1.00  0.00    -0.056 N 
HETATM    3  H   UNL     1      27.564  39.314  51.593  1.00  0.00     0.278 HD
HETATM    4  H   UNL     1      25.968  39.556  51.238  1.00  0.00     0.278 HD
HETATM    5  C   UNL     1      27.139  39.015  49.593  1.00  0.00     0.209 C 
HETATM    6  C   UNL     1      26.377  39.735  48.465  1.00  0.00     0.115 C 
HETATM    7  N   UNL     1      26.720  41.144  48.399  1.00  0.00    -0.353 N 
HETATM    8  C   UNL     1      26.948  41.930  49.493  1.00  0.00     0.249 C 
HETATM    9  O   UNL     1      27.060  43.147  49.361  1.00  0.00    -0.271 OA
HETATM   10  C   UNL     1      26.678  37.566  49.719  1.00  0.00     0.035 C 
HETATM   11  C   UNL     1      26.910  36.826  48.401  1.00  0.00     0.002 C 
HETATM   12  C   UNL     1      26.280  37.548  47.207  1.00  0.00     0.002 C 
HETATM   13  C   UNL     1      26.666  39.027  47.138  1.00  0.00     0.027 C 
HETATM   14  H   UNL     1      26.542  41.661  47.540  1.00  0.00     0.163 HD
ENDROOT
BRANCH   1  15
HETATM   15  C   UNL     1      28.520  41.643  51.440  1.00  0.00     0.146 C 
BRANCH  15  16
HETATM   16  C   UNL     1      28.324  42.182  52.833  1.00  0.00     0.224 C 
HETATM   17  N   UNL     1      28.989  43.365  53.064  1.00  0.00    -0.327 N 
HETATM   18  H   UNL     1      29.304  43.903  52.260  1.00  0.00     0.169 HD
HETATM   19  O   UNL     1      27.768  41.457  53.655  1.00  0.00    -0.273 OA
BRANCH  17  20
HETATM   20  C   UNL     1      29.375  43.894  54.315  1.00  0.00     0.034 A 
HETATM   21  C   UNL     1      30.470  43.438  55.052  1.00  0.00     0.030 A 
HETATM   22  C   UNL     1      30.846  44.085  56.236  1.00  0.00     0.009 A 
HETATM   23  C   UNL     1      30.124  45.184  56.710  1.00  0.00    -0.062 A 
HETATM   24  C   UNL     1      30.559  45.904  57.953  1.00  0.00     0.048 C 
HETATM   25  C   UNL     1      29.021  45.633  55.978  1.00  0.00     0.009 A 
HETATM   26  C   UNL     1      28.648  44.989  54.794  1.00  0.00     0.030 A 
ENDBRANCH  17  20
ENDBRANCH  15  16
ENDBRANCH   1  15
TORSDOF 3
ENDMDL
MODEL 8
REMARK VINA RESULT:      -8.1      2.654      8.107
REMARK  3 active torsions:
REMARK  status: ('A' for Active; 'I' for Inactive)
REMARK    1  A    between atoms: C_5  and  N_6 
REMARK       I    between atoms: N_6  and  C_7 
REMARK    2  A    between atoms: C_7  and  C_8 
REMARK    3  A    between atoms: C_8  and  C_9 
ROOT
HETATM    1  C   UNL     1      26.832  41.510  51.107  1.00  0.00     0.286 C 
HETATM    2  N   UNL     1      26.616  42.573  52.193  1.00  0.00    -0.056 N 
HETATM    3  H   UNL     1      26.051  43.344  51.802  1.00  0.00     0.278 HD
HETATM    4  H   UNL     1      26.063  42.159  52.955  1.00  0.00     0.278 HD
HETATM    5  C   UNL     1      27.876  43.182  52.757  1.00  0.00     0.209 C 
HETATM    6  C   UNL     1      28.863  42.070  53.158  1.00  0.00     0.115 C 
HETATM    7  N   UNL     1      29.119  41.158  52.058  1.00  0.00    -0.353 N 
HETATM    8  C   UNL     1      28.171  40.750  51.162  1.00  0.00     0.249 C 
HETATM    9  O   UNL     1      28.424  39.845  50.371  1.00  0.00    -0.271 OA
HETATM   10  C   UNL     1      27.532  44.059  53.958  1.00  0.00     0.035 C 
HETATM   11  C   UNL     1      28.803  44.693  54.524  1.00  0.00     0.002 C 
HETATM   12  C   UNL     1      29.884  43.655  54.838  1.00  0.00     0.002 C 
HETATM   13  C   UNL     1      30.158  42.712  53.664  1.00  0.00     0.027 C 
HETATM   14  H   UNL     1      29.958  40.579  52.075  1.00  0.00     0.163 HD
ENDROOT
BRANCH   1  15
HETATM   15  C   UNL     1      26.603  42.069  49.697  1.00  0.00     0.146 C 
BRANCH  15  16
HETATM   16  C   UNL     1      25.317  42.853  49.686  1.00  0.00     0.224 C 
HETATM   17  N   UNL     1      25.385  44.013  48.948  1.00  0.00    -0.327 N 
HETATM   18  H   UNL     1      26.144  44.110  48.276  1.00  0.00     0.169 HD
HETATM   19  O   UNL     1      24.423  42.500  50.451  1.00  0.00    -0.273 OA
BRANCH  17  20
HETATM   20  C   UNL     1      24.562  45.153  49.074  1.00  0.00     0.034 A 
HETATM   21  C   UNL     1      24.911  46.293  49.800  1.00  0.00     0.030 A 
HETATM   22  C   UNL     1      24.082  47.421  49.791  1.00  0.00     0.009 A 
HETATM   23  C   UNL     1      22.881  47.420  49.074  1.00  0.00    -0.062 A 
HETATM   24  C   UNL     1      22.018  48.647  49.027  1.00  0.00     0.048 C 
HETATM   25  C   UNL     1      22.526  46.274  48.357  1.00  0.00     0.009 A 
HETATM   26  C   UNL     1      23.357  45.149  48.363  1.00  0.00     0.030 A 
ENDBRANCH  17  20
ENDBRANCH  15  16
ENDBRANCH   1  15
TORSDOF 3
ENDMDL
MODEL 9
REMARK VINA RESULT:      -7.9      3.530      4.601
REMARK  3 active torsions:
REMARK  status: ('A' for Active; 'I' for Inactive)
REMARK    1  A    between atoms: C_5  and  N_6 
REMARK       I    between atoms: N_6  and  C_7 
REMARK    2  A    between atoms: C_7  and  C_8 
REMARK    3  A    between atoms: C_8  and  C_9 
ROOT
HETATM    1  C   UNL     1      27.875  42.128  50.757  1.00  0.00     0.286 C 
HETATM    2  N   UNL     1      26.673  43.072  50.901  1.00  0.00    -0.056 N 
HETATM    3  H   UNL     1      26.576  43.346  51.892  1.00  0.00     0.278 HD
HETATM    4  H   UNL     1      26.865  43.934  50.374  1.00  0.00     0.278 HD
HETATM    5  C   UNL     1      25.348  42.498  50.463  1.00  0.00     0.209 C 
HETATM    6  C   UNL     1      25.484  41.867  49.066  1.00  0.00     0.115 C 
HETATM    7  N   UNL     1      26.564  40.898  49.016  1.00  0.00    -0.353 N 
HETATM    8  C   UNL     1      27.756  41.044  49.669  1.00  0.00     0.249 C 
HETATM    9  O   UNL     1      28.681  40.269  49.437  1.00  0.00    -0.271 OA
HETATM   10  C   UNL     1      24.286  43.594  50.462  1.00  0.00     0.035 C 
HETATM   11  C   UNL     1      22.937  43.014  50.035  1.00  0.00     0.002 C 
HETATM   12  C   UNL     1      23.018  42.264  48.703  1.00  0.00     0.002 C 
HETATM   13  C   UNL     1      24.147  41.233  48.672  1.00  0.00     0.027 C 
HETATM   14  H   UNL     1      26.574  40.198  48.276  1.00  0.00     0.163 HD
ENDROOT
BRANCH   1  15
HETATM   15  C   UNL     1      28.272  41.490  52.094  1.00  0.00     0.146 C 
BRANCH  15  16
HETATM   16  C   UNL     1      28.168  42.528  53.181  1.00  0.00     0.224 C 
HETATM   17  N   UNL     1      29.376  43.094  53.519  1.00  0.00    -0.327 N 
HETATM   18  H   UNL     1      30.151  42.996  52.867  1.00  0.00     0.169 HD
HETATM   19  O   UNL     1      27.095  42.636  53.769  1.00  0.00    -0.273 OA
BRANCH  17  20
HETATM   20  C   UNL     1      29.706  43.737  54.732  1.00  0.00     0.034 A 
HETATM   21  C   UNL     1      30.724  43.314  55.589  1.00  0.00     0.030 A 
HETATM   22  C   UNL     1      31.054  44.067  56.722  1.00  0.00     0.009 A 
HETATM   23  C   UNL     1      30.360  45.241  57.028  1.00  0.00    -0.062 A 
HETATM   24  C   UNL     1      30.748  46.071  58.217  1.00  0.00     0.048 C 
HETATM   25  C   UNL     1      29.333  45.658  56.176  1.00  0.00     0.009 A 
HETATM   26  C   UNL     1      29.006  44.908  55.042  1.00  0.00     0.030 A 
ENDBRANCH  17  20
ENDBRANCH  15  16
ENDBRANCH   1  15
TORSDOF 3
ENDMDL
MODEL 10
REMARK VINA RESULT:      -7.8     12.023     13.027
REMARK  3 active torsions:
REMARK  status: ('A' for Active; 'I' for Inactive)
REMARK    1  A    between atoms: C_5  and  N_6 
REMARK       I    between atoms: N_6  and  C_7 
REMARK    2  A    between atoms: C_7  and  C_8 
REMARK    3  A    between atoms: C_8  and  C_9 
ROOT
HETATM    1  C   UNL     1      27.387  48.255  38.968  1.00  0.00     0.286 C 
HETATM    2  N   UNL     1      28.048  49.485  38.331  1.00  0.00    -0.056 N 
HETATM    3  H   UNL     1      28.860  49.179  37.771  1.00  0.00     0.278 HD
HETATM    4  H   UNL     1      27.383  49.915  37.676  1.00  0.00     0.278 HD
HETATM    5  C   UNL     1      28.542  50.527  39.304  1.00  0.00     0.209 C 
HETATM    6  C   UNL     1      27.434  50.867  40.317  1.00  0.00     0.115 C 
HETATM    7  N   UNL     1      26.923  49.678  40.974  1.00  0.00    -0.353 N 
HETATM    8  C   UNL     1      26.743  48.475  40.351  1.00  0.00     0.249 C 
HETATM    9  O   UNL     1      26.145  47.569  40.927  1.00  0.00    -0.271 OA
HETATM   10  C   UNL     1      28.983  51.775  38.544  1.00  0.00     0.035 C 
HETATM   11  C   UNL     1      29.500  52.829  39.524  1.00  0.00     0.002 C 
HETATM   12  C   UNL     1      28.495  53.136  40.637  1.00  0.00     0.002 C 
HETATM   13  C   UNL     1      27.980  51.875  41.333  1.00  0.00     0.027 C 
HETATM   14  H   UNL     1      26.428  49.770  41.860  1.00  0.00     0.163 HD
ENDROOT
BRANCH   1  15
HETATM   15  C   UNL     1      28.334  47.049  39.015  1.00  0.00     0.146 C 
BRANCH  15  16
HETATM   16  C   UNL     1      29.730  47.535  39.305  1.00  0.00     0.224 C 
HETATM   17  N   UNL     1      30.009  47.639  40.649  1.00  0.00    -0.327 N 
HETATM   18  H   UNL     1      29.406  47.145  41.303  1.00  0.00     0.169 HD
HETATM   19  O   UNL     1      30.399  47.953  38.363  1.00  0.00    -0.273 OA
BRANCH  17  20
HETATM   20  C   UNL     1      31.002  48.440  41.253  1.00  0.00     0.034 A 
HETATM   21  C   UNL     1      32.368  48.323  40.990  1.00  0.00     0.030 A 
HETATM   22  C   UNL     1      33.278  49.223  41.555  1.00  0.00     0.009 A 
HETATM   23  C   UNL     1      32.841  50.241  42.407  1.00  0.00    -0.062 A 
HETATM   24  C   UNL     1      33.814  51.235  42.973  1.00  0.00     0.048 C 
HETATM   25  C   UNL     1      31.475  50.351  42.681  1.00  0.00     0.009 A 
HETATM   26  C   UNL     1      30.565  49.454  42.113  1.00  0.00     0.030 A 
ENDBRANCH  17  20
ENDBRANCH  15  16
ENDBRANCH   1  15
TORSDOF 3
ENDMDL
