MODEL 1
REMARK VINA RESULT:      -8.9      0.000      0.000
REMARK  5 active torsions:
REMARK  status: ('A' for Active; 'I' for Inactive)
REMARK    1  A    between atoms: C_2  and  C_3 
REMARK    2  A    between atoms: C_6  and  C_7 
REMARK    3  A    between atoms: C_9  and  C_10 
REMARK    4  A    between atoms: C_10  and  N_11 
REMARK       I    between atoms: N_11  and  C_12 
REMARK       I    between atoms: C_12  and  N_13 
REMARK    5  A    between atoms: N_13  and  C_14 
ROOT
HETATM    1  N   UNL     1      26.954  45.017  51.129  1.00  0.00    -0.338 N 
HETATM    2  C   UNL     1      26.382  44.005  51.829  1.00  0.00     0.321 C 
HETATM    3  N   UNL     1      26.716  43.890  53.146  1.00  0.00    -0.308 N 
HETATM    4  O   UNL     1      25.643  43.168  51.315  1.00  0.00    -0.247 OA
HETATM    5  H   UNL     1      27.731  45.499  51.557  1.00  0.00     0.164 HD
HETATM    6  H   UNL     1      26.553  42.947  53.479  1.00  0.00     0.170 HD
ENDROOT
BRANCH   1   7
HETATM    7  C   UNL     1      26.666  45.272  49.741  1.00  0.00     0.167 C 
BRANCH   7   8
HETATM    8  C   UNL     1      25.662  46.356  49.647  1.00  0.00     0.018 A 
HETATM    9  C   UNL     1      25.872  47.764  49.628  1.00  0.00     0.072 A 
HETATM   10  N   UNL     1      24.713  48.429  49.557  1.00  0.00    -0.132 NA
HETATM   11  O   UNL     1      23.725  47.467  49.526  1.00  0.00    -0.217 OA
HETATM   12  C   UNL     1      24.290  46.232  49.577  1.00  0.00     0.088 A 
BRANCH   9  13
HETATM   13  C   UNL     1      27.154  48.522  49.674  1.00  0.00     0.058 C 
HETATM   14  C   UNL     1      27.157  49.718  48.732  1.00  0.00     0.011 C 
ENDBRANCH   9  13
BRANCH  12  15
HETATM   15  C   UNL     1      23.355  45.082  49.553  1.00  0.00     0.063 C 
HETATM   16  C   UNL     1      23.367  44.380  48.205  1.00  0.00     0.012 C 
ENDBRANCH  12  15
ENDBRANCH   7   8
ENDBRANCH   1   7
BRANCH   3  17
HETATM   17  C   UNL     1      27.393  44.768  54.021  1.00  0.00     0.047 A 
HETATM   18  C   UNL     1      28.637  44.492  54.664  1.00  0.00     0.001 A 
HETATM   19  C   UNL     1      29.130  45.435  55.605  1.00  0.00    -0.024 A 
HETATM   20  C   UNL     1      29.469  43.377  54.388  1.00  0.00     0.014 A 
HETATM   21  C   UNL     1      30.328  45.189  56.297  1.00  0.00     0.012 A 
HETATM   22  C   UNL     1      28.438  46.635  55.825  1.00  0.00     0.012 A 
HETATM   23  C   UNL     1      31.082  44.046  56.046  1.00  0.00     0.001 A 
HETATM   24  C   UNL     1      30.662  43.147  55.078  1.00  0.00     0.001 A 
HETATM   25  C   UNL     1      27.280  46.933  55.116  1.00  0.00     0.003 A 
HETATM   26  C   UNL     1      26.767  46.008  54.213  1.00  0.00     0.030 A 
ENDBRANCH   3  17
TORSDOF 5
ENDMDL
MODEL 2
REMARK VINA RESULT:      -8.9      0.407      2.517
REMARK  5 active torsions:
REMARK  status: ('A' for Active; 'I' for Inactive)
REMARK    1  A    between atoms: C_2  and  C_3 
REMARK    2  A    between atoms: C_6  and  C_7 
REMARK    3  A    between atoms: C_9  and  C_10 
REMARK    4  A    between atoms: C_10  and  N_11 
REMARK       I    between atoms: N_11  and  C_12 
REMARK       I    between atoms: C_12  and  N_13 
REMARK    5  A    between atoms: N_13  and  C_14 
ROOT
HETATM    1  N   UNL     1      26.959  45.048  51.123  1.00  0.00    -0.338 N 
HETATM    2  C   UNL     1      26.402  44.018  51.809  1.00  0.00     0.321 C 
HETATM    3  N   UNL     1      26.744  43.887  53.123  1.00  0.00    -0.308 N 
HETATM    4  O   UNL     1      25.671  43.181  51.285  1.00  0.00    -0.247 OA
HETATM    5  H   UNL     1      27.732  45.532  51.555  1.00  0.00     0.164 HD
HETATM    6  H   UNL     1      26.593  42.937  53.441  1.00  0.00     0.170 HD
ENDROOT
BRANCH   1   7
HETATM    7  C   UNL     1      26.662  45.322  49.740  1.00  0.00     0.167 C 
BRANCH   7   8
HETATM    8  C   UNL     1      25.701  46.445  49.666  1.00  0.00     0.018 A 
HETATM    9  C   UNL     1      24.279  46.399  49.609  1.00  0.00     0.072 A 
HETATM   10  N   UNL     1      23.753  47.627  49.525  1.00  0.00    -0.132 NA
HETATM   11  O   UNL     1      24.822  48.498  49.528  1.00  0.00    -0.217 OA
HETATM   12  C   UNL     1      25.982  47.795  49.614  1.00  0.00     0.088 A 
BRANCH   9  13
HETATM   13  C   UNL     1      23.378  45.212  49.633  1.00  0.00     0.058 C 
HETATM   14  C   UNL     1      23.288  44.524  48.278  1.00  0.00     0.011 C 
ENDBRANCH   9  13
BRANCH  12  15
HETATM   15  C   UNL     1      27.232  48.592  49.627  1.00  0.00     0.063 C 
HETATM   16  C   UNL     1      27.139  49.794  48.700  1.00  0.00     0.012 C 
ENDBRANCH  12  15
ENDBRANCH   7   8
ENDBRANCH   1   7
BRANCH   3  17
HETATM   17  C   UNL     1      27.414  44.758  54.008  1.00  0.00     0.047 A 
HETATM   18  C   UNL     1      28.651  44.477  54.662  1.00  0.00     0.001 A 
HETATM   19  C   UNL     1      29.137  45.413  55.613  1.00  0.00    -0.024 A 
HETATM   20  C   UNL     1      29.483  43.361  54.389  1.00  0.00     0.014 A 
HETATM   21  C   UNL     1      30.328  45.161  56.315  1.00  0.00     0.012 A 
HETATM   22  C   UNL     1      28.446  46.613  55.832  1.00  0.00     0.012 A 
HETATM   23  C   UNL     1      31.082  44.018  56.065  1.00  0.00     0.001 A 
HETATM   24  C   UNL     1      30.669  43.125  55.089  1.00  0.00     0.001 A 
HETATM   25  C   UNL     1      27.295  46.918  55.114  1.00  0.00     0.003 A 
HETATM   26  C   UNL     1      26.789  45.998  54.201  1.00  0.00     0.030 A 
ENDBRANCH   3  17
TORSDOF 5
ENDMDL
MODEL 3
REMARK VINA RESULT:      -8.9      2.030      3.936
REMARK  5 active torsions:
REMARK  status: ('A' for Active; 'I' for Inactive)
REMARK    1  A    between atoms: C_2  and  C_3 
REMARK    2  A    between atoms: C_6  and  C_7 
REMARK    3  A    between atoms: C_9  and  C_10 
REMARK    4  A    between atoms: C_10  and  N_11 
REMARK       I    between atoms: N_11  and  C_12 
REMARK       I    between atoms: C_12  and  N_13 
REMARK    5  A    between atoms: N_13  and  C_14 
ROOT
HETATM    1  N   UNL     1      26.550  46.260  53.503  1.00  0.00    -0.338 N 
HETATM    2  C   UNL     1      26.882  47.062  54.546  1.00  0.00     0.321 C 
HETATM    3  N   UNL     1      27.811  46.590  55.425  1.00  0.00    -0.308 N 
HETATM    4  O   UNL     1      26.340  48.145  54.759  1.00  0.00    -0.247 OA
HETATM    5  H   UNL     1      26.851  45.298  53.541  1.00  0.00     0.164 HD
HETATM    6  H   UNL     1      27.729  47.055  56.322  1.00  0.00     0.170 HD
ENDROOT
BRANCH   1   7
HETATM    7  C   UNL     1      25.607  46.647  52.484  1.00  0.00     0.167 C 
BRANCH   7   8
HETATM    8  C   UNL     1      26.073  46.135  51.176  1.00  0.00     0.018 A 
HETATM    9  C   UNL     1      26.323  44.789  50.785  1.00  0.00     0.072 A 
HETATM   10  N   UNL     1      26.758  44.720  49.521  1.00  0.00    -0.132 NA
HETATM   11  O   UNL     1      26.797  46.021  49.062  1.00  0.00    -0.217 OA
HETATM   12  C   UNL     1      26.387  46.863  50.047  1.00  0.00     0.088 A 
BRANCH   9  13
HETATM   13  C   UNL     1      26.163  43.536  51.577  1.00  0.00     0.058 C 
HETATM   14  C   UNL     1      27.162  42.462  51.175  1.00  0.00     0.011 C 
ENDBRANCH   9  13
BRANCH  12  15
HETATM   15  C   UNL     1      26.373  48.307  49.711  1.00  0.00     0.063 C 
HETATM   16  C   UNL     1      27.705  48.758  49.132  1.00  0.00     0.012 C 
ENDBRANCH  12  15
ENDBRANCH   7   8
ENDBRANCH   1   7
BRANCH   3  17
HETATM   17  C   UNL     1      28.692  45.489  55.356  1.00  0.00     0.047 A 
HETATM   18  C   UNL     1      29.686  45.167  56.328  1.00  0.00     0.001 A 
HETATM   19  C   UNL     1      30.569  44.089  56.054  1.00  0.00    -0.024 A 
HETATM   20  C   UNL     1      29.824  45.794  57.593  1.00  0.00     0.014 A 
HETATM   21  C   UNL     1      31.592  43.761  56.960  1.00  0.00     0.012 A 
HETATM   22  C   UNL     1      30.403  43.324  54.891  1.00  0.00     0.012 A 
HETATM   23  C   UNL     1      31.737  44.448  58.162  1.00  0.00     0.001 A 
HETATM   24  C   UNL     1      30.841  45.454  58.488  1.00  0.00     0.001 A 
HETATM   25  C   UNL     1      29.368  43.588  54.003  1.00  0.00     0.003 A 
HETATM   26  C   UNL     1      28.512  44.659  54.240  1.00  0.00     0.030 A 
ENDBRANCH   3  17
TORSDOF 5
ENDMDL
MODEL 4
REMARK VINA RESULT:      -8.8      1.279      3.484
REMARK  5 active torsions:
REMARK  status: ('A' for Active; 'I' for Inactive)
REMARK    1  A    between atoms: C_2  and  C_3 
REMARK    2  A    between atoms: C_6  and  C_7 
REMARK    3  A    between atoms: C_9  and  C_10 
REMARK    4  A    between atoms: C_10  and  N_11 
REMARK       I    between atoms: N_11  and  C_12 
REMARK       I    between atoms: C_12  and  N_13 
REMARK    5  A    between atoms: N_13  and  C_14 
ROOT
HETATM    1  N   UNL     1      25.952  44.474  50.742  1.00  0.00    -0.338 N 
HETATM    2  C   UNL     1      25.093  43.803  51.551  1.00  0.00     0.321 C 
HETATM    3  N   UNL     1      25.541  43.467  52.795  1.00  0.00    -0.308 N 
HETATM    4  O   UNL     1      23.976  43.438  51.189  1.00  0.00    -0.247 OA
HETATM    5  H   UNL     1      26.921  44.512  51.021  1.00  0.00     0.164 HD
HETATM    6  H   UNL     1      25.011  42.690  53.171  1.00  0.00     0.170 HD
ENDROOT
BRANCH   1   7
HETATM    7  C   UNL     1      25.598  44.916  49.418  1.00  0.00     0.167 C 
BRANCH   7   8
HETATM    8  C   UNL     1      24.869  46.201  49.516  1.00  0.00     0.018 A 
HETATM    9  C   UNL     1      23.508  46.478  49.204  1.00  0.00     0.072 A 
HETATM   10  N   UNL     1      23.215  47.769  49.399  1.00  0.00    -0.132 NA
HETATM   11  O   UNL     1      24.379  48.359  49.847  1.00  0.00    -0.217 OA
HETATM   12  C   UNL     1      25.363  47.425  49.918  1.00  0.00     0.088 A 
BRANCH   9  13
HETATM   13  C   UNL     1      22.449  45.549  48.717  1.00  0.00     0.058 C 
HETATM   14  C   UNL     1      21.993  45.877  47.302  1.00  0.00     0.011 C 
ENDBRANCH   9  13
BRANCH  12  15
HETATM   15  C   UNL     1      26.688  47.902  50.384  1.00  0.00     0.063 C 
HETATM   16  C   UNL     1      27.435  48.637  49.283  1.00  0.00     0.012 C 
ENDBRANCH  12  15
ENDBRANCH   7   8
ENDBRANCH   1   7
BRANCH   3  17
HETATM   17  C   UNL     1      26.680  43.875  53.522  1.00  0.00     0.047 A 
HETATM   18  C   UNL     1      26.913  45.194  54.016  1.00  0.00     0.001 A 
HETATM   19  C   UNL     1      28.163  45.470  54.631  1.00  0.00    -0.024 A 
HETATM   20  C   UNL     1      25.964  46.248  54.008  1.00  0.00     0.014 A 
HETATM   21  C   UNL     1      28.457  46.763  55.094  1.00  0.00     0.012 A 
HETATM   22  C   UNL     1      29.099  44.441  54.810  1.00  0.00     0.012 A 
HETATM   23  C   UNL     1      27.521  47.790  55.005  1.00  0.00     0.001 A 
HETATM   24  C   UNL     1      26.267  47.529  54.478  1.00  0.00     0.001 A 
HETATM   25  C   UNL     1      28.816  43.139  54.413  1.00  0.00     0.003 A 
HETATM   26  C   UNL     1      27.609  42.858  53.781  1.00  0.00     0.030 A 
ENDBRANCH   3  17
TORSDOF 5
ENDMDL
MODEL 5
REMARK VINA RESULT:      -8.8      1.220      2.568
REMARK  5 active torsions:
REMARK  status: ('A' for Active; 'I' for Inactive)
REMARK    1  A    between atoms: C_2  and  C_3 
REMARK    2  A    between atoms: C_6  and  C_7 
REMARK    3  A    between atoms: C_9  and  C_10 
REMARK    4  A    between atoms: C_10  and  N_11 
REMARK       I    between atoms: N_11  and  C_12 
REMARK       I    between atoms: C_12  and  N_13 
REMARK    5  A    between atoms: N_13  and  C_14 
ROOT
HETATM    1  N   UNL     1      25.958  44.435  50.742  1.00  0.00    -0.338 N 
HETATM    2  C   UNL     1      25.103  43.767  51.557  1.00  0.00     0.321 C 
HETATM    3  N   UNL     1      25.551  43.447  52.804  1.00  0.00    -0.308 N 
HETATM    4  O   UNL     1      23.989  43.391  51.196  1.00  0.00    -0.247 OA
HETATM    5  H   UNL     1      26.927  44.483  51.023  1.00  0.00     0.164 HD
HETATM    6  H   UNL     1      25.025  42.670  53.188  1.00  0.00     0.170 HD
ENDROOT
BRANCH   1   7
HETATM    7  C   UNL     1      25.604  44.861  49.413  1.00  0.00     0.167 C 
BRANCH   7   8
HETATM    8  C   UNL     1      24.823  46.116  49.500  1.00  0.00     0.018 A 
HETATM    9  C   UNL     1      25.250  47.403  49.934  1.00  0.00     0.072 A 
HETATM   10  N   UNL     1      24.248  48.289  49.895  1.00  0.00    -0.132 NA
HETATM   11  O   UNL     1      23.148  47.597  49.432  1.00  0.00    -0.217 OA
HETATM   12  C   UNL     1      23.490  46.304  49.195  1.00  0.00     0.088 A 
BRANCH   9  13
HETATM   13  C   UNL     1      26.600  47.838  50.393  1.00  0.00     0.058 C 
HETATM   14  C   UNL     1      27.375  48.571  49.308  1.00  0.00     0.011 C 
ENDBRANCH   9  13
BRANCH  12  15
HETATM   15  C   UNL     1      22.410  45.421  48.691  1.00  0.00     0.063 C 
HETATM   16  C   UNL     1      22.046  45.750  47.253  1.00  0.00     0.012 C 
ENDBRANCH  12  15
ENDBRANCH   7   8
ENDBRANCH   1   7
BRANCH   3  17
HETATM   17  C   UNL     1      26.686  43.870  53.530  1.00  0.00     0.047 A 
HETATM   18  C   UNL     1      26.905  45.194  54.016  1.00  0.00     0.001 A 
HETATM   19  C   UNL     1      28.152  45.485  54.630  1.00  0.00    -0.024 A 
HETATM   20  C   UNL     1      25.946  46.238  54.002  1.00  0.00     0.014 A 
HETATM   21  C   UNL     1      28.434  46.784  55.086  1.00  0.00     0.012 A 
HETATM   22  C   UNL     1      29.099  44.467  54.815  1.00  0.00     0.012 A 
HETATM   23  C   UNL     1      27.487  47.801  54.991  1.00  0.00     0.001 A 
HETATM   24  C   UNL     1      26.236  47.525  54.465  1.00  0.00     0.001 A 
HETATM   25  C   UNL     1      28.829  43.161  54.425  1.00  0.00     0.003 A 
HETATM   26  C   UNL     1      27.625  42.864  53.795  1.00  0.00     0.030 A 
ENDBRANCH   3  17
TORSDOF 5
ENDMDL
MODEL 6
REMARK VINA RESULT:      -8.7      1.846      3.267
REMARK  5 active torsions:
REMARK  status: ('A' for Active; 'I' for Inactive)
REMARK    1  A    between atoms: C_2  and  C_3 
REMARK    2  A    between atoms: C_6  and  C_7 
REMARK    3  A    between atoms: C_9  and  C_10 
REMARK    4  A    between atoms: C_10  and  N_11 
REMARK       I    between atoms: N_11  and  C_12 
REMARK       I    between atoms: C_12  and  N_13 
REMARK    5  A    between atoms: N_13  and  C_14 
ROOT
HETATM    1  N   UNL     1      26.249  45.203  53.548  1.00  0.00    -0.338 N 
HETATM    2  C   UNL     1      26.734  46.355  54.078  1.00  0.00     0.321 C 
HETATM    3  N   UNL     1      27.871  46.268  54.824  1.00  0.00    -0.308 N 
HETATM    4  O   UNL     1      26.161  47.437  53.967  1.00  0.00    -0.247 OA
HETATM    5  H   UNL     1      26.633  44.335  53.891  1.00  0.00     0.164 HD
HETATM    6  H   UNL     1      27.950  47.057  55.455  1.00  0.00     0.170 HD
ENDROOT
BRANCH   1   7
HETATM    7  C   UNL     1      25.075  45.155  52.715  1.00  0.00     0.167 C 
BRANCH   7   8
HETATM    8  C   UNL     1      25.491  45.013  51.301  1.00  0.00     0.018 A 
HETATM    9  C   UNL     1      25.763  46.034  50.346  1.00  0.00     0.072 A 
HETATM   10  N   UNL     1      26.091  45.515  49.157  1.00  0.00    -0.132 NA
HETATM   11  O   UNL     1      26.043  44.145  49.315  1.00  0.00    -0.217 OA
HETATM   12  C   UNL     1      25.688  43.847  50.592  1.00  0.00     0.088 A 
BRANCH   9  13
HETATM   13  C   UNL     1      25.724  47.514  50.518  1.00  0.00     0.058 C 
HETATM   14  C   UNL     1      26.691  48.233  49.589  1.00  0.00     0.011 C 
ENDBRANCH   9  13
BRANCH  12  15
HETATM   15  C   UNL     1      25.589  42.405  50.925  1.00  0.00     0.063 C 
HETATM   16  C   UNL     1      26.922  41.848  51.398  1.00  0.00     0.012 C 
ENDBRANCH  12  15
ENDBRANCH   7   8
ENDBRANCH   1   7
BRANCH   3  17
HETATM   17  C   UNL     1      28.807  45.223  54.989  1.00  0.00     0.047 A 
HETATM   18  C   UNL     1      29.680  45.069  56.108  1.00  0.00     0.001 A 
HETATM   19  C   UNL     1      30.643  44.026  56.068  1.00  0.00    -0.024 A 
HETATM   20  C   UNL     1      29.621  45.833  57.301  1.00  0.00     0.014 A 
HETATM   21  C   UNL     1      31.554  43.860  57.125  1.00  0.00     0.012 A 
HETATM   22  C   UNL     1      30.668  43.134  54.987  1.00  0.00     0.012 A 
HETATM   23  C   UNL     1      31.507  44.677  58.251  1.00  0.00     0.001 A 
HETATM   24  C   UNL     1      30.529  45.654  58.348  1.00  0.00     0.001 A 
HETATM   25  C   UNL     1      29.745  43.237  53.953  1.00  0.00     0.003 A 
HETATM   26  C   UNL     1      28.814  44.271  53.960  1.00  0.00     0.030 A 
ENDBRANCH   3  17
TORSDOF 5
ENDMDL
MODEL 7
REMARK VINA RESULT:      -8.4      1.851      3.331
REMARK  5 active torsions:
REMARK  status: ('A' for Active; 'I' for Inactive)
REMARK    1  A    between atoms: C_2  and  C_3 
REMARK    2  A    between atoms: C_6  and  C_7 
REMARK    3  A    between atoms: C_9  and  C_10 
REMARK    4  A    between atoms: C_10  and  N_11 
REMARK       I    between atoms: N_11  and  C_12 
REMARK       I    between atoms: C_12  and  N_13 
REMARK    5  A    between atoms: N_13  and  C_14 
ROOT
HETATM    1  N   UNL     1      26.360  46.474  51.882  1.00  0.00    -0.338 N 
HETATM    2  C   UNL     1      26.016  46.823  53.148  1.00  0.00     0.321 C 
HETATM    3  N   UNL     1      26.358  45.960  54.147  1.00  0.00    -0.308 N 
HETATM    4  O   UNL     1      25.365  47.831  53.413  1.00  0.00    -0.247 OA
HETATM    5  H   UNL     1      26.665  45.525  51.727  1.00  0.00     0.164 HD
HETATM    6  H   UNL     1      25.771  46.100  54.961  1.00  0.00     0.170 HD
ENDROOT
BRANCH   1   7
HETATM    7  C   UNL     1      26.088  47.306  50.738  1.00  0.00     0.167 C 
BRANCH   7   8
HETATM    8  C   UNL     1      24.903  46.776  50.026  1.00  0.00     0.018 A 
HETATM    9  C   UNL     1      24.591  45.425  49.701  1.00  0.00     0.072 A 
HETATM   10  N   UNL     1      23.437  45.339  49.029  1.00  0.00    -0.132 NA
HETATM   11  O   UNL     1      22.973  46.632  48.905  1.00  0.00    -0.217 OA
HETATM   12  C   UNL     1      23.845  47.487  49.500  1.00  0.00     0.088 A 
BRANCH   9  13
HETATM   13  C   UNL     1      25.358  44.185  50.009  1.00  0.00     0.058 C 
HETATM   14  C   UNL     1      24.491  43.108  50.646  1.00  0.00     0.011 C 
ENDBRANCH   9  13
BRANCH  12  15
HETATM   15  C   UNL     1      23.488  48.926  49.453  1.00  0.00     0.063 C 
HETATM   16  C   UNL     1      24.351  49.682  48.455  1.00  0.00     0.012 C 
ENDBRANCH  12  15
ENDBRANCH   7   8
ENDBRANCH   1   7
BRANCH   3  17
HETATM   17  C   UNL     1      27.218  44.840  54.165  1.00  0.00     0.047 A 
HETATM   18  C   UNL     1      28.481  44.782  54.828  1.00  0.00     0.001 A 
HETATM   19  C   UNL     1      29.277  43.619  54.654  1.00  0.00    -0.024 A 
HETATM   20  C   UNL     1      28.984  45.769  55.712  1.00  0.00     0.014 A 
HETATM   21  C   UNL     1      30.547  43.532  55.250  1.00  0.00     0.012 A 
HETATM   22  C   UNL     1      28.785  42.536  53.913  1.00  0.00     0.012 A 
HETATM   23  C   UNL     1      31.035  44.555  56.058  1.00  0.00     0.001 A 
HETATM   24  C   UNL     1      30.246  45.668  56.305  1.00  0.00     0.001 A 
HETATM   25  C   UNL     1      27.512  42.569  53.357  1.00  0.00     0.003 A 
HETATM   26  C   UNL     1      26.730  43.711  53.491  1.00  0.00     0.030 A 
ENDBRANCH   3  17
TORSDOF 5
ENDMDL
MODEL 8
REMARK VINA RESULT:      -8.3      1.800      2.745
REMARK  5 active torsions:
REMARK  status: ('A' for Active; 'I' for Inactive)
REMARK    1  A    between atoms: C_2  and  C_3 
REMARK    2  A    between atoms: C_6  and  C_7 
REMARK    3  A    between atoms: C_9  and  C_10 
REMARK    4  A    between atoms: C_10  and  N_11 
REMARK       I    between atoms: N_11  and  C_12 
REMARK       I    between atoms: C_12  and  N_13 
REMARK    5  A    between atoms: N_13  and  C_14 
ROOT
HETATM    1  N   UNL     1      26.354  46.589  52.059  1.00  0.00    -0.338 N 
HETATM    2  C   UNL     1      26.034  46.902  53.340  1.00  0.00     0.321 C 
HETATM    3  N   UNL     1      26.367  45.999  54.306  1.00  0.00    -0.308 N 
HETATM    4  O   UNL     1      25.410  47.916  53.647  1.00  0.00    -0.247 OA
HETATM    5  H   UNL     1      26.635  45.638  51.868  1.00  0.00     0.164 HD
HETATM    6  H   UNL     1      25.794  46.125  55.132  1.00  0.00     0.170 HD
ENDROOT
BRANCH   1   7
HETATM    7  C   UNL     1      26.088  47.464  50.947  1.00  0.00     0.167 C 
BRANCH   7   8
HETATM    8  C   UNL     1      24.925  46.946  50.192  1.00  0.00     0.018 A 
HETATM    9  C   UNL     1      23.887  47.675  49.545  1.00  0.00     0.072 A 
HETATM   10  N   UNL     1      22.991  46.855  48.983  1.00  0.00    -0.132 NA
HETATM   11  O   UNL     1      23.430  45.574  49.250  1.00  0.00    -0.217 OA
HETATM   12  C   UNL     1      24.582  45.629  49.968  1.00  0.00     0.088 A 
BRANCH   9  13
HETATM   13  C   UNL     1      23.704  49.150  49.436  1.00  0.00     0.058 C 
HETATM   14  C   UNL     1      24.028  49.674  48.044  1.00  0.00     0.011 C 
ENDBRANCH   9  13
BRANCH  12  15
HETATM   15  C   UNL     1      25.186  44.326  50.338  1.00  0.00     0.063 C 
HETATM   16  C   UNL     1      26.463  44.059  49.558  1.00  0.00     0.012 C 
ENDBRANCH  12  15
ENDBRANCH   7   8
ENDBRANCH   1   7
BRANCH   3  17
HETATM   17  C   UNL     1      27.201  44.860  54.276  1.00  0.00     0.047 A 
HETATM   18  C   UNL     1      28.487  44.763  54.888  1.00  0.00     0.001 A 
HETATM   19  C   UNL     1      29.248  43.585  54.668  1.00  0.00    -0.024 A 
HETATM   20  C   UNL     1      29.047  45.726  55.765  1.00  0.00     0.014 A 
HETATM   21  C   UNL     1      30.537  43.460  55.213  1.00  0.00     0.012 A 
HETATM   22  C   UNL     1      28.703  42.524  53.932  1.00  0.00     0.012 A 
HETATM   23  C   UNL     1      31.080  44.461  56.015  1.00  0.00     0.001 A 
HETATM   24  C   UNL     1      30.328  45.588  56.307  1.00  0.00     0.001 A 
HETATM   25  C   UNL     1      27.410  42.594  53.427  1.00  0.00     0.003 A 
HETATM   26  C   UNL     1      26.661  43.752  53.606  1.00  0.00     0.030 A 
ENDBRANCH   3  17
TORSDOF 5
ENDMDL
MODEL 9
REMARK VINA RESULT:      -8.3      2.427      6.708
REMARK  5 active torsions:
REMARK  status: ('A' for Active; 'I' for Inactive)
REMARK    1  A    between atoms: C_2  and  C_3 
REMARK    2  A    between atoms: C_6  and  C_7 
REMARK    3  A    between atoms: C_9  and  C_10 
REMARK    4  A    between atoms: C_10  and  N_11 
REMARK       I    between atoms: N_11  and  C_12 
REMARK       I    between atoms: C_12  and  N_13 
REMARK    5  A    between atoms: N_13  and  C_14 
ROOT
HETATM    1  N   UNL     1      26.803  42.886  52.840  1.00  0.00    -0.338 N 
HETATM    2  C   UNL     1      27.480  42.553  51.712  1.00  0.00     0.321 C 
HETATM    3  N   UNL     1      26.840  42.737  50.522  1.00  0.00    -0.308 N 
HETATM    4  O   UNL     1      28.598  42.041  51.727  1.00  0.00    -0.247 OA
HETATM    5  H   UNL     1      25.812  43.060  52.754  1.00  0.00     0.164 HD
HETATM    6  H   UNL     1      27.242  42.150  49.802  1.00  0.00     0.170 HD
ENDROOT
BRANCH   1   7
HETATM    7  C   UNL     1      27.370  42.771  54.159  1.00  0.00     0.167 C 
BRANCH   7   8
HETATM    8  C   UNL     1      27.949  44.076  54.551  1.00  0.00     0.018 A 
HETATM    9  C   UNL     1      29.269  44.366  54.998  1.00  0.00     0.072 A 
HETATM   10  N   UNL     1      29.414  45.666  55.283  1.00  0.00    -0.132 NA
HETATM   11  O   UNL     1      28.190  46.249  55.025  1.00  0.00    -0.217 OA
HETATM   12  C   UNL     1      27.319  45.303  54.587  1.00  0.00     0.088 A 
BRANCH   9  13
HETATM   13  C   UNL     1      30.426  43.442  55.169  1.00  0.00     0.058 C 
HETATM   14  C   UNL     1      31.203  43.714  56.449  1.00  0.00     0.011 C 
ENDBRANCH   9  13
BRANCH  12  15
HETATM   15  C   UNL     1      25.949  45.772  54.265  1.00  0.00     0.063 C 
HETATM   16  C   UNL     1      25.973  47.104  53.533  1.00  0.00     0.012 C 
ENDBRANCH  12  15
ENDBRANCH   7   8
ENDBRANCH   1   7
BRANCH   3  17
HETATM   17  C   UNL     1      25.655  43.431  50.194  1.00  0.00     0.047 A 
HETATM   18  C   UNL     1      25.547  44.844  50.025  1.00  0.00     0.001 A 
HETATM   19  C   UNL     1      24.258  45.398  49.807  1.00  0.00    -0.024 A 
HETATM   20  C   UNL     1      26.640  45.747  49.986  1.00  0.00     0.014 A 
HETATM   21  C   UNL     1      24.094  46.787  49.678  1.00  0.00     0.012 A 
HETATM   22  C   UNL     1      23.143  44.555  49.685  1.00  0.00     0.012 A 
HETATM   23  C   UNL     1      25.188  47.648  49.714  1.00  0.00     0.001 A 
HETATM   24  C   UNL     1      26.465  47.126  49.850  1.00  0.00     0.001 A 
HETATM   25  C   UNL     1      23.280  43.174  49.753  1.00  0.00     0.003 A 
HETATM   26  C   UNL     1      24.531  42.616  49.996  1.00  0.00     0.030 A 
ENDBRANCH   3  17
TORSDOF 5
ENDMDL
MODEL 10
REMARK VINA RESULT:      -8.0      1.873      4.033
REMARK  5 active torsions:
REMARK  status: ('A' for Active; 'I' for Inactive)
REMARK    1  A    between atoms: C_2  and  C_3 
REMARK    2  A    between atoms: C_6  and  C_7 
REMARK    3  A    between atoms: C_9  and  C_10 
REMARK    4  A    between atoms: C_10  and  N_11 
REMARK       I    between atoms: N_11  and  C_12 
REMARK       I    between atoms: C_12  and  N_13 
REMARK    5  A    between atoms: N_13  and  C_14 
ROOT
HETATM    1  N   UNL     1      27.315  42.717  50.724  1.00  0.00    -0.338 N 
HETATM    2  C   UNL     1      26.893  41.701  51.518  1.00  0.00     0.321 C 
HETATM    3  N   UNL     1      27.336  41.690  52.807  1.00  0.00    -0.308 N 
HETATM    4  O   UNL     1      26.196  40.775  51.108  1.00  0.00    -0.247 OA
HETATM    5  H   UNL     1      28.076  43.288  51.062  1.00  0.00     0.164 HD
HETATM    6  H   UNL     1      27.285  40.757  53.199  1.00  0.00     0.170 HD
ENDROOT
BRANCH   1   7
HETATM    7  C   UNL     1      26.900  42.866  49.353  1.00  0.00     0.167 C 
BRANCH   7   8
HETATM    8  C   UNL     1      25.704  43.737  49.302  1.00  0.00     0.018 A 
HETATM    9  C   UNL     1      24.354  43.381  49.024  1.00  0.00     0.072 A 
HETATM   10  N   UNL     1      23.552  44.452  49.046  1.00  0.00    -0.132 NA
HETATM   11  O   UNL     1      24.364  45.528  49.342  1.00  0.00    -0.217 OA
HETATM   12  C   UNL     1      25.645  45.102  49.497  1.00  0.00     0.088 A 
BRANCH   9  13
HETATM   13  C   UNL     1      23.779  42.037  48.732  1.00  0.00     0.058 C 
HETATM   14  C   UNL     1      22.704  42.086  47.657  1.00  0.00     0.011 C 
ENDBRANCH   9  13
BRANCH  12  15
HETATM   15  C   UNL     1      26.648  46.145  49.819  1.00  0.00     0.063 C 
HETATM   16  C   UNL     1      26.088  47.181  50.781  1.00  0.00     0.012 C 
ENDBRANCH  12  15
ENDBRANCH   7   8
ENDBRANCH   1   7
BRANCH   3  17
HETATM   17  C   UNL     1      27.996  42.672  53.579  1.00  0.00     0.047 A 
HETATM   18  C   UNL     1      27.453  43.945  53.930  1.00  0.00     0.001 A 
HETATM   19  C   UNL     1      28.290  44.865  54.616  1.00  0.00    -0.024 A 
HETATM   20  C   UNL     1      26.112  44.348  53.712  1.00  0.00     0.014 A 
HETATM   21  C   UNL     1      27.817  46.146  54.946  1.00  0.00     0.012 A 
HETATM   22  C   UNL     1      29.584  44.486  55.000  1.00  0.00     0.012 A 
HETATM   23  C   UNL     1      26.511  46.529  54.652  1.00  0.00     0.001 A 
HETATM   24  C   UNL     1      25.651  45.624  54.050  1.00  0.00     0.001 A 
HETATM   25  C   UNL     1      30.062  43.207  54.738  1.00  0.00     0.003 A 
HETATM   26  C   UNL     1      29.268  42.303  54.040  1.00  0.00     0.030 A 
ENDBRANCH   3  17
TORSDOF 5
ENDMDL
