MODEL 1
REMARK VINA RESULT:     -11.4      0.000      0.000
REMARK  4 active torsions:
REMARK  status: ('A' for Active; 'I' for Inactive)
REMARK    1  A    between atoms: C_3  and  N_4 
REMARK    2  A    between atoms: C_11  and  C_12 
REMARK       I    between atoms: C_12  and  N_13 
REMARK    3  A    between atoms: N_13  and  C_14 
REMARK    4  A    between atoms: C_19  and  O_20 
ROOT
HETATM    1  C   UNL     1      24.916  46.427  50.808  1.00  0.00     0.036 A 
HETATM    2  C   UNL     1      24.575  47.720  50.412  1.00  0.00     0.049 A 
HETATM    3  C   UNL     1      23.606  47.945  49.410  1.00  0.00     0.063 A 
HETATM    4  C   UNL     1      22.953  46.861  48.797  1.00  0.00     0.075 A 
HETATM    5  N   UNL     1      21.986  46.917  47.776  1.00  0.00    -0.226 NA
HETATM    6  C   UNL     1      21.065  47.819  47.799  1.00  0.00     0.161 C 
HETATM    7  C   UNL     1      20.890  48.927  48.817  1.00  0.00     0.164 C 
HETATM    8  N   UNL     1      22.084  49.762  48.734  1.00  0.00    -0.336 N 
HETATM    9  C   UNL     1      23.367  49.365  49.043  1.00  0.00     0.257 C 
HETATM   10  O   UNL     1      24.311  50.152  49.054  1.00  0.00    -0.267 OA
HETATM   11  C   UNL     1      19.737  49.898  48.539  1.00  0.00     0.035 C 
HETATM   12  C   UNL     1      20.299  51.252  48.959  1.00  0.00     0.022 C 
HETATM   13  C   UNL     1      21.753  51.158  48.527  1.00  0.00     0.127 C 
HETATM   14  C   UNL     1      23.326  45.569  49.190  1.00  0.00     0.035 A 
HETATM   15  C   UNL     1      24.294  45.350  50.175  1.00  0.00     0.032 A 
ENDROOT
BRANCH   1  16
HETATM   16  N   UNL     1      25.871  46.124  51.802  1.00  0.00    -0.323 N 
HETATM   17  C   UNL     1      26.044  46.762  53.018  1.00  0.00     0.256 C 
HETATM   18  O   UNL     1      25.373  47.691  53.451  1.00  0.00    -0.267 OA
HETATM   19  H   UNL     1      26.503  45.369  51.578  1.00  0.00     0.169 HD
BRANCH  17  20
HETATM   20  C   UNL     1      27.169  46.255  53.861  1.00  0.00     0.033 A 
HETATM   21  C   UNL     1      27.811  47.041  54.817  1.00  0.00     0.019 A 
HETATM   22  C   UNL     1      28.842  46.495  55.592  1.00  0.00     0.031 A 
HETATM   23  C   UNL     1      29.259  45.160  55.418  1.00  0.00     0.044 A 
HETATM   24  C   UNL     1      28.670  44.383  54.398  1.00  0.00    -0.034 A 
HETATM   25  C   UNL     1      29.117  43.003  53.994  1.00  0.00     0.050 C 
HETATM   26  C   UNL     1      27.612  44.943  53.649  1.00  0.00     0.026 A 
BRANCH  23  27
HETATM   27  N   UNL     1      30.264  44.658  56.305  1.00  0.00    -0.332 N 
HETATM   28  C   UNL     1      30.570  45.167  57.557  1.00  0.00     0.096 A 
HETATM   29  C   UNL     1      31.570  44.411  58.127  1.00  0.00     0.019 A 
HETATM   30  C   UNL     1      31.879  43.381  57.219  1.00  0.00     0.019 A 
HETATM   31  C   UNL     1      31.060  43.544  56.124  1.00  0.00     0.096 A 
ENDBRANCH  23  27
ENDBRANCH  17  20
ENDBRANCH   1  16
BRANCH   6  32
HETATM   32  O   UNL     1      20.155  47.750  46.819  1.00  0.00    -0.346 OA
HETATM   33  H   UNL     1      19.979  46.807  46.661  1.00  0.00     0.219 HD
ENDBRANCH   6  32
TORSDOF 4
ENDMDL
MODEL 2
REMARK VINA RESULT:     -10.5      2.619     10.491
REMARK  4 active torsions:
REMARK  status: ('A' for Active; 'I' for Inactive)
REMARK    1  A    between atoms: C_3  and  N_4 
REMARK    2  A    between atoms: C_11  and  C_12 
REMARK       I    between atoms: C_12  and  N_13 
REMARK    3  A    between atoms: N_13  and  C_14 
REMARK    4  A    between atoms: C_19  and  O_20 
ROOT
HETATM    1  C   UNL     1      24.710  45.167  50.216  1.00  0.00     0.036 A 
HETATM    2  C   UNL     1      25.255  44.971  51.484  1.00  0.00     0.049 A 
HETATM    3  C   UNL     1      26.114  43.882  51.749  1.00  0.00     0.063 A 
HETATM    4  C   UNL     1      26.448  42.976  50.728  1.00  0.00     0.075 A 
HETATM    5  N   UNL     1      27.267  41.836  50.836  1.00  0.00    -0.226 NA
HETATM    6  C   UNL     1      28.348  41.875  51.538  1.00  0.00     0.161 C 
HETATM    7  C   UNL     1      28.875  43.040  52.351  1.00  0.00     0.164 C 
HETATM    8  N   UNL     1      27.875  43.316  53.377  1.00  0.00    -0.336 N 
HETATM    9  C   UNL     1      26.589  43.754  53.152  1.00  0.00     0.257 C 
HETATM   10  O   UNL     1      25.835  44.071  54.070  1.00  0.00    -0.267 OA
HETATM   11  C   UNL     1      30.156  42.760  53.143  1.00  0.00     0.035 C 
HETATM   12  C   UNL     1      29.941  43.516  54.450  1.00  0.00     0.022 C 
HETATM   13  C   UNL     1      28.456  43.324  54.706  1.00  0.00     0.127 C 
HETATM   14  C   UNL     1      25.872  43.174  49.466  1.00  0.00     0.035 A 
HETATM   15  C   UNL     1      25.013  44.248  49.210  1.00  0.00     0.032 A 
ENDROOT
BRANCH   1  16
HETATM   16  N   UNL     1      23.849  46.232  49.874  1.00  0.00    -0.323 N 
HETATM   17  C   UNL     1      24.211  47.518  49.511  1.00  0.00     0.256 C 
HETATM   18  O   UNL     1      25.354  47.944  49.399  1.00  0.00    -0.267 OA
HETATM   19  H   UNL     1      22.862  46.023  49.924  1.00  0.00     0.169 HD
BRANCH  17  20
HETATM   20  C   UNL     1      23.081  48.458  49.243  1.00  0.00     0.033 A 
HETATM   21  C   UNL     1      23.254  49.836  49.133  1.00  0.00     0.019 A 
HETATM   22  C   UNL     1      22.155  50.658  48.854  1.00  0.00     0.031 A 
HETATM   23  C   UNL     1      20.862  50.121  48.693  1.00  0.00     0.044 A 
HETATM   24  C   UNL     1      20.664  48.737  48.883  1.00  0.00    -0.034 A 
HETATM   25  C   UNL     1      19.325  48.047  48.898  1.00  0.00     0.050 C 
HETATM   26  C   UNL     1      21.790  47.922  49.134  1.00  0.00     0.026 A 
BRANCH  23  27
HETATM   27  N   UNL     1      19.809  51.021  48.332  1.00  0.00    -0.332 N 
HETATM   28  C   UNL     1      19.112  51.016  47.134  1.00  0.00     0.096 A 
HETATM   29  C   UNL     1      18.156  52.007  47.157  1.00  0.00     0.019 A 
HETATM   30  C   UNL     1      18.236  52.631  48.416  1.00  0.00     0.019 A 
HETATM   31  C   UNL     1      19.240  52.003  49.119  1.00  0.00     0.096 A 
ENDBRANCH  23  27
ENDBRANCH  17  20
ENDBRANCH   1  16
BRANCH   6  32
HETATM   32  O   UNL     1      29.091  40.761  51.526  1.00  0.00    -0.346 OA
HETATM   33  H   UNL     1      28.524  40.037  51.842  1.00  0.00     0.219 HD
ENDBRANCH   6  32
TORSDOF 4
ENDMDL
MODEL 3
REMARK VINA RESULT:     -10.0      2.758      4.111
REMARK  4 active torsions:
REMARK  status: ('A' for Active; 'I' for Inactive)
REMARK    1  A    between atoms: C_3  and  N_4 
REMARK    2  A    between atoms: C_11  and  C_12 
REMARK       I    between atoms: C_12  and  N_13 
REMARK    3  A    between atoms: N_13  and  C_14 
REMARK    4  A    between atoms: C_19  and  O_20 
ROOT
HETATM    1  C   UNL     1      22.154  47.311  48.669  1.00  0.00     0.036 A 
HETATM    2  C   UNL     1      21.690  48.564  49.065  1.00  0.00     0.049 A 
HETATM    3  C   UNL     1      20.652  49.214  48.363  1.00  0.00     0.063 A 
HETATM    4  C   UNL     1      20.052  48.598  47.250  1.00  0.00     0.075 A 
HETATM    5  N   UNL     1      19.029  49.120  46.437  1.00  0.00    -0.226 NA
HETATM    6  C   UNL     1      18.043  49.762  46.963  1.00  0.00     0.161 C 
HETATM    7  C   UNL     1      17.838  50.093  48.427  1.00  0.00     0.164 C 
HETATM    8  N   UNL     1      18.957  50.943  48.822  1.00  0.00    -0.336 N 
HETATM    9  C   UNL     1      20.282  50.567  48.853  1.00  0.00     0.257 C 
HETATM   10  O   UNL     1      21.160  51.302  49.300  1.00  0.00    -0.267 OA
HETATM   11  C   UNL     1      16.599  50.938  48.742  1.00  0.00     0.035 C 
HETATM   12  C   UNL     1      17.075  51.876  49.846  1.00  0.00     0.022 C 
HETATM   13  C   UNL     1      18.505  52.179  49.432  1.00  0.00     0.127 C 
HETATM   14  C   UNL     1      20.547  47.349  46.851  1.00  0.00     0.035 A 
HETATM   15  C   UNL     1      21.583  46.714  47.543  1.00  0.00     0.032 A 
ENDROOT
BRANCH   1  16
HETATM   16  N   UNL     1      23.184  46.599  49.321  1.00  0.00    -0.323 N 
HETATM   17  C   UNL     1      24.338  47.122  49.879  1.00  0.00     0.256 C 
HETATM   18  O   UNL     1      24.649  48.306  49.923  1.00  0.00    -0.267 OA
HETATM   19  H   UNL     1      23.061  45.597  49.358  1.00  0.00     0.169 HD
BRANCH  17  20
HETATM   20  C   UNL     1      25.281  46.124  50.469  1.00  0.00     0.033 A 
HETATM   21  C   UNL     1      26.344  45.574  49.755  1.00  0.00     0.019 A 
HETATM   22  C   UNL     1      27.207  44.664  50.378  1.00  0.00     0.031 A 
HETATM   23  C   UNL     1      27.016  44.276  51.719  1.00  0.00     0.044 A 
HETATM   24  C   UNL     1      25.896  44.765  52.424  1.00  0.00    -0.034 A 
HETATM   25  C   UNL     1      25.477  44.322  53.801  1.00  0.00     0.050 C 
HETATM   26  C   UNL     1      25.056  45.705  51.788  1.00  0.00     0.026 A 
BRANCH  23  27
HETATM   27  N   UNL     1      27.989  43.402  52.302  1.00  0.00    -0.332 N 
HETATM   28  C   UNL     1      28.040  42.026  52.145  1.00  0.00     0.096 A 
HETATM   29  C   UNL     1      29.128  41.528  52.828  1.00  0.00     0.019 A 
HETATM   30  C   UNL     1      29.793  42.626  53.405  1.00  0.00     0.019 A 
HETATM   31  C   UNL     1      29.089  43.758  53.057  1.00  0.00     0.096 A 
ENDBRANCH  23  27
ENDBRANCH  17  20
ENDBRANCH   1  16
BRANCH   6  32
HETATM   32  O   UNL     1      17.088  50.163  46.114  1.00  0.00    -0.346 OA
HETATM   33  H   UNL     1      16.517  49.394  45.945  1.00  0.00     0.219 HD
ENDBRANCH   6  32
TORSDOF 4
ENDMDL
MODEL 4
REMARK VINA RESULT:      -9.9      2.119      3.655
REMARK  4 active torsions:
REMARK  status: ('A' for Active; 'I' for Inactive)
REMARK    1  A    between atoms: C_3  and  N_4 
REMARK    2  A    between atoms: C_11  and  C_12 
REMARK       I    between atoms: C_12  and  N_13 
REMARK    3  A    between atoms: N_13  and  C_14 
REMARK    4  A    between atoms: C_19  and  O_20 
ROOT
HETATM    1  C   UNL     1      24.788  45.825  50.697  1.00  0.00     0.036 A 
HETATM    2  C   UNL     1      24.115  44.773  50.079  1.00  0.00     0.049 A 
HETATM    3  C   UNL     1      23.176  45.009  49.051  1.00  0.00     0.063 A 
HETATM    4  C   UNL     1      22.911  46.320  48.619  1.00  0.00     0.075 A 
HETATM    5  N   UNL     1      21.995  46.721  47.629  1.00  0.00    -0.226 NA
HETATM    6  C   UNL     1      21.872  46.040  46.541  1.00  0.00     0.161 C 
HETATM    7  C   UNL     1      22.595  44.761  46.171  1.00  0.00     0.164 C 
HETATM    8  N   UNL     1      22.204  43.762  47.161  1.00  0.00    -0.336 N 
HETATM    9  C   UNL     1      22.490  43.808  48.508  1.00  0.00     0.257 C 
HETATM   10  O   UNL     1      22.223  42.878  49.265  1.00  0.00    -0.267 OA
HETATM   11  C   UNL     1      22.184  44.139  44.831  1.00  0.00     0.035 C 
HETATM   12  C   UNL     1      22.205  42.640  45.111  1.00  0.00     0.022 C 
HETATM   13  C   UNL     1      21.686  42.560  46.537  1.00  0.00     0.127 C 
HETATM   14  C   UNL     1      23.578  47.368  49.268  1.00  0.00     0.035 A 
HETATM   15  C   UNL     1      24.499  47.130  50.293  1.00  0.00     0.032 A 
ENDROOT
BRANCH   1  16
HETATM   16  N   UNL     1      25.740  45.668  51.727  1.00  0.00    -0.323 N 
HETATM   17  C   UNL     1      25.958  46.515  52.800  1.00  0.00     0.256 C 
HETATM   18  O   UNL     1      25.337  47.541  53.052  1.00  0.00    -0.267 OA
HETATM   19  H   UNL     1      26.333  44.855  51.648  1.00  0.00     0.169 HD
BRANCH  17  20
HETATM   20  C   UNL     1      27.068  46.122  53.720  1.00  0.00     0.033 A 
HETATM   21  C   UNL     1      27.625  46.997  54.651  1.00  0.00     0.019 A 
HETATM   22  C   UNL     1      28.646  46.556  55.502  1.00  0.00     0.031 A 
HETATM   23  C   UNL     1      29.140  45.238  55.429  1.00  0.00     0.044 A 
HETATM   24  C   UNL     1      28.639  44.370  54.435  1.00  0.00    -0.034 A 
HETATM   25  C   UNL     1      29.175  42.995  54.136  1.00  0.00     0.050 C 
HETATM   26  C   UNL     1      27.589  44.825  53.609  1.00  0.00     0.026 A 
BRANCH  23  27
HETATM   27  N   UNL     1      30.129  44.846  56.386  1.00  0.00    -0.332 N 
HETATM   28  C   UNL     1      30.299  45.394  57.648  1.00  0.00     0.096 A 
HETATM   29  C   UNL     1      31.328  44.745  58.294  1.00  0.00     0.019 A 
HETATM   30  C   UNL     1      31.796  43.743  57.423  1.00  0.00     0.019 A 
HETATM   31  C   UNL     1      31.040  43.815  56.275  1.00  0.00     0.096 A 
ENDBRANCH  23  27
ENDBRANCH  17  20
ENDBRANCH   1  16
BRANCH   6  32
HETATM   32  O   UNL     1      21.023  46.538  45.633  1.00  0.00    -0.346 OA
HETATM   33  H   UNL     1      20.327  45.872  45.500  1.00  0.00     0.219 HD
ENDBRANCH   6  32
TORSDOF 4
ENDMDL
MODEL 5
REMARK VINA RESULT:      -9.7      4.332     12.345
REMARK  4 active torsions:
REMARK  status: ('A' for Active; 'I' for Inactive)
REMARK    1  A    between atoms: C_3  and  N_4 
REMARK    2  A    between atoms: C_11  and  C_12 
REMARK       I    between atoms: C_12  and  N_13 
REMARK    3  A    between atoms: N_13  and  C_14 
REMARK    4  A    between atoms: C_19  and  O_20 
ROOT
HETATM    1  C   UNL     1      21.478  50.379  48.983  1.00  0.00     0.036 A 
HETATM    2  C   UNL     1      21.722  49.012  49.111  1.00  0.00     0.049 A 
HETATM    3  C   UNL     1      23.031  48.492  49.014  1.00  0.00     0.063 A 
HETATM    4  C   UNL     1      24.123  49.351  48.797  1.00  0.00     0.075 A 
HETATM    5  N   UNL     1      25.475  48.989  48.657  1.00  0.00    -0.226 NA
HETATM    6  C   UNL     1      25.987  48.074  49.408  1.00  0.00     0.161 C 
HETATM    7  C   UNL     1      25.279  47.249  50.463  1.00  0.00     0.164 C 
HETATM    8  N   UNL     1      24.246  46.486  49.769  1.00  0.00    -0.336 N 
HETATM    9  C   UNL     1      23.154  47.015  49.118  1.00  0.00     0.257 C 
HETATM   10  O   UNL     1      22.266  46.307  48.648  1.00  0.00    -0.267 OA
HETATM   11  C   UNL     1      26.138  46.180  51.146  1.00  0.00     0.035 C 
HETATM   12  C   UNL     1      25.180  45.007  51.319  1.00  0.00     0.022 C 
HETATM   13  C   UNL     1      24.347  45.066  50.049  1.00  0.00     0.127 C 
HETATM   14  C   UNL     1      23.856  50.718  48.647  1.00  0.00     0.035 A 
HETATM   15  C   UNL     1      22.557  51.229  48.733  1.00  0.00     0.032 A 
ENDROOT
BRANCH   1  16
HETATM   16  N   UNL     1      20.201  50.972  49.071  1.00  0.00    -0.323 N 
HETATM   17  C   UNL     1      19.260  51.087  48.061  1.00  0.00     0.256 C 
HETATM   18  O   UNL     1      19.371  50.665  46.916  1.00  0.00    -0.267 OA
HETATM   19  H   UNL     1      19.969  51.371  49.970  1.00  0.00     0.169 HD
BRANCH  17  20
HETATM   20  C   UNL     1      18.002  51.806  48.426  1.00  0.00     0.033 A 
HETATM   21  C   UNL     1      17.761  52.307  49.704  1.00  0.00     0.019 A 
HETATM   22  C   UNL     1      16.572  52.995  49.972  1.00  0.00     0.031 A 
HETATM   23  C   UNL     1      15.595  53.183  48.974  1.00  0.00     0.044 A 
HETATM   24  C   UNL     1      15.794  52.609  47.700  1.00  0.00    -0.034 A 
HETATM   25  C   UNL     1      14.778  52.593  46.588  1.00  0.00     0.050 C 
HETATM   26  C   UNL     1      17.014  51.946  47.442  1.00  0.00     0.026 A 
BRANCH  23  27
HETATM   27  N   UNL     1      14.444  53.965  49.310  1.00  0.00    -0.332 N 
HETATM   28  C   UNL     1      13.482  53.630  50.250  1.00  0.00     0.096 A 
HETATM   29  C   UNL     1      12.543  54.635  50.321  1.00  0.00     0.019 A 
HETATM   30  C   UNL     1      12.943  55.641  49.421  1.00  0.00     0.019 A 
HETATM   31  C   UNL     1      14.111  55.216  48.829  1.00  0.00     0.096 A 
ENDBRANCH  23  27
ENDBRANCH  17  20
ENDBRANCH   1  16
BRANCH   6  32
HETATM   32  O   UNL     1      27.296  47.847  49.242  1.00  0.00    -0.346 OA
HETATM   33  H   UNL     1      27.579  48.367  48.471  1.00  0.00     0.219 HD
ENDBRANCH   6  32
TORSDOF 4
ENDMDL
MODEL 6
REMARK VINA RESULT:      -9.6      2.883      5.795
REMARK  4 active torsions:
REMARK  status: ('A' for Active; 'I' for Inactive)
REMARK    1  A    between atoms: C_3  and  N_4 
REMARK    2  A    between atoms: C_11  and  C_12 
REMARK       I    between atoms: C_12  and  N_13 
REMARK    3  A    between atoms: N_13  and  C_14 
REMARK    4  A    between atoms: C_19  and  O_20 
ROOT
HETATM    1  C   UNL     1      21.095  49.433  49.179  1.00  0.00     0.036 A 
HETATM    2  C   UNL     1      19.809  48.946  48.952  1.00  0.00     0.049 A 
HETATM    3  C   UNL     1      18.775  49.795  48.502  1.00  0.00     0.063 A 
HETATM    4  C   UNL     1      19.028  51.156  48.259  1.00  0.00     0.075 A 
HETATM    5  N   UNL     1      18.108  52.131  47.831  1.00  0.00    -0.226 NA
HETATM    6  C   UNL     1      17.230  51.847  46.930  1.00  0.00     0.161 C 
HETATM    7  C   UNL     1      17.010  50.511  46.251  1.00  0.00     0.164 C 
HETATM    8  N   UNL     1      16.635  49.568  47.300  1.00  0.00    -0.336 N 
HETATM    9  C   UNL     1      17.437  49.167  48.345  1.00  0.00     0.257 C 
HETATM   10  O   UNL     1      17.095  48.286  49.132  1.00  0.00    -0.267 OA
HETATM   11  C   UNL     1      15.835  50.461  45.267  1.00  0.00     0.035 C 
HETATM   12  C   UNL     1      15.238  49.076  45.493  1.00  0.00     0.022 C 
HETATM   13  C   UNL     1      15.393  48.886  46.992  1.00  0.00     0.127 C 
HETATM   14  C   UNL     1      20.320  51.635  48.516  1.00  0.00     0.035 A 
HETATM   15  C   UNL     1      21.339  50.792  48.973  1.00  0.00     0.032 A 
ENDROOT
BRANCH   1  16
HETATM   16  N   UNL     1      22.178  48.647  49.626  1.00  0.00    -0.323 N 
HETATM   17  C   UNL     1      22.898  47.720  48.892  1.00  0.00     0.256 C 
HETATM   18  O   UNL     1      22.730  47.443  47.710  1.00  0.00    -0.267 OA
HETATM   19  H   UNL     1      22.432  48.771  50.596  1.00  0.00     0.169 HD
BRANCH  17  20
HETATM   20  C   UNL     1      23.972  46.997  49.637  1.00  0.00     0.033 A 
HETATM   21  C   UNL     1      25.168  47.603  50.020  1.00  0.00     0.019 A 
HETATM   22  C   UNL     1      26.122  46.874  50.740  1.00  0.00     0.031 A 
HETATM   23  C   UNL     1      25.906  45.524  51.079  1.00  0.00     0.044 A 
HETATM   24  C   UNL     1      24.736  44.879  50.626  1.00  0.00    -0.034 A 
HETATM   25  C   UNL     1      24.443  43.409  50.776  1.00  0.00     0.050 C 
HETATM   26  C   UNL     1      23.773  45.640  49.928  1.00  0.00     0.026 A 
BRANCH  23  27
HETATM   27  N   UNL     1      26.897  44.875  51.884  1.00  0.00    -0.332 N 
HETATM   28  C   UNL     1      27.006  44.962  53.263  1.00  0.00     0.096 A 
HETATM   29  C   UNL     1      28.060  44.183  53.688  1.00  0.00     0.019 A 
HETATM   30  C   UNL     1      28.607  43.568  52.547  1.00  0.00     0.019 A 
HETATM   31  C   UNL     1      27.873  43.994  51.463  1.00  0.00     0.096 A 
ENDBRANCH  23  27
ENDBRANCH  17  20
ENDBRANCH   1  16
BRANCH   6  32
HETATM   32  O   UNL     1      16.442  52.858  46.544  1.00  0.00    -0.346 OA
HETATM   33  H   UNL     1      16.674  53.064  45.622  1.00  0.00     0.219 HD
ENDBRANCH   6  32
TORSDOF 4
ENDMDL
MODEL 7
REMARK VINA RESULT:      -9.6      2.775     10.760
REMARK  4 active torsions:
REMARK  status: ('A' for Active; 'I' for Inactive)
REMARK    1  A    between atoms: C_3  and  N_4 
REMARK    2  A    between atoms: C_11  and  C_12 
REMARK       I    between atoms: C_12  and  N_13 
REMARK    3  A    between atoms: N_13  and  C_14 
REMARK    4  A    between atoms: C_19  and  O_20 
ROOT
HETATM    1  C   UNL     1      24.993  46.818  51.243  1.00  0.00     0.036 A 
HETATM    2  C   UNL     1      25.653  45.692  50.753  1.00  0.00     0.049 A 
HETATM    3  C   UNL     1      26.655  45.046  51.510  1.00  0.00     0.063 A 
HETATM    4  C   UNL     1      26.998  45.522  52.787  1.00  0.00     0.075 A 
HETATM    5  N   UNL     1      27.982  45.006  53.651  1.00  0.00    -0.226 NA
HETATM    6  C   UNL     1      28.133  43.732  53.780  1.00  0.00     0.161 C 
HETATM    7  C   UNL     1      27.379  42.639  53.051  1.00  0.00     0.164 C 
HETATM    8  N   UNL     1      27.673  42.805  51.632  1.00  0.00    -0.336 N 
HETATM    9  C   UNL     1      27.318  43.888  50.857  1.00  0.00     0.257 C 
HETATM   10  O   UNL     1      27.504  43.912  49.642  1.00  0.00    -0.267 OA
HETATM   11  C   UNL     1      27.833  41.208  53.362  1.00  0.00     0.035 C 
HETATM   12  C   UNL     1      27.735  40.501  52.015  1.00  0.00     0.022 C 
HETATM   13  C   UNL     1      28.173  41.580  51.038  1.00  0.00     0.127 C 
HETATM   14  C   UNL     1      26.342  46.668  53.254  1.00  0.00     0.035 A 
HETATM   15  C   UNL     1      25.358  47.312  52.497  1.00  0.00     0.032 A 
ENDROOT
BRANCH   1  16
HETATM   16  N   UNL     1      23.982  47.515  50.548  1.00  0.00    -0.323 N 
HETATM   17  C   UNL     1      24.150  48.545  49.638  1.00  0.00     0.256 C 
HETATM   18  O   UNL     1      25.218  49.012  49.261  1.00  0.00    -0.267 OA
HETATM   19  H   UNL     1      23.036  47.234  50.763  1.00  0.00     0.169 HD
BRANCH  17  20
HETATM   20  C   UNL     1      22.892  49.132  49.085  1.00  0.00     0.033 A 
HETATM   21  C   UNL     1      22.739  50.494  48.834  1.00  0.00     0.019 A 
HETATM   22  C   UNL     1      21.542  50.975  48.289  1.00  0.00     0.031 A 
HETATM   23  C   UNL     1      20.471  50.107  47.998  1.00  0.00     0.044 A 
HETATM   24  C   UNL     1      20.587  48.739  48.323  1.00  0.00    -0.034 A 
HETATM   25  C   UNL     1      19.478  47.726  48.216  1.00  0.00     0.050 C 
HETATM   26  C   UNL     1      21.813  48.270  48.843  1.00  0.00     0.026 A 
BRANCH  23  27
HETATM   27  N   UNL     1      19.314  50.668  47.370  1.00  0.00    -0.332 N 
HETATM   28  C   UNL     1      18.951  50.505  46.042  1.00  0.00     0.096 A 
HETATM   29  C   UNL     1      17.765  51.166  45.807  1.00  0.00     0.019 A 
HETATM   30  C   UNL     1      17.359  51.734  47.029  1.00  0.00     0.019 A 
HETATM   31  C   UNL     1      18.310  51.404  47.969  1.00  0.00     0.096 A 
ENDBRANCH  23  27
ENDBRANCH  17  20
ENDBRANCH   1  16
BRANCH   6  32
HETATM   32  O   UNL     1      29.050  43.340  54.673  1.00  0.00    -0.346 OA
HETATM   33  H   UNL     1      29.576  44.125  54.904  1.00  0.00     0.219 HD
ENDBRANCH   6  32
TORSDOF 4
ENDMDL
MODEL 8
REMARK VINA RESULT:      -9.6      2.841     10.898
REMARK  4 active torsions:
REMARK  status: ('A' for Active; 'I' for Inactive)
REMARK    1  A    between atoms: C_3  and  N_4 
REMARK    2  A    between atoms: C_11  and  C_12 
REMARK       I    between atoms: C_12  and  N_13 
REMARK    3  A    between atoms: N_13  and  C_14 
REMARK    4  A    between atoms: C_19  and  O_20 
ROOT
HETATM    1  C   UNL     1      24.094  44.852  49.716  1.00  0.00     0.036 A 
HETATM    2  C   UNL     1      24.551  44.799  51.032  1.00  0.00     0.049 A 
HETATM    3  C   UNL     1      25.499  43.834  51.438  1.00  0.00     0.063 A 
HETATM    4  C   UNL     1      26.012  42.909  50.512  1.00  0.00     0.075 A 
HETATM    5  N   UNL     1      26.938  41.880  50.762  1.00  0.00    -0.226 NA
HETATM    6  C   UNL     1      27.947  42.085  51.537  1.00  0.00     0.161 C 
HETATM    7  C   UNL     1      28.276  43.351  52.301  1.00  0.00     0.164 C 
HETATM    8  N   UNL     1      27.172  43.576  53.228  1.00  0.00    -0.336 N 
HETATM    9  C   UNL     1      25.868  43.850  52.877  1.00  0.00     0.257 C 
HETATM   10  O   UNL     1      25.012  44.136  53.711  1.00  0.00    -0.267 OA
HETATM   11  C   UNL     1      29.512  43.271  53.205  1.00  0.00     0.035 C 
HETATM   12  C   UNL     1      29.109  44.077  54.434  1.00  0.00     0.022 C 
HETATM   13  C   UNL     1      27.638  43.734  54.593  1.00  0.00     0.127 C 
HETATM   14  C   UNL     1      25.523  42.960  49.200  1.00  0.00     0.035 A 
HETATM   15  C   UNL     1      24.576  43.911  48.804  1.00  0.00     0.032 A 
ENDROOT
BRANCH   1  16
HETATM   16  N   UNL     1      23.153  45.787  49.235  1.00  0.00    -0.323 N 
HETATM   17  C   UNL     1      21.833  45.545  48.893  1.00  0.00     0.256 C 
HETATM   18  O   UNL     1      21.248  44.471  48.975  1.00  0.00    -0.267 OA
HETATM   19  H   UNL     1      23.500  46.727  49.114  1.00  0.00     0.169 HD
BRANCH  17  20
HETATM   20  C   UNL     1      21.074  46.720  48.368  1.00  0.00     0.033 A 
HETATM   21  C   UNL     1      19.760  46.630  47.913  1.00  0.00     0.019 A 
HETATM   22  C   UNL     1      19.098  47.777  47.458  1.00  0.00     0.031 A 
HETATM   23  C   UNL     1      19.739  49.031  47.437  1.00  0.00     0.044 A 
HETATM   24  C   UNL     1      21.094  49.117  47.820  1.00  0.00    -0.034 A 
HETATM   25  C   UNL     1      21.951  50.350  47.703  1.00  0.00     0.050 C 
HETATM   26  C   UNL     1      21.734  47.955  48.303  1.00  0.00     0.026 A 
BRANCH  23  27
HETATM   27  N   UNL     1      18.965  50.166  47.032  1.00  0.00    -0.332 N 
HETATM   28  C   UNL     1      18.643  50.504  45.727  1.00  0.00     0.096 A 
HETATM   29  C   UNL     1      17.864  51.640  45.728  1.00  0.00     0.019 A 
HETATM   30  C   UNL     1      17.669  52.007  47.072  1.00  0.00     0.019 A 
HETATM   31  C   UNL     1      18.336  51.085  47.848  1.00  0.00     0.096 A 
ENDBRANCH  23  27
ENDBRANCH  17  20
ENDBRANCH   1  16
BRANCH   6  32
HETATM   32  O   UNL     1      28.806  41.065  51.661  1.00  0.00    -0.346 OA
HETATM   33  H   UNL     1      28.886  40.874  52.611  1.00  0.00     0.219 HD
ENDBRANCH   6  32
TORSDOF 4
ENDMDL
MODEL 9
REMARK VINA RESULT:      -9.1      4.644     10.543
REMARK  4 active torsions:
REMARK  status: ('A' for Active; 'I' for Inactive)
REMARK    1  A    between atoms: C_3  and  N_4 
REMARK    2  A    between atoms: C_11  and  C_12 
REMARK       I    between atoms: C_12  and  N_13 
REMARK    3  A    between atoms: N_13  and  C_14 
REMARK    4  A    between atoms: C_19  and  O_20 
ROOT
HETATM    1  C   UNL     1      26.020  43.871  50.011  1.00  0.00     0.036 A 
HETATM    2  C   UNL     1      26.478  42.960  49.060  1.00  0.00     0.049 A 
HETATM    3  C   UNL     1      27.326  41.891  49.422  1.00  0.00     0.063 A 
HETATM    4  C   UNL     1      27.716  41.715  50.762  1.00  0.00     0.075 A 
HETATM    5  N   UNL     1      28.566  40.720  51.277  1.00  0.00    -0.226 NA
HETATM    6  C   UNL     1      28.481  39.506  50.852  1.00  0.00     0.161 C 
HETATM    7  C   UNL     1      27.561  38.972  49.773  1.00  0.00     0.164 C 
HETATM    8  N   UNL     1      27.918  39.667  48.541  1.00  0.00    -0.336 N 
HETATM    9  C   UNL     1      27.785  41.019  48.310  1.00  0.00     0.257 C 
HETATM   10  O   UNL     1      28.005  41.520  47.210  1.00  0.00    -0.267 OA
HETATM   11  C   UNL     1      27.740  37.489  49.431  1.00  0.00     0.035 C 
HETATM   12  C   UNL     1      27.551  37.445  47.919  1.00  0.00     0.022 C 
HETATM   13  C   UNL     1      28.203  38.739  47.463  1.00  0.00     0.127 C 
HETATM   14  C   UNL     1      27.266  42.654  51.700  1.00  0.00     0.035 A 
HETATM   15  C   UNL     1      26.435  43.719  51.335  1.00  0.00     0.032 A 
ENDROOT
BRANCH   1  16
HETATM   16  N   UNL     1      25.170  44.961  49.726  1.00  0.00    -0.323 N 
HETATM   17  C   UNL     1      25.544  46.272  49.482  1.00  0.00     0.256 C 
HETATM   18  O   UNL     1      26.691  46.704  49.446  1.00  0.00    -0.267 OA
HETATM   19  H   UNL     1      24.183  44.751  49.723  1.00  0.00     0.169 HD
BRANCH  17  20
HETATM   20  C   UNL     1      24.424  47.233  49.251  1.00  0.00     0.033 A 
HETATM   21  C   UNL     1      23.087  46.842  49.217  1.00  0.00     0.019 A 
HETATM   22  C   UNL     1      22.083  47.798  49.022  1.00  0.00     0.031 A 
HETATM   23  C   UNL     1      22.397  49.161  48.844  1.00  0.00     0.044 A 
HETATM   24  C   UNL     1      23.751  49.554  48.796  1.00  0.00    -0.034 A 
HETATM   25  C   UNL     1      24.240  50.938  48.459  1.00  0.00     0.050 C 
HETATM   26  C   UNL     1      24.746  48.578  49.025  1.00  0.00     0.026 A 
BRANCH  23  27
HETATM   27  N   UNL     1      21.308  50.083  48.729  1.00  0.00    -0.332 N 
HETATM   28  C   UNL     1      20.565  50.323  47.585  1.00  0.00     0.096 A 
HETATM   29  C   UNL     1      19.585  51.251  47.861  1.00  0.00     0.019 A 
HETATM   30  C   UNL     1      19.699  51.580  49.225  1.00  0.00     0.019 A 
HETATM   31  C   UNL     1      20.746  50.844  49.735  1.00  0.00     0.096 A 
ENDBRANCH  23  27
ENDBRANCH  17  20
ENDBRANCH   1  16
BRANCH   6  32
HETATM   32  O   UNL     1      29.288  38.620  51.449  1.00  0.00    -0.346 OA
HETATM   33  H   UNL     1      29.117  38.678  52.404  1.00  0.00     0.219 HD
ENDBRANCH   6  32
TORSDOF 4
ENDMDL
MODEL 10
REMARK VINA RESULT:      -9.0     13.916     14.487
REMARK  4 active torsions:
REMARK  status: ('A' for Active; 'I' for Inactive)
REMARK    1  A    between atoms: C_3  and  N_4 
REMARK    2  A    between atoms: C_11  and  C_12 
REMARK       I    between atoms: C_12  and  N_13 
REMARK    3  A    between atoms: N_13  and  C_14 
REMARK    4  A    between atoms: C_19  and  O_20 
ROOT
HETATM    1  C   UNL     1      34.429  51.232  42.407  1.00  0.00     0.036 A 
HETATM    2  C   UNL     1      33.326  52.002  42.041  1.00  0.00     0.049 A 
HETATM    3  C   UNL     1      32.283  51.459  41.260  1.00  0.00     0.063 A 
HETATM    4  C   UNL     1      32.331  50.117  40.844  1.00  0.00     0.075 A 
HETATM    5  N   UNL     1      31.389  49.438  40.050  1.00  0.00    -0.226 NA
HETATM    6  C   UNL     1      30.126  49.626  40.232  1.00  0.00     0.161 C 
HETATM    7  C   UNL     1      29.471  50.571  41.219  1.00  0.00     0.164 C 
HETATM    8  N   UNL     1      29.896  51.917  40.850  1.00  0.00    -0.336 N 
HETATM    9  C   UNL     1      31.188  52.395  40.895  1.00  0.00     0.257 C 
HETATM   10  O   UNL     1      31.458  53.573  40.673  1.00  0.00    -0.267 OA
HETATM   11  C   UNL     1      27.941  50.631  41.153  1.00  0.00     0.035 C 
HETATM   12  C   UNL     1      27.631  52.105  41.389  1.00  0.00     0.022 C 
HETATM   13  C   UNL     1      28.766  52.806  40.663  1.00  0.00     0.127 C 
HETATM   14  C   UNL     1      33.459  49.365  41.199  1.00  0.00     0.035 A 
HETATM   15  C   UNL     1      34.495  49.909  41.964  1.00  0.00     0.032 A 
ENDROOT
BRANCH   1  16
HETATM   16  N   UNL     1      35.507  51.702  43.186  1.00  0.00    -0.323 N 
HETATM   17  C   UNL     1      36.433  52.671  42.836  1.00  0.00     0.256 C 
HETATM   18  O   UNL     1      36.455  53.307  41.789  1.00  0.00    -0.267 OA
HETATM   19  H   UNL     1      35.615  51.261  44.088  1.00  0.00     0.169 HD
BRANCH  17  20
HETATM   20  C   UNL     1      37.500  52.942  43.845  1.00  0.00     0.033 A 
HETATM   21  C   UNL     1      38.209  51.928  44.487  1.00  0.00     0.019 A 
HETATM   22  C   UNL     1      39.217  52.252  45.404  1.00  0.00     0.031 A 
HETATM   23  C   UNL     1      39.525  53.593  45.708  1.00  0.00     0.044 A 
HETATM   24  C   UNL     1      38.759  54.624  45.124  1.00  0.00    -0.034 A 
HETATM   25  C   UNL     1      38.867  56.086  45.469  1.00  0.00     0.050 C 
HETATM   26  C   UNL     1      37.768  54.276  44.180  1.00  0.00     0.026 A 
BRANCH  23  27
HETATM   27  N   UNL     1      40.621  53.837  46.596  1.00  0.00    -0.332 N 
HETATM   28  C   UNL     1      40.541  53.926  47.977  1.00  0.00     0.096 A 
HETATM   29  C   UNL     1      41.800  54.140  48.495  1.00  0.00     0.019 A 
HETATM   30  C   UNL     1      42.697  54.156  47.410  1.00  0.00     0.019 A 
HETATM   31  C   UNL     1      41.956  53.955  46.266  1.00  0.00     0.096 A 
ENDBRANCH  23  27
ENDBRANCH  17  20
ENDBRANCH   1  16
BRANCH   6  32
HETATM   32  O   UNL     1      29.310  48.886  39.471  1.00  0.00    -0.346 OA
HETATM   33  H   UNL     1      28.512  48.711  39.999  1.00  0.00     0.219 HD
ENDBRANCH   6  32
TORSDOF 4
ENDMDL
