MODEL 1
REMARK VINA RESULT:      -9.7      0.000      0.000
REMARK  3 active torsions:
REMARK  status: ('A' for Active; 'I' for Inactive)
REMARK    1  A    between atoms: C_4  and  C_5 
REMARK    2  A    between atoms: C_9  and  C_10 
REMARK    3  A    between atoms: C_23  and  N_24 
ROOT
HETATM    1  C   UNL     1      28.156  43.973  53.173  1.00  0.00     0.070 A 
HETATM    2  N   UNL     1      27.949  42.710  52.741  1.00  0.00    -0.228 NA
HETATM    3  C   UNL     1      27.206  42.462  51.667  1.00  0.00     0.165 A 
HETATM    4  C   UNL     1      26.616  43.483  50.917  1.00  0.00     0.063 A 
HETATM    5  C   UNL     1      26.805  44.830  51.373  1.00  0.00    -0.006 A 
HETATM    6  C   UNL     1      27.591  45.050  52.513  1.00  0.00     0.046 A 
HETATM    7  N   UNL     1      27.086  41.179  51.364  1.00  0.00    -0.222 NA
HETATM    8  C   UNL     1      26.370  40.863  50.290  1.00  0.00     0.237 A 
HETATM    9  N   UNL     1      25.777  41.724  49.469  1.00  0.00    -0.229 NA
HETATM   10  C   UNL     1      25.917  43.018  49.780  1.00  0.00     0.117 A 
ENDROOT
BRANCH   5  11
HETATM   11  C   UNL     1      26.231  46.015  50.710  1.00  0.00    -0.022 A 
HETATM   12  C   UNL     1      27.016  46.822  49.867  1.00  0.00     0.052 A 
HETATM   13  C   UNL     1      26.432  47.929  49.285  1.00  0.00     0.105 A 
HETATM   14  C   UNL     1      25.110  48.242  49.488  1.00  0.00     0.105 A 
HETATM   15  O   UNL     1      27.058  48.825  48.476  1.00  0.00    -0.323 OA
HETATM   16  O   UNL     1      24.737  49.373  48.833  1.00  0.00    -0.323 OA
HETATM   17  C   UNL     1      24.296  47.466  50.281  1.00  0.00     0.040 A 
HETATM   18  C   UNL     1      25.987  49.759  48.223  1.00  0.00     0.352 A 
HETATM   19  C   UNL     1      24.865  46.346  50.897  1.00  0.00     0.015 A 
ENDBRANCH   5  11
BRANCH  10  20
HETATM   20  N   UNL     1      25.272  43.861  48.878  1.00  0.00    -0.286 NA
HETATM   21  H   UNL     1      25.938  44.573  48.588  1.00  0.00     0.125 HD
HETATM   22  H   UNL     1      24.425  44.267  49.257  1.00  0.00     0.125 HD
ENDBRANCH  10  20
BRANCH   1  23
HETATM   23  C   UNL     1      29.042  44.110  54.351  1.00  0.00    -0.007 A 
HETATM   24  C   UNL     1      29.975  43.102  54.663  1.00  0.00     0.014 A 
HETATM   25  C   UNL     1      30.839  43.212  55.757  1.00  0.00     0.001 A 
HETATM   26  C   UNL     1      30.787  44.337  56.571  1.00  0.00     0.000 A 
HETATM   27  C   UNL     1      29.868  45.345  56.297  1.00  0.00     0.001 A 
HETATM   28  C   UNL     1      29.004  45.231  55.202  1.00  0.00     0.014 A 
ENDBRANCH   1  23
TORSDOF 3
ENDMDL
MODEL 2
REMARK VINA RESULT:      -9.1      3.391      5.149
REMARK  3 active torsions:
REMARK  status: ('A' for Active; 'I' for Inactive)
REMARK    1  A    between atoms: C_4  and  C_5 
REMARK    2  A    between atoms: C_9  and  C_10 
REMARK    3  A    between atoms: C_23  and  N_24 
ROOT
HETATM    1  C   UNL     1      29.041  45.069  55.200  1.00  0.00     0.070 A 
HETATM    2  N   UNL     1      28.418  46.198  55.601  1.00  0.00    -0.228 NA
HETATM    3  C   UNL     1      27.403  46.708  54.911  1.00  0.00     0.165 A 
HETATM    4  C   UNL     1      26.912  46.103  53.751  1.00  0.00     0.063 A 
HETATM    5  C   UNL     1      27.576  44.915  53.295  1.00  0.00    -0.006 A 
HETATM    6  C   UNL     1      28.645  44.412  54.048  1.00  0.00     0.046 A 
HETATM    7  N   UNL     1      26.893  47.819  55.418  1.00  0.00    -0.222 NA
HETATM    8  C   UNL     1      25.863  48.372  54.786  1.00  0.00     0.237 A 
HETATM    9  N   UNL     1      25.275  47.895  53.693  1.00  0.00    -0.229 NA
HETATM   10  C   UNL     1      25.793  46.766  53.197  1.00  0.00     0.117 A 
ENDROOT
BRANCH   5  11
HETATM   11  C   UNL     1      27.197  44.173  52.079  1.00  0.00    -0.022 A 
HETATM   12  C   UNL     1      26.653  42.878  52.164  1.00  0.00     0.052 A 
HETATM   13  C   UNL     1      26.332  42.221  50.993  1.00  0.00     0.105 A 
HETATM   14  C   UNL     1      26.506  42.807  49.763  1.00  0.00     0.105 A 
HETATM   15  O   UNL     1      25.832  40.961  50.901  1.00  0.00    -0.323 OA
HETATM   16  O   UNL     1      26.137  41.989  48.741  1.00  0.00    -0.323 OA
HETATM   17  C   UNL     1      27.008  44.082  49.632  1.00  0.00     0.040 A 
HETATM   18  C   UNL     1      25.745  40.805  49.468  1.00  0.00     0.352 A 
HETATM   19  C   UNL     1      27.356  44.766  50.802  1.00  0.00     0.015 A 
ENDBRANCH   5  11
BRANCH  10  20
HETATM   20  N   UNL     1      25.127  46.325  52.055  1.00  0.00    -0.286 NA
HETATM   21  H   UNL     1      24.635  45.467  52.294  1.00  0.00     0.125 HD
HETATM   22  H   UNL     1      25.748  46.197  51.265  1.00  0.00     0.125 HD
ENDBRANCH  10  20
BRANCH   1  23
HETATM   23  C   UNL     1      30.122  44.585  56.086  1.00  0.00    -0.007 A 
HETATM   24  C   UNL     1      30.419  45.263  57.285  1.00  0.00     0.014 A 
HETATM   25  C   UNL     1      31.421  44.818  58.154  1.00  0.00     0.001 A 
HETATM   26  C   UNL     1      32.156  43.681  57.839  1.00  0.00     0.000 A 
HETATM   27  C   UNL     1      31.897  42.997  56.656  1.00  0.00     0.001 A 
HETATM   28  C   UNL     1      30.893  43.445  55.789  1.00  0.00     0.014 A 
ENDBRANCH   1  23
TORSDOF 3
ENDMDL
MODEL 3
REMARK VINA RESULT:      -9.0      2.288      3.140
REMARK  3 active torsions:
REMARK  status: ('A' for Active; 'I' for Inactive)
REMARK    1  A    between atoms: C_4  and  C_5 
REMARK    2  A    between atoms: C_9  and  C_10 
REMARK    3  A    between atoms: C_23  and  N_24 
ROOT
HETATM    1  C   UNL     1      28.660  43.063  53.399  1.00  0.00     0.070 A 
HETATM    2  N   UNL     1      29.155  41.850  53.071  1.00  0.00    -0.228 NA
HETATM    3  C   UNL     1      28.675  41.166  52.038  1.00  0.00     0.165 A 
HETATM    4  C   UNL     1      27.653  41.663  51.225  1.00  0.00     0.063 A 
HETATM    5  C   UNL     1      27.098  42.940  51.570  1.00  0.00    -0.006 A 
HETATM    6  C   UNL     1      27.628  43.628  52.671  1.00  0.00     0.046 A 
HETATM    7  N   UNL     1      29.252  39.991  51.838  1.00  0.00    -0.222 NA
HETATM    8  C   UNL     1      28.830  39.263  50.809  1.00  0.00     0.237 A 
HETATM    9  N   UNL     1      27.892  39.618  49.938  1.00  0.00    -0.229 NA
HETATM   10  C   UNL     1      27.325  40.813  50.144  1.00  0.00     0.117 A 
ENDROOT
BRANCH   5  11
HETATM   11  C   UNL     1      26.002  43.591  50.830  1.00  0.00    -0.022 A 
HETATM   12  C   UNL     1      24.662  43.227  51.057  1.00  0.00     0.052 A 
HETATM   13  C   UNL     1      23.676  43.856  50.323  1.00  0.00     0.105 A 
HETATM   14  C   UNL     1      23.969  44.837  49.407  1.00  0.00     0.105 A 
HETATM   15  O   UNL     1      22.343  43.599  50.398  1.00  0.00    -0.323 OA
HETATM   16  O   UNL     1      22.858  45.320  48.789  1.00  0.00    -0.323 OA
HETATM   17  C   UNL     1      25.262  45.246  49.172  1.00  0.00     0.040 A 
HETATM   18  C   UNL     1      21.833  44.503  49.396  1.00  0.00     0.352 A 
HETATM   19  C   UNL     1      26.284  44.614  49.890  1.00  0.00     0.015 A 
ENDBRANCH   5  11
BRANCH  10  20
HETATM   20  N   UNL     1      26.354  41.119  49.194  1.00  0.00    -0.286 NA
HETATM   21  H   UNL     1      26.178  42.120  49.241  1.00  0.00     0.125 HD
HETATM   22  H   UNL     1      25.505  40.579  49.314  1.00  0.00     0.125 HD
ENDBRANCH  10  20
BRANCH   1  23
HETATM   23  C   UNL     1      29.317  43.736  54.541  1.00  0.00    -0.007 A 
HETATM   24  C   UNL     1      30.428  43.145  55.174  1.00  0.00     0.014 A 
HETATM   25  C   UNL     1      31.083  43.766  56.242  1.00  0.00     0.001 A 
HETATM   26  C   UNL     1      30.637  44.997  56.708  1.00  0.00     0.000 A 
HETATM   27  C   UNL     1      29.534  45.601  56.113  1.00  0.00     0.001 A 
HETATM   28  C   UNL     1      28.881  44.977  55.044  1.00  0.00     0.014 A 
ENDBRANCH   1  23
TORSDOF 3
ENDMDL
MODEL 4
REMARK VINA RESULT:      -8.8      2.990      5.051
REMARK  3 active torsions:
REMARK  status: ('A' for Active; 'I' for Inactive)
REMARK    1  A    between atoms: C_4  and  C_5 
REMARK    2  A    between atoms: C_9  and  C_10 
REMARK    3  A    between atoms: C_23  and  N_24 
ROOT
HETATM    1  C   UNL     1      28.325  44.323  53.657  1.00  0.00     0.070 A 
HETATM    2  N   UNL     1      27.560  45.435  53.588  1.00  0.00    -0.228 NA
HETATM    3  C   UNL     1      26.626  45.572  52.653  1.00  0.00     0.165 A 
HETATM    4  C   UNL     1      26.369  44.578  51.705  1.00  0.00     0.063 A 
HETATM    5  C   UNL     1      27.186  43.400  51.747  1.00  0.00    -0.006 A 
HETATM    6  C   UNL     1      28.165  43.295  52.745  1.00  0.00     0.046 A 
HETATM    7  N   UNL     1      25.957  46.713  52.704  1.00  0.00    -0.222 NA
HETATM    8  C   UNL     1      24.996  46.907  51.807  1.00  0.00     0.237 A 
HETATM    9  N   UNL     1      24.622  46.043  50.869  1.00  0.00    -0.229 NA
HETATM   10  C   UNL     1      25.298  44.889  50.836  1.00  0.00     0.117 A 
ENDROOT
BRANCH   5  11
HETATM   11  C   UNL     1      27.058  42.273  50.805  1.00  0.00    -0.022 A 
HETATM   12  C   UNL     1      27.624  42.340  49.518  1.00  0.00     0.052 A 
HETATM   13  C   UNL     1      27.459  41.263  48.670  1.00  0.00     0.105 A 
HETATM   14  C   UNL     1      26.785  40.130  49.059  1.00  0.00     0.105 A 
HETATM   15  O   UNL     1      27.912  41.182  47.391  1.00  0.00    -0.323 OA
HETATM   16  O   UNL     1      26.729  39.195  48.075  1.00  0.00    -0.323 OA
HETATM   17  C   UNL     1      26.240  40.009  50.317  1.00  0.00     0.040 A 
HETATM   18  C   UNL     1      27.414  39.883  47.006  1.00  0.00     0.352 A 
HETATM   19  C   UNL     1      26.378  41.091  51.193  1.00  0.00     0.015 A 
ENDBRANCH   5  11
BRANCH  10  20
HETATM   20  N   UNL     1      24.852  44.033  49.831  1.00  0.00    -0.286 NA
HETATM   21  H   UNL     1      24.717  43.113  50.243  1.00  0.00     0.125 HD
HETATM   22  H   UNL     1      25.480  44.003  49.035  1.00  0.00     0.125 HD
ENDBRANCH  10  20
BRANCH   1  23
HETATM   23  C   UNL     1      29.293  44.280  54.775  1.00  0.00    -0.007 A 
HETATM   24  C   UNL     1      29.372  45.346  55.692  1.00  0.00     0.014 A 
HETATM   25  C   UNL     1      30.262  45.325  56.771  1.00  0.00     0.001 A 
HETATM   26  C   UNL     1      31.101  44.233  56.956  1.00  0.00     0.000 A 
HETATM   27  C   UNL     1      31.057  43.170  56.060  1.00  0.00     0.001 A 
HETATM   28  C   UNL     1      30.166  43.194  54.981  1.00  0.00     0.014 A 
ENDBRANCH   1  23
TORSDOF 3
ENDMDL
MODEL 5
REMARK VINA RESULT:      -8.8      2.023      2.864
REMARK  3 active torsions:
REMARK  status: ('A' for Active; 'I' for Inactive)
REMARK    1  A    between atoms: C_4  and  C_5 
REMARK    2  A    between atoms: C_9  and  C_10 
REMARK    3  A    between atoms: C_23  and  N_24 
ROOT
HETATM    1  C   UNL     1      26.277  45.563  52.711  1.00  0.00     0.070 A 
HETATM    2  N   UNL     1      25.701  44.360  52.496  1.00  0.00    -0.228 NA
HETATM    3  C   UNL     1      24.867  44.167  51.479  1.00  0.00     0.165 A 
HETATM    4  C   UNL     1      24.555  45.180  50.569  1.00  0.00     0.063 A 
HETATM    5  C   UNL     1      25.138  46.471  50.793  1.00  0.00    -0.006 A 
HETATM    6  C   UNL     1      26.008  46.637  51.880  1.00  0.00     0.046 A 
HETATM    7  N   UNL     1      24.375  42.941  51.394  1.00  0.00    -0.222 NA
HETATM    8  C   UNL     1      23.548  42.675  50.388  1.00  0.00     0.237 A 
HETATM    9  N   UNL     1      23.185  43.527  49.435  1.00  0.00    -0.229 NA
HETATM   10  C   UNL     1      23.699  44.759  49.525  1.00  0.00     0.117 A 
ENDROOT
BRANCH   5  11
HETATM   11  C   UNL     1      24.891  47.649  49.941  1.00  0.00    -0.022 A 
HETATM   12  C   UNL     1      23.585  48.134  49.742  1.00  0.00     0.052 A 
HETATM   13  C   UNL     1      23.409  49.229  48.920  1.00  0.00     0.105 A 
HETATM   14  C   UNL     1      24.469  49.863  48.320  1.00  0.00     0.105 A 
HETATM   15  O   UNL     1      22.216  49.798  48.600  1.00  0.00    -0.323 OA
HETATM   16  O   UNL     1      24.078  50.911  47.547  1.00  0.00    -0.323 OA
HETATM   17  C   UNL     1      25.766  49.442  48.508  1.00  0.00     0.040 A 
HETATM   18  C   UNL     1      22.644  50.841  47.699  1.00  0.00     0.352 A 
HETATM   19  C   UNL     1      25.973  48.324  49.324  1.00  0.00     0.015 A 
ENDBRANCH   5  11
BRANCH  10  20
HETATM   20  N   UNL     1      23.276  45.595  48.494  1.00  0.00    -0.286 NA
HETATM   21  H   UNL     1      23.608  45.200  47.618  1.00  0.00     0.125 HD
HETATM   22  H   UNL     1      23.583  46.553  48.617  1.00  0.00     0.125 HD
ENDBRANCH  10  20
BRANCH   1  23
HETATM   23  C   UNL     1      27.220  45.628  53.849  1.00  0.00    -0.007 A 
HETATM   24  C   UNL     1      28.169  44.605  54.048  1.00  0.00     0.014 A 
HETATM   25  C   UNL     1      29.087  44.648  55.102  1.00  0.00     0.001 A 
HETATM   26  C   UNL     1      29.075  45.718  55.989  1.00  0.00     0.000 A 
HETATM   27  C   UNL     1      28.141  46.737  55.828  1.00  0.00     0.001 A 
HETATM   28  C   UNL     1      27.224  46.691  54.772  1.00  0.00     0.014 A 
ENDBRANCH   1  23
TORSDOF 3
ENDMDL
MODEL 6
REMARK VINA RESULT:      -8.7      3.721      5.998
REMARK  3 active torsions:
REMARK  status: ('A' for Active; 'I' for Inactive)
REMARK    1  A    between atoms: C_4  and  C_5 
REMARK    2  A    between atoms: C_9  and  C_10 
REMARK    3  A    between atoms: C_23  and  N_24 
ROOT
HETATM    1  C   UNL     1      28.053  43.638  52.384  1.00  0.00     0.070 A 
HETATM    2  N   UNL     1      27.205  44.623  52.015  1.00  0.00    -0.228 NA
HETATM    3  C   UNL     1      26.416  44.491  50.954  1.00  0.00     0.165 A 
HETATM    4  C   UNL     1      26.402  43.331  50.175  1.00  0.00     0.063 A 
HETATM    5  C   UNL     1      27.313  42.283  50.537  1.00  0.00    -0.006 A 
HETATM    6  C   UNL     1      28.133  42.462  51.659  1.00  0.00     0.046 A 
HETATM    7  N   UNL     1      25.641  45.536  50.709  1.00  0.00    -0.222 NA
HETATM    8  C   UNL     1      24.814  45.462  49.671  1.00  0.00     0.237 A 
HETATM    9  N   UNL     1      24.672  44.417  48.862  1.00  0.00    -0.229 NA
HETATM   10  C   UNL     1      25.452  43.363  49.128  1.00  0.00     0.117 A 
ENDROOT
BRANCH   5  11
HETATM   11  C   UNL     1      27.439  41.009  49.805  1.00  0.00    -0.022 A 
HETATM   12  C   UNL     1      26.753  39.859  50.235  1.00  0.00     0.052 A 
HETATM   13  C   UNL     1      26.920  38.688  49.523  1.00  0.00     0.105 A 
HETATM   14  C   UNL     1      27.712  38.628  48.402  1.00  0.00     0.105 A 
HETATM   15  O   UNL     1      26.357  37.488  49.823  1.00  0.00    -0.323 OA
HETATM   16  O   UNL     1      27.748  37.384  47.856  1.00  0.00    -0.323 OA
HETATM   17  C   UNL     1      28.380  39.735  47.928  1.00  0.00     0.040 A 
HETATM   18  C   UNL     1      26.916  36.656  48.784  1.00  0.00     0.352 A 
HETATM   19  C   UNL     1      28.241  40.932  48.639  1.00  0.00     0.015 A 
ENDBRANCH   5  11
BRANCH  10  20
HETATM   20  N   UNL     1      25.249  42.306  48.243  1.00  0.00    -0.286 NA
HETATM   21  H   UNL     1      24.677  41.611  48.716  1.00  0.00     0.125 HD
HETATM   22  H   UNL     1      26.117  41.912  47.899  1.00  0.00     0.125 HD
ENDBRANCH  10  20
BRANCH   1  23
HETATM   23  C   UNL     1      28.838  43.897  53.611  1.00  0.00    -0.007 A 
HETATM   24  C   UNL     1      29.903  43.046  53.969  1.00  0.00     0.014 A 
HETATM   25  C   UNL     1      30.677  43.275  55.111  1.00  0.00     0.001 A 
HETATM   26  C   UNL     1      30.401  44.365  55.928  1.00  0.00     0.000 A 
HETATM   27  C   UNL     1      29.348  45.217  55.610  1.00  0.00     0.001 A 
HETATM   28  C   UNL     1      28.575  44.984  54.466  1.00  0.00     0.014 A 
ENDBRANCH   1  23
TORSDOF 3
ENDMDL
MODEL 7
REMARK VINA RESULT:      -8.7      3.784      6.119
REMARK  3 active torsions:
REMARK  status: ('A' for Active; 'I' for Inactive)
REMARK    1  A    between atoms: C_4  and  C_5 
REMARK    2  A    between atoms: C_9  and  C_10 
REMARK    3  A    between atoms: C_23  and  N_24 
ROOT
HETATM    1  C   UNL     1      25.435  46.732  50.888  1.00  0.00     0.070 A 
HETATM    2  N   UNL     1      26.425  47.556  50.483  1.00  0.00    -0.228 NA
HETATM    3  C   UNL     1      26.216  48.477  49.548  1.00  0.00     0.165 A 
HETATM    4  C   UNL     1      24.968  48.660  48.948  1.00  0.00     0.063 A 
HETATM    5  C   UNL     1      23.908  47.779  49.348  1.00  0.00    -0.006 A 
HETATM    6  C   UNL     1      24.170  46.816  50.332  1.00  0.00     0.046 A 
HETATM    7  N   UNL     1      27.277  49.210  49.248  1.00  0.00    -0.222 NA
HETATM    8  C   UNL     1      27.132  50.162  48.332  1.00  0.00     0.237 A 
HETATM    9  N   UNL     1      26.003  50.469  47.701  1.00  0.00    -0.229 NA
HETATM   10  C   UNL     1      24.935  49.729  48.023  1.00  0.00     0.117 A 
ENDROOT
BRANCH   5  11
HETATM   11  C   UNL     1      22.543  47.825  48.794  1.00  0.00    -0.022 A 
HETATM   12  C   UNL     1      21.591  48.731  49.295  1.00  0.00     0.052 A 
HETATM   13  C   UNL     1      20.322  48.720  48.752  1.00  0.00     0.105 A 
HETATM   14  C   UNL     1      19.979  47.872  47.727  1.00  0.00     0.105 A 
HETATM   15  O   UNL     1      19.282  49.504  49.144  1.00  0.00    -0.323 OA
HETATM   16  O   UNL     1      18.683  48.014  47.345  1.00  0.00    -0.323 OA
HETATM   17  C   UNL     1      20.885  46.988  47.185  1.00  0.00     0.040 A 
HETATM   18  C   UNL     1      18.235  49.026  48.273  1.00  0.00     0.352 A 
HETATM   19  C   UNL     1      22.175  46.967  47.727  1.00  0.00     0.015 A 
ENDBRANCH   5  11
BRANCH  10  20
HETATM   20  N   UNL     1      23.790  50.106  47.325  1.00  0.00    -0.286 NA
HETATM   21  H   UNL     1      23.061  50.301  48.007  1.00  0.00     0.125 HD
HETATM   22  H   UNL     1      23.498  49.412  46.647  1.00  0.00     0.125 HD
ENDBRANCH  10  20
BRANCH   1  23
HETATM   23  C   UNL     1      25.790  45.785  51.968  1.00  0.00    -0.007 A 
HETATM   24  C   UNL     1      25.736  46.188  53.316  1.00  0.00     0.014 A 
HETATM   25  C   UNL     1      26.046  45.311  54.360  1.00  0.00     0.001 A 
HETATM   26  C   UNL     1      26.424  44.003  54.078  1.00  0.00     0.000 A 
HETATM   27  C   UNL     1      26.500  43.578  52.755  1.00  0.00     0.001 A 
HETATM   28  C   UNL     1      26.189  44.459  51.713  1.00  0.00     0.014 A 
ENDBRANCH   1  23
TORSDOF 3
ENDMDL
MODEL 8
REMARK VINA RESULT:      -8.3      4.013      6.121
REMARK  3 active torsions:
REMARK  status: ('A' for Active; 'I' for Inactive)
REMARK    1  A    between atoms: C_4  and  C_5 
REMARK    2  A    between atoms: C_9  and  C_10 
REMARK    3  A    between atoms: C_23  and  N_24 
ROOT
HETATM    1  C   UNL     1      27.307  42.788  52.019  1.00  0.00     0.070 A 
HETATM    2  N   UNL     1      26.121  43.433  51.982  1.00  0.00    -0.228 NA
HETATM    3  C   UNL     1      25.180  43.096  51.105  1.00  0.00     0.165 A 
HETATM    4  C   UNL     1      25.352  42.053  50.191  1.00  0.00     0.063 A 
HETATM    5  C   UNL     1      26.614  41.371  50.199  1.00  0.00    -0.006 A 
HETATM    6  C   UNL     1      27.583  41.759  51.135  1.00  0.00     0.046 A 
HETATM    7  N   UNL     1      24.072  43.816  51.180  1.00  0.00    -0.222 NA
HETATM    8  C   UNL     1      23.084  43.520  50.343  1.00  0.00     0.237 A 
HETATM    9  N   UNL     1      23.094  42.541  49.444  1.00  0.00    -0.229 NA
HETATM   10  C   UNL     1      24.215  41.813  49.386  1.00  0.00     0.117 A 
ENDROOT
BRANCH   5  11
HETATM   11  C   UNL     1      26.962  40.267  49.285  1.00  0.00    -0.022 A 
HETATM   12  C   UNL     1      27.474  40.528  48.001  1.00  0.00     0.052 A 
HETATM   13  C   UNL     1      27.766  39.458  47.180  1.00  0.00     0.105 A 
HETATM   14  C   UNL     1      27.595  38.159  47.593  1.00  0.00     0.105 A 
HETATM   15  O   UNL     1      28.235  39.539  45.906  1.00  0.00    -0.323 OA
HETATM   16  O   UNL     1      27.933  37.259  46.632  1.00  0.00    -0.323 OA
HETATM   17  C   UNL     1      27.124  37.855  48.850  1.00  0.00     0.040 A 
HETATM   18  C   UNL     1      28.303  38.142  45.550  1.00  0.00     0.352 A 
HETATM   19  C   UNL     1      26.804  38.921  49.699  1.00  0.00     0.015 A 
ENDBRANCH   5  11
BRANCH  10  20
HETATM   20  N   UNL     1      24.154  40.806  48.425  1.00  0.00    -0.286 NA
HETATM   21  H   UNL     1      25.032  40.814  47.911  1.00  0.00     0.125 HD
HETATM   22  H   UNL     1      23.355  40.900  47.810  1.00  0.00     0.125 HD
ENDBRANCH  10  20
BRANCH   1  23
HETATM   23  C   UNL     1      28.244  43.232  53.074  1.00  0.00    -0.007 A 
HETATM   24  C   UNL     1      27.903  44.298  53.929  1.00  0.00     0.014 A 
HETATM   25  C   UNL     1      28.758  44.726  54.949  1.00  0.00     0.001 A 
HETATM   26  C   UNL     1      29.984  44.098  55.136  1.00  0.00     0.000 A 
HETATM   27  C   UNL     1      30.356  43.050  54.300  1.00  0.00     0.001 A 
HETATM   28  C   UNL     1      29.497  42.624  53.280  1.00  0.00     0.014 A 
ENDBRANCH   1  23
TORSDOF 3
ENDMDL
MODEL 9
REMARK VINA RESULT:      -7.8      1.858      5.258
REMARK  3 active torsions:
REMARK  status: ('A' for Active; 'I' for Inactive)
REMARK    1  A    between atoms: C_4  and  C_5 
REMARK    2  A    between atoms: C_9  and  C_10 
REMARK    3  A    between atoms: C_23  and  N_24 
ROOT
HETATM    1  C   UNL     1      27.325  41.231  50.257  1.00  0.00     0.070 A 
HETATM    2  N   UNL     1      27.984  40.968  51.407  1.00  0.00    -0.228 NA
HETATM    3  C   UNL     1      28.180  41.914  52.320  1.00  0.00     0.165 A 
HETATM    4  C   UNL     1      27.705  43.218  52.157  1.00  0.00     0.063 A 
HETATM    5  C   UNL     1      27.023  43.523  50.933  1.00  0.00    -0.006 A 
HETATM    6  C   UNL     1      26.841  42.500  49.991  1.00  0.00     0.046 A 
HETATM    7  N   UNL     1      28.844  41.515  53.394  1.00  0.00    -0.222 NA
HETATM    8  C   UNL     1      29.059  42.407  54.355  1.00  0.00     0.237 A 
HETATM    9  N   UNL     1      28.643  43.670  54.351  1.00  0.00    -0.229 NA
HETATM   10  C   UNL     1      27.963  44.057  53.266  1.00  0.00     0.117 A 
ENDROOT
BRANCH   5  11
HETATM   11  C   UNL     1      26.484  44.853  50.597  1.00  0.00    -0.022 A 
HETATM   12  C   UNL     1      27.240  45.769  49.842  1.00  0.00     0.052 A 
HETATM   13  C   UNL     1      26.694  47.007  49.572  1.00  0.00     0.105 A 
HETATM   14  C   UNL     1      25.434  47.353  49.996  1.00  0.00     0.105 A 
HETATM   15  O   UNL     1      27.303  48.012  48.887  1.00  0.00    -0.323 OA
HETATM   16  O   UNL     1      25.091  48.617  49.633  1.00  0.00    -0.323 OA
HETATM   17  C   UNL     1      24.647  46.480  50.713  1.00  0.00     0.040 A 
HETATM   18  C   UNL     1      26.296  49.043  48.962  1.00  0.00     0.352 A 
HETATM   19  C   UNL     1      25.181  45.222  51.015  1.00  0.00     0.015 A 
ENDBRANCH   5  11
BRANCH  10  20
HETATM   20  N   UNL     1      27.558  45.388  53.331  1.00  0.00    -0.286 NA
HETATM   21  H   UNL     1      26.542  45.406  53.308  1.00  0.00     0.125 HD
HETATM   22  H   UNL     1      27.964  45.957  52.597  1.00  0.00     0.125 HD
ENDBRANCH  10  20
BRANCH   1  23
HETATM   23  C   UNL     1      27.136  40.078  49.350  1.00  0.00    -0.007 A 
HETATM   24  C   UNL     1      26.087  40.075  48.409  1.00  0.00     0.014 A 
HETATM   25  C   UNL     1      25.895  39.010  47.524  1.00  0.00     0.001 A 
HETATM   26  C   UNL     1      26.749  37.914  47.562  1.00  0.00     0.000 A 
HETATM   27  C   UNL     1      27.786  37.880  48.489  1.00  0.00     0.001 A 
HETATM   28  C   UNL     1      27.976  38.948  49.373  1.00  0.00     0.014 A 
ENDBRANCH   1  23
TORSDOF 3
ENDMDL
MODEL 10
REMARK VINA RESULT:      -7.7      3.429      5.524
REMARK  3 active torsions:
REMARK  status: ('A' for Active; 'I' for Inactive)
REMARK    1  A    between atoms: C_4  and  C_5 
REMARK    2  A    between atoms: C_9  and  C_10 
REMARK    3  A    between atoms: C_23  and  N_24 
ROOT
HETATM    1  C   UNL     1      26.309  45.375  52.280  1.00  0.00     0.070 A 
HETATM    2  N   UNL     1      25.423  46.180  51.653  1.00  0.00    -0.228 NA
HETATM    3  C   UNL     1      24.817  45.796  50.534  1.00  0.00     0.165 A 
HETATM    4  C   UNL     1      25.041  44.544  49.956  1.00  0.00     0.063 A 
HETATM    5  C   UNL     1      25.995  43.685  50.595  1.00  0.00    -0.006 A 
HETATM    6  C   UNL     1      26.619  44.127  51.770  1.00  0.00     0.046 A 
HETATM    7  N   UNL     1      23.979  46.688  50.028  1.00  0.00    -0.222 NA
HETATM    8  C   UNL     1      23.325  46.360  48.918  1.00  0.00     0.237 A 
HETATM    9  N   UNL     1      23.415  45.200  48.276  1.00  0.00    -0.229 NA
HETATM   10  C   UNL     1      24.256  44.304  48.805  1.00  0.00     0.117 A 
ENDROOT
BRANCH   5  11
HETATM   11  C   UNL     1      26.362  42.345  50.099  1.00  0.00    -0.022 A 
HETATM   12  C   UNL     1      27.276  42.193  49.041  1.00  0.00     0.052 A 
HETATM   13  C   UNL     1      27.571  40.917  48.604  1.00  0.00     0.105 A 
HETATM   14  C   UNL     1      27.017  39.805  49.189  1.00  0.00     0.105 A 
HETATM   15  O   UNL     1      28.404  40.601  47.577  1.00  0.00    -0.323 OA
HETATM   16  O   UNL     1      27.431  38.649  48.605  1.00  0.00    -0.323 OA
HETATM   17  C   UNL     1      26.139  39.903  50.245  1.00  0.00     0.040 A 
HETATM   18  C   UNL     1      28.282  39.163  47.558  1.00  0.00     0.352 A 
HETATM   19  C   UNL     1      25.811  41.186  50.699  1.00  0.00     0.015 A 
ENDBRANCH   5  11
BRANCH  10  20
HETATM   20  N   UNL     1      24.299  43.114  48.082  1.00  0.00    -0.286 NA
HETATM   21  H   UNL     1      23.584  43.163  47.360  1.00  0.00     0.125 HD
HETATM   22  H   UNL     1      24.187  42.295  48.669  1.00  0.00     0.125 HD
ENDBRANCH  10  20
BRANCH   1  23
HETATM   23  C   UNL     1      26.874  45.906  53.541  1.00  0.00    -0.007 A 
HETATM   24  C   UNL     1      27.777  45.133  54.298  1.00  0.00     0.014 A 
HETATM   25  C   UNL     1      28.344  45.615  55.482  1.00  0.00     0.001 A 
HETATM   26  C   UNL     1      28.018  46.885  55.941  1.00  0.00     0.000 A 
HETATM   27  C   UNL     1      27.119  47.668  55.223  1.00  0.00     0.001 A 
HETATM   28  C   UNL     1      26.553  47.183  54.038  1.00  0.00     0.014 A 
ENDBRANCH   1  23
TORSDOF 3
ENDMDL
