MODEL 1
REMARK VINA RESULT:     -10.2      0.000      0.000
REMARK  8 active torsions:
REMARK  status: ('A' for Active; 'I' for Inactive)
REMARK    1  A    between atoms: C_4  and  C_5 
REMARK    2  A    between atoms: C_5  and  N_6 
REMARK    3  A    between atoms: N_10  and  C_12 
REMARK    4  A    between atoms: C_12  and  C_13 
REMARK       I    between atoms: C_13  and  N_14 
REMARK    5  A    between atoms: N_14  and  C_15 
REMARK    6  A    between atoms: C_17  and  S_18 
REMARK    7  A    between atoms: S_18  and  C_19 
REMARK    8  A    between atoms: C_22  and  N_23 
ROOT
HETATM    1  C   UNL     1      25.787  45.100  49.974  1.00  0.00     0.249 C 
HETATM    2  N   UNL     1      24.457  45.357  50.171  1.00  0.00    -0.304 N 
HETATM    3  O   UNL     1      26.599  45.700  49.268  1.00  0.00    -0.271 OA
HETATM    4  H   UNL     1      23.870  44.833  50.808  1.00  0.00     0.171 HD
ENDROOT
BRANCH   2   5
HETATM    5  C   UNL     1      23.795  46.306  49.437  1.00  0.00     0.174 A 
HETATM    6  S   UNL     1      24.383  47.888  49.656  1.00  0.00    -0.038 SA
HETATM    7  C   UNL     1      23.121  48.474  48.656  1.00  0.00     0.125 A 
HETATM    8  C   UNL     1      22.371  47.409  48.199  1.00  0.00     0.151 A 
HETATM    9  N   UNL     1      22.777  46.157  48.636  1.00  0.00    -0.234 NA
BRANCH   7  10
HETATM   10  S   UNL     1      22.970  50.219  48.424  1.00  0.00     0.214 S 
HETATM   11  O   UNL     1      23.683  50.785  49.550  1.00  0.00    -0.217 OA
HETATM   12  O   UNL     1      23.350  50.492  47.053  1.00  0.00    -0.217 OA
BRANCH  10  13
HETATM   13  C   UNL     1      21.243  50.578  48.614  1.00  0.00     0.065 A 
HETATM   14  C   UNL     1      20.393  50.485  47.507  1.00  0.00     0.026 A 
HETATM   15  C   UNL     1      19.028  50.742  47.658  1.00  0.00     0.037 A 
HETATM   16  C   UNL     1      18.521  51.076  48.923  1.00  0.00     0.102 A 
HETATM   17  C   UNL     1      19.371  51.146  50.037  1.00  0.00     0.037 A 
HETATM   18  C   UNL     1      20.738  50.891  49.883  1.00  0.00     0.026 A 
BRANCH  16  19
HETATM   19  N   UNL     1      17.088  51.363  49.081  1.00  0.00    -0.116 N 
HETATM   20  O   UNL     1      16.764  52.227  49.907  1.00  0.00    -0.532 OA
HETATM   21  O   UNL     1      16.294  50.701  48.400  1.00  0.00    -0.532 OA
ENDBRANCH  16  19
ENDBRANCH  10  13
ENDBRANCH   7  10
ENDBRANCH   2   5
BRANCH   1  22
HETATM   22  C   UNL     1      26.329  43.897  50.748  1.00  0.00     0.337 C 
BRANCH  22  23
HETATM   23  N   UNL     1      26.267  44.194  52.273  1.00  0.00    -0.060 N 
HETATM   24  C   UNL     1      27.214  43.294  53.068  1.00  0.00     0.263 C 
HETATM   25  C   UNL     1      27.115  43.584  54.582  1.00  0.00     0.263 C 
HETATM   26  N   UNL     1      27.328  45.068  54.885  1.00  0.00    -0.064 N 
HETATM   27  H   UNL     1      27.109  45.175  55.889  1.00  0.00     0.280 HD
HETATM   28  C   UNL     1      26.334  45.938  54.125  1.00  0.00     0.263 C 
HETATM   29  C   UNL     1      26.379  45.672  52.595  1.00  0.00     0.263 C 
HETATM   30  H   UNL     1      25.303  43.866  52.505  1.00  0.00     0.280 HD
BRANCH  26  31
HETATM   31  C   UNL     1      28.764  45.570  54.774  1.00  0.00     0.273 C 
BRANCH  31  32
HETATM   32  C   UNL     1      29.635  45.192  55.934  1.00  0.00    -0.033 A 
HETATM   33  C   UNL     1      29.506  45.855  57.166  1.00  0.00     0.009 A 
HETATM   34  C   UNL     1      30.329  45.520  58.241  1.00  0.00     0.001 A 
HETATM   35  C   UNL     1      31.287  44.518  58.098  1.00  0.00     0.000 A 
HETATM   36  C   UNL     1      31.417  43.845  56.887  1.00  0.00     0.001 A 
HETATM   37  C   UNL     1      30.595  44.174  55.809  1.00  0.00     0.009 A 
ENDBRANCH  31  32
ENDBRANCH  26  31
ENDBRANCH  22  23
ENDBRANCH   1  22
TORSDOF 8
ENDMDL
MODEL 2
REMARK VINA RESULT:      -9.8      1.462      2.318
REMARK  8 active torsions:
REMARK  status: ('A' for Active; 'I' for Inactive)
REMARK    1  A    between atoms: C_4  and  C_5 
REMARK    2  A    between atoms: C_5  and  N_6 
REMARK    3  A    between atoms: N_10  and  C_12 
REMARK    4  A    between atoms: C_12  and  C_13 
REMARK       I    between atoms: C_13  and  N_14 
REMARK    5  A    between atoms: N_14  and  C_15 
REMARK    6  A    between atoms: C_17  and  S_18 
REMARK    7  A    between atoms: S_18  and  C_19 
REMARK    8  A    between atoms: C_22  and  N_23 
ROOT
HETATM    1  C   UNL     1      24.069  43.881  49.308  1.00  0.00     0.249 C 
HETATM    2  N   UNL     1      23.552  44.984  49.932  1.00  0.00    -0.304 N 
HETATM    3  O   UNL     1      24.304  43.700  48.112  1.00  0.00    -0.271 OA
HETATM    4  H   UNL     1      23.432  45.060  50.934  1.00  0.00     0.171 HD
ENDROOT
BRANCH   2   5
HETATM    5  C   UNL     1      23.070  46.049  49.217  1.00  0.00     0.174 A 
HETATM    6  S   UNL     1      23.835  47.527  49.572  1.00  0.00    -0.038 SA
HETATM    7  C   UNL     1      22.732  48.325  48.531  1.00  0.00     0.125 A 
HETATM    8  C   UNL     1      21.889  47.393  47.961  1.00  0.00     0.151 A 
HETATM    9  N   UNL     1      22.101  46.077  48.344  1.00  0.00    -0.234 NA
BRANCH   7  10
HETATM   10  S   UNL     1      22.820  50.085  48.400  1.00  0.00     0.214 S 
HETATM   11  O   UNL     1      23.560  50.488  49.577  1.00  0.00    -0.217 OA
HETATM   12  O   UNL     1      23.281  50.381  47.060  1.00  0.00    -0.217 OA
BRANCH  10  13
HETATM   13  C   UNL     1      21.148  50.659  48.563  1.00  0.00     0.065 A 
HETATM   14  C   UNL     1      20.688  51.096  49.810  1.00  0.00     0.026 A 
HETATM   15  C   UNL     1      19.381  51.573  49.937  1.00  0.00     0.037 A 
HETATM   16  C   UNL     1      18.547  51.621  48.809  1.00  0.00     0.102 A 
HETATM   17  C   UNL     1      19.018  51.202  47.555  1.00  0.00     0.037 A 
HETATM   18  C   UNL     1      20.326  50.724  47.431  1.00  0.00     0.026 A 
BRANCH  16  19
HETATM   19  N   UNL     1      17.166  52.106  48.944  1.00  0.00    -0.116 N 
HETATM   20  O   UNL     1      16.828  52.575  50.039  1.00  0.00    -0.532 OA
HETATM   21  O   UNL     1      16.421  51.990  47.962  1.00  0.00    -0.532 OA
ENDBRANCH  16  19
ENDBRANCH  10  13
ENDBRANCH   7  10
ENDBRANCH   2   5
BRANCH   1  22
HETATM   22  C   UNL     1      24.401  42.714  50.241  1.00  0.00     0.337 C 
BRANCH  22  23
HETATM   23  N   UNL     1      25.935  42.674  50.491  1.00  0.00    -0.060 N 
HETATM   24  C   UNL     1      26.422  43.912  51.245  1.00  0.00     0.263 C 
HETATM   25  C   UNL     1      27.952  43.866  51.458  1.00  0.00     0.263 C 
HETATM   26  N   UNL     1      28.388  42.564  52.131  1.00  0.00    -0.064 N 
HETATM   27  H   UNL     1      29.420  42.575  52.102  1.00  0.00     0.280 HD
HETATM   28  C   UNL     1      27.939  41.348  51.329  1.00  0.00     0.263 C 
HETATM   29  C   UNL     1      26.408  41.354  51.070  1.00  0.00     0.263 C 
HETATM   30  H   UNL     1      26.303  42.771  49.519  1.00  0.00     0.280 HD
BRANCH  26  31
HETATM   31  C   UNL     1      28.070  42.446  53.618  1.00  0.00     0.273 C 
BRANCH  31  32
HETATM   32  C   UNL     1      28.848  43.389  54.486  1.00  0.00    -0.033 A 
HETATM   33  C   UNL     1      28.294  44.623  54.870  1.00  0.00     0.009 A 
HETATM   34  C   UNL     1      29.024  45.510  55.661  1.00  0.00     0.001 A 
HETATM   35  C   UNL     1      30.310  45.176  56.078  1.00  0.00     0.000 A 
HETATM   36  C   UNL     1      30.865  43.952  55.716  1.00  0.00     0.001 A 
HETATM   37  C   UNL     1      30.139  43.058  54.927  1.00  0.00     0.009 A 
ENDBRANCH  31  32
ENDBRANCH  26  31
ENDBRANCH  22  23
ENDBRANCH   1  22
TORSDOF 8
ENDMDL
MODEL 3
REMARK VINA RESULT:      -9.8      1.960      2.441
REMARK  8 active torsions:
REMARK  status: ('A' for Active; 'I' for Inactive)
REMARK    1  A    between atoms: C_4  and  C_5 
REMARK    2  A    between atoms: C_5  and  N_6 
REMARK    3  A    between atoms: N_10  and  C_12 
REMARK    4  A    between atoms: C_12  and  C_13 
REMARK       I    between atoms: C_13  and  N_14 
REMARK    5  A    between atoms: N_14  and  C_15 
REMARK    6  A    between atoms: C_17  and  S_18 
REMARK    7  A    between atoms: S_18  and  C_19 
REMARK    8  A    between atoms: C_22  and  N_23 
ROOT
HETATM    1  C   UNL     1      26.527  44.433  50.127  1.00  0.00     0.249 C 
HETATM    2  N   UNL     1      25.335  45.105  50.165  1.00  0.00    -0.304 N 
HETATM    3  O   UNL     1      27.664  44.874  49.954  1.00  0.00    -0.271 OA
HETATM    4  H   UNL     1      24.445  44.663  50.356  1.00  0.00     0.171 HD
ENDROOT
BRANCH   2   5
HETATM    5  C   UNL     1      25.254  46.437  49.853  1.00  0.00     0.174 A 
HETATM    6  S   UNL     1      23.670  46.989  49.573  1.00  0.00    -0.038 SA
HETATM    7  C   UNL     1      24.301  48.523  49.143  1.00  0.00     0.125 A 
HETATM    8  C   UNL     1      25.674  48.506  49.286  1.00  0.00     0.151 A 
HETATM    9  N   UNL     1      26.218  47.305  49.717  1.00  0.00    -0.234 NA
BRANCH   7  10
HETATM   10  S   UNL     1      23.181  49.770  48.586  1.00  0.00     0.214 S 
HETATM   11  O   UNL     1      23.176  50.742  49.659  1.00  0.00    -0.217 OA
HETATM   12  O   UNL     1      23.575  50.113  47.236  1.00  0.00    -0.217 OA
BRANCH  10  13
HETATM   13  C   UNL     1      21.588  48.989  48.529  1.00  0.00     0.065 A 
HETATM   14  C   UNL     1      20.645  49.273  49.523  1.00  0.00     0.026 A 
HETATM   15  C   UNL     1      19.381  48.680  49.467  1.00  0.00     0.037 A 
HETATM   16  C   UNL     1      19.065  47.817  48.407  1.00  0.00     0.102 A 
HETATM   17  C   UNL     1      20.005  47.551  47.399  1.00  0.00     0.037 A 
HETATM   18  C   UNL     1      21.270  48.144  47.458  1.00  0.00     0.026 A 
BRANCH  16  19
HETATM   19  N   UNL     1      17.742  47.179  48.356  1.00  0.00    -0.116 N 
HETATM   20  O   UNL     1      16.823  47.716  48.988  1.00  0.00    -0.532 OA
HETATM   21  O   UNL     1      17.638  46.130  47.706  1.00  0.00    -0.532 OA
ENDBRANCH  16  19
ENDBRANCH  10  13
ENDBRANCH   7  10
ENDBRANCH   2   5
BRANCH   1  22
HETATM   22  C   UNL     1      26.417  42.921  50.332  1.00  0.00     0.337 C 
BRANCH  22  23
HETATM   23  N   UNL     1      26.766  42.573  51.806  1.00  0.00    -0.060 N 
HETATM   24  C   UNL     1      28.158  41.950  51.930  1.00  0.00     0.263 C 
HETATM   25  C   UNL     1      28.474  41.585  53.398  1.00  0.00     0.263 C 
HETATM   26  N   UNL     1      28.286  42.784  54.329  1.00  0.00    -0.064 N 
HETATM   27  H   UNL     1      28.386  42.406  55.284  1.00  0.00     0.280 HD
HETATM   28  C   UNL     1      26.874  43.349  54.227  1.00  0.00     0.263 C 
HETATM   29  C   UNL     1      26.497  43.716  52.765  1.00  0.00     0.263 C 
HETATM   30  H   UNL     1      26.092  41.799  51.999  1.00  0.00     0.280 HD
BRANCH  26  31
HETATM   31  C   UNL     1      29.363  43.861  54.252  1.00  0.00     0.273 C 
BRANCH  31  32
HETATM   32  C   UNL     1      30.044  44.138  55.559  1.00  0.00    -0.033 A 
HETATM   33  C   UNL     1      29.738  45.301  56.287  1.00  0.00     0.009 A 
HETATM   34  C   UNL     1      30.385  45.571  57.492  1.00  0.00     0.001 A 
HETATM   35  C   UNL     1      31.341  44.685  57.985  1.00  0.00     0.000 A 
HETATM   36  C   UNL     1      31.644  43.524  57.279  1.00  0.00     0.001 A 
HETATM   37  C   UNL     1      30.999  43.246  56.074  1.00  0.00     0.009 A 
ENDBRANCH  31  32
ENDBRANCH  26  31
ENDBRANCH  22  23
ENDBRANCH   1  22
TORSDOF 8
ENDMDL
MODEL 4
REMARK VINA RESULT:      -9.7      3.324     11.976
REMARK  8 active torsions:
REMARK  status: ('A' for Active; 'I' for Inactive)
REMARK    1  A    between atoms: C_4  and  C_5 
REMARK    2  A    between atoms: C_5  and  N_6 
REMARK    3  A    between atoms: N_10  and  C_12 
REMARK    4  A    between atoms: C_12  and  C_13 
REMARK       I    between atoms: C_13  and  N_14 
REMARK    5  A    between atoms: N_14  and  C_15 
REMARK    6  A    between atoms: C_17  and  S_18 
REMARK    7  A    between atoms: S_18  and  C_19 
REMARK    8  A    between atoms: C_22  and  N_23 
ROOT
HETATM    1  C   UNL     1      23.914  47.334  49.657  1.00  0.00     0.249 C 
HETATM    2  N   UNL     1      23.790  46.026  49.273  1.00  0.00    -0.304 N 
HETATM    3  O   UNL     1      24.547  47.812  50.599  1.00  0.00    -0.271 OA
HETATM    4  H   UNL     1      23.278  45.725  48.453  1.00  0.00     0.171 HD
ENDROOT
BRANCH   2   5
HETATM    5  C   UNL     1      24.286  45.005  50.041  1.00  0.00     0.174 A 
HETATM    6  S   UNL     1      25.909  44.615  49.711  1.00  0.00    -0.038 SA
HETATM    7  C   UNL     1      25.800  43.311  50.817  1.00  0.00     0.125 A 
HETATM    8  C   UNL     1      24.541  43.299  51.384  1.00  0.00     0.151 A 
HETATM    9  N   UNL     1      23.677  44.293  50.948  1.00  0.00    -0.234 NA
BRANCH   7  10
HETATM   10  S   UNL     1      27.197  42.246  51.007  1.00  0.00     0.214 S 
HETATM   11  O   UNL     1      26.619  40.969  51.366  1.00  0.00    -0.217 OA
HETATM   12  O   UNL     1      28.015  42.418  49.824  1.00  0.00    -0.217 OA
BRANCH  10  13
HETATM   13  C   UNL     1      28.088  42.874  52.407  1.00  0.00     0.065 A 
HETATM   14  C   UNL     1      29.339  42.335  52.727  1.00  0.00     0.026 A 
HETATM   15  C   UNL     1      30.055  42.844  53.813  1.00  0.00     0.037 A 
HETATM   16  C   UNL     1      29.519  43.900  54.565  1.00  0.00     0.102 A 
HETATM   17  C   UNL     1      28.274  44.455  54.229  1.00  0.00     0.037 A 
HETATM   18  C   UNL     1      27.558  43.943  53.142  1.00  0.00     0.026 A 
BRANCH  16  19
HETATM   19  N   UNL     1      30.263  44.427  55.718  1.00  0.00    -0.116 N 
HETATM   20  O   UNL     1      31.319  43.859  56.025  1.00  0.00    -0.532 OA
HETATM   21  O   UNL     1      29.771  45.386  56.326  1.00  0.00    -0.532 OA
ENDBRANCH  16  19
ENDBRANCH  10  13
ENDBRANCH   7  10
ENDBRANCH   2   5
BRANCH   1  22
HETATM   22  C   UNL     1      23.156  48.334  48.781  1.00  0.00     0.337 C 
BRANCH  22  23
HETATM   23  N   UNL     1      21.941  48.894  49.571  1.00  0.00    -0.060 N 
HETATM   24  C   UNL     1      21.941  50.423  49.609  1.00  0.00     0.263 C 
HETATM   25  C   UNL     1      20.743  50.959  50.424  1.00  0.00     0.263 C 
HETATM   26  N   UNL     1      19.418  50.389  49.916  1.00  0.00    -0.064 N 
HETATM   27  H   UNL     1      18.709  50.697  50.601  1.00  0.00     0.280 HD
HETATM   28  C   UNL     1      19.423  48.865  49.943  1.00  0.00     0.263 C 
HETATM   29  C   UNL     1      20.622  48.273  49.152  1.00  0.00     0.263 C 
HETATM   30  H   UNL     1      22.169  48.586  50.543  1.00  0.00     0.280 HD
BRANCH  26  31
HETATM   31  C   UNL     1      18.913  50.959  48.595  1.00  0.00     0.273 C 
BRANCH  31  32
HETATM   32  C   UNL     1      17.630  51.727  48.710  1.00  0.00    -0.033 A 
HETATM   33  C   UNL     1      17.331  52.439  49.884  1.00  0.00     0.009 A 
HETATM   34  C   UNL     1      16.129  53.137  50.003  1.00  0.00     0.001 A 
HETATM   35  C   UNL     1      15.216  53.134  48.951  1.00  0.00     0.000 A 
HETATM   36  C   UNL     1      15.505  52.443  47.778  1.00  0.00     0.001 A 
HETATM   37  C   UNL     1      16.707  51.745  47.653  1.00  0.00     0.009 A 
ENDBRANCH  31  32
ENDBRANCH  26  31
ENDBRANCH  22  23
ENDBRANCH   1  22
TORSDOF 8
ENDMDL
MODEL 5
REMARK VINA RESULT:      -9.2      2.705      3.046
REMARK  8 active torsions:
REMARK  status: ('A' for Active; 'I' for Inactive)
REMARK    1  A    between atoms: C_4  and  C_5 
REMARK    2  A    between atoms: C_5  and  N_6 
REMARK    3  A    between atoms: N_10  and  C_12 
REMARK    4  A    between atoms: C_12  and  C_13 
REMARK       I    between atoms: C_13  and  N_14 
REMARK    5  A    between atoms: N_14  and  C_15 
REMARK    6  A    between atoms: C_17  and  S_18 
REMARK    7  A    between atoms: S_18  and  C_19 
REMARK    8  A    between atoms: C_22  and  N_23 
ROOT
HETATM    1  C   UNL     1      24.607  44.960  50.465  1.00  0.00     0.249 C 
HETATM    2  N   UNL     1      24.523  45.156  49.113  1.00  0.00    -0.304 N 
HETATM    3  O   UNL     1      23.829  44.370  51.216  1.00  0.00    -0.271 OA
HETATM    4  H   UNL     1      25.237  45.622  48.566  1.00  0.00     0.171 HD
ENDROOT
BRANCH   2   5
HETATM    5  C   UNL     1      23.401  44.808  48.408  1.00  0.00     0.174 A 
HETATM    6  S   UNL     1      22.181  45.994  48.414  1.00  0.00    -0.038 SA
HETATM    7  C   UNL     1      21.157  44.917  47.561  1.00  0.00     0.125 A 
HETATM    8  C   UNL     1      21.843  43.746  47.303  1.00  0.00     0.151 A 
HETATM    9  N   UNL     1      23.146  43.697  47.775  1.00  0.00    -0.234 NA
BRANCH   7  10
HETATM   10  S   UNL     1      19.501  45.424  47.216  1.00  0.00     0.214 S 
HETATM   11  O   UNL     1      19.439  45.460  45.769  1.00  0.00    -0.217 OA
HETATM   12  O   UNL     1      18.631  44.575  48.004  1.00  0.00    -0.217 OA
BRANCH  10  13
HETATM   13  C   UNL     1      19.374  47.086  47.825  1.00  0.00     0.065 A 
HETATM   14  C   UNL     1      19.748  48.153  47.001  1.00  0.00     0.026 A 
HETATM   15  C   UNL     1      19.625  49.464  47.468  1.00  0.00     0.037 A 
HETATM   16  C   UNL     1      19.115  49.698  48.754  1.00  0.00     0.102 A 
HETATM   17  C   UNL     1      18.720  48.627  49.570  1.00  0.00     0.037 A 
HETATM   18  C   UNL     1      18.845  47.316  49.102  1.00  0.00     0.026 A 
BRANCH  16  19
HETATM   19  N   UNL     1      19.001  51.076  49.253  1.00  0.00    -0.116 N 
HETATM   20  O   UNL     1      19.588  51.964  48.622  1.00  0.00    -0.532 OA
HETATM   21  O   UNL     1      18.347  51.256  50.289  1.00  0.00    -0.532 OA
ENDBRANCH  16  19
ENDBRANCH  10  13
ENDBRANCH   7  10
ENDBRANCH   2   5
BRANCH   1  22
HETATM   22  C   UNL     1      25.851  45.561  51.124  1.00  0.00     0.337 C 
BRANCH  22  23
HETATM   23  N   UNL     1      26.266  44.685  52.339  1.00  0.00    -0.060 N 
HETATM   24  C   UNL     1      27.401  43.722  51.985  1.00  0.00     0.263 C 
HETATM   25  C   UNL     1      27.779  42.840  53.196  1.00  0.00     0.263 C 
HETATM   26  N   UNL     1      28.094  43.686  54.431  1.00  0.00    -0.064 N 
HETATM   27  H   UNL     1      28.198  43.009  55.205  1.00  0.00     0.280 HD
HETATM   28  C   UNL     1      26.925  44.593  54.795  1.00  0.00     0.263 C 
HETATM   29  C   UNL     1      26.492  45.491  53.604  1.00  0.00     0.263 C 
HETATM   30  H   UNL     1      25.417  44.089  52.461  1.00  0.00     0.280 HD
BRANCH  26  31
HETATM   31  C   UNL     1      29.432  44.418  54.410  1.00  0.00     0.273 C 
BRANCH  31  32
HETATM   32  C   UNL     1      30.155  44.407  55.724  1.00  0.00    -0.033 A 
HETATM   33  C   UNL     1      29.977  45.456  56.643  1.00  0.00     0.009 A 
HETATM   34  C   UNL     1      30.664  45.458  57.856  1.00  0.00     0.001 A 
HETATM   35  C   UNL     1      31.532  44.415  58.167  1.00  0.00     0.000 A 
HETATM   36  C   UNL     1      31.709  43.363  57.271  1.00  0.00     0.001 A 
HETATM   37  C   UNL     1      31.022  43.354  56.057  1.00  0.00     0.009 A 
ENDBRANCH  31  32
ENDBRANCH  26  31
ENDBRANCH  22  23
ENDBRANCH   1  22
TORSDOF 8
ENDMDL
MODEL 6
REMARK VINA RESULT:      -9.0      5.400      9.561
REMARK  8 active torsions:
REMARK  status: ('A' for Active; 'I' for Inactive)
REMARK    1  A    between atoms: C_4  and  C_5 
REMARK    2  A    between atoms: C_5  and  N_6 
REMARK    3  A    between atoms: N_10  and  C_12 
REMARK    4  A    between atoms: C_12  and  C_13 
REMARK       I    between atoms: C_13  and  N_14 
REMARK    5  A    between atoms: N_14  and  C_15 
REMARK    6  A    between atoms: C_17  and  S_18 
REMARK    7  A    between atoms: S_18  and  C_19 
REMARK    8  A    between atoms: C_22  and  N_23 
ROOT
HETATM    1  C   UNL     1      24.528  44.606  50.590  1.00  0.00     0.249 C 
HETATM    2  N   UNL     1      25.270  44.176  49.522  1.00  0.00    -0.304 N 
HETATM    3  O   UNL     1      23.534  44.092  51.105  1.00  0.00    -0.271 OA
HETATM    4  H   UNL     1      26.103  44.644  49.191  1.00  0.00     0.171 HD
ENDROOT
BRANCH   2   5
HETATM    5  C   UNL     1      24.873  43.109  48.760  1.00  0.00     0.174 A 
HETATM    6  S   UNL     1      26.034  41.870  48.641  1.00  0.00    -0.038 SA
HETATM    7  C   UNL     1      25.011  41.043  47.544  1.00  0.00     0.125 A 
HETATM    8  C   UNL     1      23.842  41.759  47.384  1.00  0.00     0.151 A 
HETATM    9  N   UNL     1      23.758  42.940  48.105  1.00  0.00    -0.234 NA
BRANCH   7  10
HETATM   10  S   UNL     1      25.594  39.542  46.816  1.00  0.00     0.214 S 
HETATM   11  O   UNL     1      24.451  38.655  46.879  1.00  0.00    -0.217 OA
HETATM   12  O   UNL     1      26.223  39.903  45.563  1.00  0.00    -0.217 OA
BRANCH  10  13
HETATM   13  C   UNL     1      26.841  38.930  47.920  1.00  0.00     0.065 A 
HETATM   14  C   UNL     1      26.542  37.864  48.775  1.00  0.00     0.026 A 
HETATM   15  C   UNL     1      27.530  37.362  49.628  1.00  0.00     0.037 A 
HETATM   16  C   UNL     1      28.815  37.924  49.607  1.00  0.00     0.102 A 
HETATM   17  C   UNL     1      29.119  38.978  48.732  1.00  0.00     0.037 A 
HETATM   18  C   UNL     1      28.129  39.480  47.881  1.00  0.00     0.026 A 
BRANCH  16  19
HETATM   19  N   UNL     1      29.851  37.409  50.514  1.00  0.00    -0.116 N 
HETATM   20  O   UNL     1      29.519  36.531  51.322  1.00  0.00    -0.532 OA
HETATM   21  O   UNL     1      30.982  37.906  50.432  1.00  0.00    -0.532 OA
ENDBRANCH  16  19
ENDBRANCH  10  13
ENDBRANCH   7  10
ENDBRANCH   2   5
BRANCH   1  22
HETATM   22  C   UNL     1      25.016  45.910  51.225  1.00  0.00     0.337 C 
BRANCH  22  23
HETATM   23  N   UNL     1      25.386  45.652  52.712  1.00  0.00    -0.060 N 
HETATM   24  C   UNL     1      25.990  44.262  52.917  1.00  0.00     0.263 C 
HETATM   25  C   UNL     1      26.324  44.014  54.405  1.00  0.00     0.263 C 
HETATM   26  N   UNL     1      27.209  45.124  54.974  1.00  0.00    -0.064 N 
HETATM   27  H   UNL     1      27.259  44.939  55.989  1.00  0.00     0.280 HD
HETATM   28  C   UNL     1      26.558  46.492  54.809  1.00  0.00     0.263 C 
HETATM   29  C   UNL     1      26.185  46.784  53.330  1.00  0.00     0.263 C 
HETATM   30  H   UNL     1      24.441  45.619  53.156  1.00  0.00     0.280 HD
BRANCH  26  31
HETATM   31  C   UNL     1      28.668  45.102  54.532  1.00  0.00     0.273 C 
BRANCH  31  32
HETATM   32  C   UNL     1      29.637  44.794  55.635  1.00  0.00    -0.033 A 
HETATM   33  C   UNL     1      30.508  43.696  55.530  1.00  0.00     0.009 A 
HETATM   34  C   UNL     1      31.395  43.396  56.563  1.00  0.00     0.001 A 
HETATM   35  C   UNL     1      31.425  44.188  57.708  1.00  0.00     0.000 A 
HETATM   36  C   UNL     1      30.576  45.286  57.820  1.00  0.00     0.001 A 
HETATM   37  C   UNL     1      29.688  45.593  56.789  1.00  0.00     0.009 A 
ENDBRANCH  31  32
ENDBRANCH  26  31
ENDBRANCH  22  23
ENDBRANCH   1  22
TORSDOF 8
ENDMDL
MODEL 7
REMARK VINA RESULT:      -8.8      2.106      2.539
REMARK  8 active torsions:
REMARK  status: ('A' for Active; 'I' for Inactive)
REMARK    1  A    between atoms: C_4  and  C_5 
REMARK    2  A    between atoms: C_5  and  N_6 
REMARK    3  A    between atoms: N_10  and  C_12 
REMARK    4  A    between atoms: C_12  and  C_13 
REMARK       I    between atoms: C_13  and  N_14 
REMARK    5  A    between atoms: N_14  and  C_15 
REMARK    6  A    between atoms: C_17  and  S_18 
REMARK    7  A    between atoms: S_18  and  C_19 
REMARK    8  A    between atoms: C_22  and  N_23 
ROOT
HETATM    1  C   UNL     1      24.817  46.814  50.414  1.00  0.00     0.249 C 
HETATM    2  N   UNL     1      24.107  46.320  49.353  1.00  0.00    -0.304 N 
HETATM    3  O   UNL     1      24.612  47.827  51.084  1.00  0.00    -0.271 OA
HETATM    4  H   UNL     1      24.326  45.450  48.884  1.00  0.00     0.171 HD
ENDROOT
BRANCH   2   5
HETATM    5  C   UNL     1      23.082  47.030  48.786  1.00  0.00     0.174 A 
HETATM    6  S   UNL     1      21.594  46.205  48.763  1.00  0.00    -0.038 SA
HETATM    7  C   UNL     1      20.910  47.501  47.877  1.00  0.00     0.125 A 
HETATM    8  C   UNL     1      21.863  48.485  47.701  1.00  0.00     0.151 A 
HETATM    9  N   UNL     1      23.110  48.217  48.247  1.00  0.00    -0.234 NA
BRANCH   7  10
HETATM   10  S   UNL     1      19.234  47.361  47.335  1.00  0.00     0.214 S 
HETATM   11  O   UNL     1      19.313  47.543  45.900  1.00  0.00    -0.217 OA
HETATM   12  O   UNL     1      18.702  46.154  47.932  1.00  0.00    -0.217 OA
BRANCH  10  13
HETATM   13  C   UNL     1      18.389  48.757  48.032  1.00  0.00     0.065 A 
HETATM   14  C   UNL     1      17.220  49.229  47.426  1.00  0.00     0.026 A 
HETATM   15  C   UNL     1      16.538  50.312  47.987  1.00  0.00     0.037 A 
HETATM   16  C   UNL     1      17.025  50.906  49.160  1.00  0.00     0.102 A 
HETATM   17  C   UNL     1      18.185  50.417  49.780  1.00  0.00     0.037 A 
HETATM   18  C   UNL     1      18.868  49.334  49.216  1.00  0.00     0.026 A 
BRANCH  16  19
HETATM   19  N   UNL     1      16.318  52.056  49.743  1.00  0.00    -0.116 N 
HETATM   20  O   UNL     1      15.082  52.001  49.797  1.00  0.00    -0.532 OA
HETATM   21  O   UNL     1      17.002  53.018  50.117  1.00  0.00    -0.532 OA
ENDBRANCH  16  19
ENDBRANCH  10  13
ENDBRANCH   7  10
ENDBRANCH   2   5
BRANCH   1  22
HETATM   22  C   UNL     1      26.035  45.979  50.814  1.00  0.00     0.337 C 
BRANCH  22  23
HETATM   23  N   UNL     1      26.053  45.800  52.358  1.00  0.00    -0.060 N 
HETATM   24  C   UNL     1      26.949  44.637  52.787  1.00  0.00     0.263 C 
HETATM   25  C   UNL     1      26.930  44.458  54.322  1.00  0.00     0.263 C 
HETATM   26  N   UNL     1      27.278  45.760  55.044  1.00  0.00    -0.064 N 
HETATM   27  H   UNL     1      27.106  45.571  56.045  1.00  0.00     0.280 HD
HETATM   28  C   UNL     1      26.335  46.887  54.642  1.00  0.00     0.263 C 
HETATM   29  C   UNL     1      26.302  47.098  53.103  1.00  0.00     0.263 C 
HETATM   30  H   UNL     1      25.074  45.485  52.539  1.00  0.00     0.280 HD
BRANCH  26  31
HETATM   31  C   UNL     1      28.747  46.170  55.003  1.00  0.00     0.273 C 
BRANCH  31  32
HETATM   32  C   UNL     1      29.605  45.475  56.017  1.00  0.00    -0.033 A 
HETATM   33  C   UNL     1      29.644  45.930  57.347  1.00  0.00     0.009 A 
HETATM   34  C   UNL     1      30.457  45.298  58.287  1.00  0.00     0.001 A 
HETATM   35  C   UNL     1      31.235  44.205  57.913  1.00  0.00     0.000 A 
HETATM   36  C   UNL     1      31.196  43.736  56.603  1.00  0.00     0.001 A 
HETATM   37  C   UNL     1      30.383  44.363  55.658  1.00  0.00     0.009 A 
ENDBRANCH  31  32
ENDBRANCH  26  31
ENDBRANCH  22  23
ENDBRANCH   1  22
TORSDOF 8
ENDMDL
MODEL 8
REMARK VINA RESULT:      -8.8      3.623     11.190
REMARK  8 active torsions:
REMARK  status: ('A' for Active; 'I' for Inactive)
REMARK    1  A    between atoms: C_4  and  C_5 
REMARK    2  A    between atoms: C_5  and  N_6 
REMARK    3  A    between atoms: N_10  and  C_12 
REMARK    4  A    between atoms: C_12  and  C_13 
REMARK       I    between atoms: C_13  and  N_14 
REMARK    5  A    between atoms: N_14  and  C_15 
REMARK    6  A    between atoms: C_17  and  S_18 
REMARK    7  A    between atoms: S_18  and  C_19 
REMARK    8  A    between atoms: C_22  and  N_23 
ROOT
HETATM    1  C   UNL     1      22.192  45.455  47.854  1.00  0.00     0.249 C 
HETATM    2  N   UNL     1      22.411  45.524  49.203  1.00  0.00    -0.304 N 
HETATM    3  O   UNL     1      22.498  44.564  47.060  1.00  0.00    -0.271 OA
HETATM    4  H   UNL     1      22.085  46.283  49.789  1.00  0.00     0.171 HD
ENDROOT
BRANCH   2   5
HETATM    5  C   UNL     1      23.181  44.594  49.851  1.00  0.00     0.174 A 
HETATM    6  S   UNL     1      24.835  44.986  49.918  1.00  0.00    -0.038 SA
HETATM    7  C   UNL     1      25.145  43.470  50.653  1.00  0.00     0.125 A 
HETATM    8  C   UNL     1      23.953  42.797  50.829  1.00  0.00     0.151 A 
HETATM    9  N   UNL     1      22.818  43.460  50.383  1.00  0.00    -0.234 NA
BRANCH   7  10
HETATM   10  S   UNL     1      26.820  43.029  51.003  1.00  0.00     0.214 S 
HETATM   11  O   UNL     1      26.752  41.619  51.324  1.00  0.00    -0.217 OA
HETATM   12  O   UNL     1      27.622  43.534  49.908  1.00  0.00    -0.217 OA
BRANCH  10  13
HETATM   13  C   UNL     1      27.250  43.920  52.477  1.00  0.00     0.065 A 
HETATM   14  C   UNL     1      28.514  43.740  53.048  1.00  0.00     0.026 A 
HETATM   15  C   UNL     1      28.865  44.459  54.193  1.00  0.00     0.037 A 
HETATM   16  C   UNL     1      27.951  45.365  54.752  1.00  0.00     0.102 A 
HETATM   17  C   UNL     1      26.691  45.561  54.165  1.00  0.00     0.037 A 
HETATM   18  C   UNL     1      26.341  44.839  53.019  1.00  0.00     0.026 A 
BRANCH  16  19
HETATM   19  N   UNL     1      28.312  46.110  55.966  1.00  0.00    -0.116 N 
HETATM   20  O   UNL     1      27.737  47.187  56.170  1.00  0.00    -0.532 OA
HETATM   21  O   UNL     1      29.190  45.626  56.694  1.00  0.00    -0.532 OA
ENDBRANCH  16  19
ENDBRANCH  10  13
ENDBRANCH   7  10
ENDBRANCH   2   5
BRANCH   1  22
HETATM   22  C   UNL     1      21.461  46.662  47.261  1.00  0.00     0.337 C 
BRANCH  22  23
HETATM   23  N   UNL     1      21.287  47.749  48.357  1.00  0.00    -0.060 N 
HETATM   24  C   UNL     1      22.135  48.989  48.070  1.00  0.00     0.263 C 
HETATM   25  C   UNL     1      21.971  50.046  49.186  1.00  0.00     0.263 C 
HETATM   26  N   UNL     1      20.499  50.388  49.423  1.00  0.00    -0.064 N 
HETATM   27  H   UNL     1      20.492  50.987  50.265  1.00  0.00     0.280 HD
HETATM   28  C   UNL     1      19.688  49.143  49.764  1.00  0.00     0.263 C 
HETATM   29  C   UNL     1      19.834  48.039  48.681  1.00  0.00     0.263 C 
HETATM   30  H   UNL     1      21.733  47.285  49.179  1.00  0.00     0.280 HD
BRANCH  26  31
HETATM   31  C   UNL     1      19.838  51.255  48.357  1.00  0.00     0.273 C 
BRANCH  31  32
HETATM   32  C   UNL     1      18.403  51.585  48.641  1.00  0.00    -0.033 A 
HETATM   33  C   UNL     1      17.380  51.060  47.833  1.00  0.00     0.009 A 
HETATM   34  C   UNL     1      16.046  51.382  48.082  1.00  0.00     0.001 A 
HETATM   35  C   UNL     1      15.719  52.227  49.140  1.00  0.00     0.000 A 
HETATM   36  C   UNL     1      16.722  52.743  49.956  1.00  0.00     0.001 A 
HETATM   37  C   UNL     1      18.058  52.423  49.713  1.00  0.00     0.009 A 
ENDBRANCH  31  32
ENDBRANCH  26  31
ENDBRANCH  22  23
ENDBRANCH   1  22
TORSDOF 8
ENDMDL
MODEL 9
REMARK VINA RESULT:      -8.8      2.691      4.453
REMARK  8 active torsions:
REMARK  status: ('A' for Active; 'I' for Inactive)
REMARK    1  A    between atoms: C_4  and  C_5 
REMARK    2  A    between atoms: C_5  and  N_6 
REMARK    3  A    between atoms: N_10  and  C_12 
REMARK    4  A    between atoms: C_12  and  C_13 
REMARK       I    between atoms: C_13  and  N_14 
REMARK    5  A    between atoms: N_14  and  C_15 
REMARK    6  A    between atoms: C_17  and  S_18 
REMARK    7  A    between atoms: S_18  and  C_19 
REMARK    8  A    between atoms: C_22  and  N_23 
ROOT
HETATM    1  C   UNL     1      22.761  47.938  48.851  1.00  0.00     0.249 C 
HETATM    2  N   UNL     1      21.823  48.688  49.508  1.00  0.00    -0.304 N 
HETATM    3  O   UNL     1      22.646  47.280  47.816  1.00  0.00    -0.271 OA
HETATM    4  H   UNL     1      22.019  49.234  50.337  1.00  0.00     0.171 HD
ENDROOT
BRANCH   2   5
HETATM    5  C   UNL     1      20.506  48.678  49.130  1.00  0.00     0.174 A 
HETATM    6  S   UNL     1      20.153  49.704  47.819  1.00  0.00    -0.038 SA
HETATM    7  C   UNL     1      18.492  49.320  47.991  1.00  0.00     0.125 A 
HETATM    8  C   UNL     1      18.341  48.405  49.014  1.00  0.00     0.151 A 
HETATM    9  N   UNL     1      19.509  48.021  49.654  1.00  0.00    -0.234 NA
BRANCH   7  10
HETATM   10  S   UNL     1      17.326  50.131  46.940  1.00  0.00     0.214 S 
HETATM   11  O   UNL     1      18.143  50.738  45.911  1.00  0.00    -0.217 OA
HETATM   12  O   UNL     1      16.295  49.161  46.635  1.00  0.00    -0.217 OA
BRANCH  10  13
HETATM   13  C   UNL     1      16.613  51.422  47.927  1.00  0.00     0.065 A 
HETATM   14  C   UNL     1      15.519  52.142  47.434  1.00  0.00     0.026 A 
HETATM   15  C   UNL     1      14.939  53.143  48.218  1.00  0.00     0.037 A 
HETATM   16  C   UNL     1      15.450  53.406  49.497  1.00  0.00     0.102 A 
HETATM   17  C   UNL     1      16.533  52.667  49.999  1.00  0.00     0.037 A 
HETATM   18  C   UNL     1      17.113  51.667  49.212  1.00  0.00     0.026 A 
BRANCH  16  19
HETATM   19  N   UNL     1      14.851  54.469  50.317  1.00  0.00    -0.116 N 
HETATM   20  O   UNL     1      13.803  54.986  49.908  1.00  0.00    -0.532 OA
HETATM   21  O   UNL     1      15.448  54.799  51.350  1.00  0.00    -0.532 OA
ENDBRANCH  16  19
ENDBRANCH  10  13
ENDBRANCH   7  10
ENDBRANCH   2   5
BRANCH   1  22
HETATM   22  C   UNL     1      24.145  47.925  49.505  1.00  0.00     0.337 C 
BRANCH  22  23
HETATM   23  N   UNL     1      24.294  46.644  50.372  1.00  0.00    -0.060 N 
HETATM   24  C   UNL     1      24.724  45.437  49.536  1.00  0.00     0.263 C 
HETATM   25  C   UNL     1      24.839  44.168  50.410  1.00  0.00     0.263 C 
HETATM   26  N   UNL     1      25.750  44.397  51.617  1.00  0.00    -0.064 N 
HETATM   27  H   UNL     1      25.651  43.549  52.198  1.00  0.00     0.280 HD
HETATM   28  C   UNL     1      25.266  45.568  52.464  1.00  0.00     0.263 C 
HETATM   29  C   UNL     1      25.116  46.868  51.627  1.00  0.00     0.263 C 
HETATM   30  H   UNL     1      23.302  46.462  50.642  1.00  0.00     0.280 HD
BRANCH  26  31
HETATM   31  C   UNL     1      27.244  44.457  51.319  1.00  0.00     0.273 C 
BRANCH  31  32
HETATM   32  C   UNL     1      28.111  43.950  52.433  1.00  0.00    -0.033 A 
HETATM   33  C   UNL     1      28.055  44.546  53.705  1.00  0.00     0.009 A 
HETATM   34  C   UNL     1      28.874  44.090  54.737  1.00  0.00     0.001 A 
HETATM   35  C   UNL     1      29.755  43.034  54.513  1.00  0.00     0.000 A 
HETATM   36  C   UNL     1      29.811  42.426  53.261  1.00  0.00     0.001 A 
HETATM   37  C   UNL     1      28.992  42.876  52.225  1.00  0.00     0.009 A 
ENDBRANCH  31  32
ENDBRANCH  26  31
ENDBRANCH  22  23
ENDBRANCH   1  22
TORSDOF 8
ENDMDL
MODEL 10
REMARK VINA RESULT:      -8.7      5.845      9.387
REMARK  8 active torsions:
REMARK  status: ('A' for Active; 'I' for Inactive)
REMARK    1  A    between atoms: C_4  and  C_5 
REMARK    2  A    between atoms: C_5  and  N_6 
REMARK    3  A    between atoms: N_10  and  C_12 
REMARK    4  A    between atoms: C_12  and  C_13 
REMARK       I    between atoms: C_13  and  N_14 
REMARK    5  A    between atoms: N_14  and  C_15 
REMARK    6  A    between atoms: C_17  and  S_18 
REMARK    7  A    between atoms: S_18  and  C_19 
REMARK    8  A    between atoms: C_22  and  N_23 
ROOT
HETATM    1  C   UNL     1      24.999  43.914  50.021  1.00  0.00     0.249 C 
HETATM    2  N   UNL     1      24.477  42.661  50.199  1.00  0.00    -0.304 N 
HETATM    3  O   UNL     1      25.457  44.429  49.000  1.00  0.00    -0.271 OA
HETATM    4  H   UNL     1      24.081  42.335  51.071  1.00  0.00     0.171 HD
ENDROOT
BRANCH   2   5
HETATM    5  C   UNL     1      24.537  41.715  49.210  1.00  0.00     0.174 A 
HETATM    6  S   UNL     1      25.775  40.566  49.423  1.00  0.00    -0.038 SA
HETATM    7  C   UNL     1      25.373  39.881  47.905  1.00  0.00     0.125 A 
HETATM    8  C   UNL     1      24.296  40.559  47.370  1.00  0.00     0.151 A 
HETATM    9  N   UNL     1      23.803  41.603  48.138  1.00  0.00    -0.234 NA
BRANCH   7  10
HETATM   10  S   UNL     1      26.357  38.546  47.295  1.00  0.00     0.214 S 
HETATM   11  O   UNL     1      27.294  38.283  48.367  1.00  0.00    -0.217 OA
HETATM   12  O   UNL     1      25.437  37.539  46.809  1.00  0.00    -0.217 OA
BRANCH  10  13
HETATM   13  C   UNL     1      27.254  39.207  45.914  1.00  0.00     0.065 A 
HETATM   14  C   UNL     1      27.714  40.527  45.959  1.00  0.00     0.026 A 
HETATM   15  C   UNL     1      28.443  41.043  44.884  1.00  0.00     0.037 A 
HETATM   16  C   UNL     1      28.719  40.227  43.777  1.00  0.00     0.102 A 
HETATM   17  C   UNL     1      28.276  38.895  43.744  1.00  0.00     0.037 A 
HETATM   18  C   UNL     1      27.545  38.381  44.820  1.00  0.00     0.026 A 
BRANCH  16  19
HETATM   19  N   UNL     1      29.472  40.772  42.638  1.00  0.00    -0.116 N 
HETATM   20  O   UNL     1      28.980  41.734  42.034  1.00  0.00    -0.532 OA
HETATM   21  O   UNL     1      30.537  40.216  42.338  1.00  0.00    -0.532 OA
ENDBRANCH  16  19
ENDBRANCH  10  13
ENDBRANCH   7  10
ENDBRANCH   2   5
BRANCH   1  22
HETATM   22  C   UNL     1      25.006  44.790  51.276  1.00  0.00     0.337 C 
BRANCH  22  23
HETATM   23  N   UNL     1      25.691  44.018  52.439  1.00  0.00    -0.060 N 
HETATM   24  C   UNL     1      27.065  43.480  52.035  1.00  0.00     0.263 C 
HETATM   25  C   UNL     1      27.716  42.692  53.194  1.00  0.00     0.263 C 
HETATM   26  N   UNL     1      27.769  43.522  54.477  1.00  0.00    -0.064 N 
HETATM   27  H   UNL     1      28.089  42.869  55.210  1.00  0.00     0.280 HD
HETATM   28  C   UNL     1      26.380  43.997  54.888  1.00  0.00     0.263 C 
HETATM   29  C   UNL     1      25.672  44.781  53.750  1.00  0.00     0.263 C 
HETATM   30  H   UNL     1      25.072  43.181  52.522  1.00  0.00     0.280 HD
BRANCH  26  31
HETATM   31  C   UNL     1      28.811  44.635  54.506  1.00  0.00     0.273 C 
BRANCH  31  32
HETATM   32  C   UNL     1      29.736  44.577  55.685  1.00  0.00    -0.033 A 
HETATM   33  C   UNL     1      29.662  45.551  56.695  1.00  0.00     0.009 A 
HETATM   34  C   UNL     1      30.534  45.511  57.782  1.00  0.00     0.001 A 
HETATM   35  C   UNL     1      31.485  44.498  57.875  1.00  0.00     0.000 A 
HETATM   36  C   UNL     1      31.561  43.519  56.888  1.00  0.00     0.001 A 
HETATM   37  C   UNL     1      30.689  43.552  55.799  1.00  0.00     0.009 A 
ENDBRANCH  31  32
ENDBRANCH  26  31
ENDBRANCH  22  23
ENDBRANCH   1  22
TORSDOF 8
ENDMDL
