MODEL 1
REMARK VINA RESULT:     -10.3      0.000      0.000
REMARK  3 active torsions:
REMARK  status: ('A' for Active; 'I' for Inactive)
REMARK    1  A    between atoms: C_3  and  N_4 
REMARK       I    between atoms: N_4  and  C_5 
REMARK    2  A    between atoms: C_5  and  C_6 
REMARK    3  A    between atoms: C_6  and  N_7 
ROOT
HETATM    1  N   UNL     1      26.918  45.278  53.320  1.00  0.00    -0.367 N 
HETATM    2  C   UNL     1      27.739  44.250  53.424  1.00  0.00     0.108 C 
HETATM    3  C   UNL     1      28.856  44.301  54.402  1.00  0.00     0.014 A 
HETATM    4  C   UNL     1      29.932  43.402  54.255  1.00  0.00    -0.042 A 
HETATM    5  C   UNL     1      31.009  43.426  55.148  1.00  0.00     0.008 A 
HETATM    6  C   UNL     1      31.007  44.316  56.218  1.00  0.00     0.001 A 
HETATM    7  C   UNL     1      29.936  45.186  56.397  1.00  0.00     0.001 A 
HETATM    8  C   UNL     1      28.867  45.180  55.498  1.00  0.00     0.016 A 
HETATM    9  C   UNL     1      29.917  42.434  53.099  1.00  0.00     0.069 C 
HETATM   10  C   UNL     1      28.484  41.977  52.764  1.00  0.00     0.028 C 
HETATM   11  C   UNL     1      28.467  41.299  51.390  1.00  0.00     0.038 C 
HETATM   12  C   UNL     1      27.910  41.021  53.816  1.00  0.00     0.038 C 
HETATM   13  N   UNL     1      27.580  43.158  52.685  1.00  0.00    -0.367 N 
HETATM   14  H   UNL     1      26.832  43.130  52.009  1.00  0.00     0.162 HD
HETATM   15  H   UNL     1      27.185  46.144  53.787  1.00  0.00     0.161 HD
ENDROOT
BRANCH   1  16
HETATM   16  C   UNL     1      25.689  45.356  52.515  1.00  0.00     0.224 C 
BRANCH  16  17
HETATM   17  C   UNL     1      25.630  46.762  51.929  1.00  0.00     0.239 C 
HETATM   18  N   UNL     1      25.766  46.812  50.555  1.00  0.00    -0.325 N 
HETATM   19  H   UNL     1      25.673  45.952  50.030  1.00  0.00     0.169 HD
HETATM   20  O   UNL     1      25.374  47.705  52.674  1.00  0.00    -0.271 OA
BRANCH  18  21
HETATM   21  C   UNL     1      25.883  47.982  49.766  1.00  0.00     0.040 A 
HETATM   22  C   UNL     1      24.724  48.529  49.172  1.00  0.00    -0.035 A 
HETATM   23  C   UNL     1      23.346  47.975  49.408  1.00  0.00     0.050 C 
HETATM   24  C   UNL     1      24.850  49.642  48.321  1.00  0.00     0.009 A 
HETATM   25  C   UNL     1      26.095  50.216  48.072  1.00  0.00     0.001 A 
HETATM   26  C   UNL     1      27.230  49.685  48.670  1.00  0.00     0.002 A 
HETATM   27  C   UNL     1      27.126  48.577  49.513  1.00  0.00     0.030 A 
ENDBRANCH  18  21
ENDBRANCH  16  17
ENDBRANCH   1  16
TORSDOF 3
ENDMDL
MODEL 2
REMARK VINA RESULT:      -9.8      0.588      1.489
REMARK  3 active torsions:
REMARK  status: ('A' for Active; 'I' for Inactive)
REMARK    1  A    between atoms: C_3  and  N_4 
REMARK       I    between atoms: N_4  and  C_5 
REMARK    2  A    between atoms: C_5  and  C_6 
REMARK    3  A    between atoms: C_6  and  N_7 
ROOT
HETATM    1  N   UNL     1      26.691  45.231  53.012  1.00  0.00    -0.367 N 
HETATM    2  C   UNL     1      27.548  44.246  53.211  1.00  0.00     0.108 C 
HETATM    3  C   UNL     1      28.618  44.401  54.228  1.00  0.00     0.014 A 
HETATM    4  C   UNL     1      29.735  43.541  54.179  1.00  0.00    -0.042 A 
HETATM    5  C   UNL     1      30.771  43.662  55.113  1.00  0.00     0.008 A 
HETATM    6  C   UNL     1      30.686  44.611  56.128  1.00  0.00     0.001 A 
HETATM    7  C   UNL     1      29.574  45.443  56.211  1.00  0.00     0.001 A 
HETATM    8  C   UNL     1      28.546  45.340  55.271  1.00  0.00     0.016 A 
HETATM    9  C   UNL     1      29.810  42.509  53.082  1.00  0.00     0.069 C 
HETATM   10  C   UNL     1      28.411  41.974  52.716  1.00  0.00     0.028 C 
HETATM   11  C   UNL     1      28.482  41.218  51.384  1.00  0.00     0.038 C 
HETATM   12  C   UNL     1      27.831  41.056  53.798  1.00  0.00     0.038 C 
HETATM   13  N   UNL     1      27.466  43.109  52.530  1.00  0.00    -0.367 N 
HETATM   14  H   UNL     1      26.749  43.010  51.827  1.00  0.00     0.162 HD
HETATM   15  H   UNL     1      26.903  46.133  53.438  1.00  0.00     0.161 HD
ENDROOT
BRANCH   1  16
HETATM   16  C   UNL     1      25.497  45.210  52.154  1.00  0.00     0.224 C 
BRANCH  16  17
HETATM   17  C   UNL     1      25.274  46.638  51.668  1.00  0.00     0.239 C 
HETATM   18  N   UNL     1      24.838  46.733  50.361  1.00  0.00    -0.325 N 
HETATM   19  H   UNL     1      24.495  45.897  49.906  1.00  0.00     0.169 HD
HETATM   20  O   UNL     1      25.394  47.563  52.468  1.00  0.00    -0.271 OA
BRANCH  18  21
HETATM   21  C   UNL     1      24.680  47.926  49.613  1.00  0.00     0.040 A 
HETATM   22  C   UNL     1      25.828  48.595  49.135  1.00  0.00    -0.035 A 
HETATM   23  C   UNL     1      27.221  48.052  49.308  1.00  0.00     0.050 C 
HETATM   24  C   UNL     1      25.677  49.821  48.465  1.00  0.00     0.009 A 
HETATM   25  C   UNL     1      24.415  50.373  48.256  1.00  0.00     0.001 A 
HETATM   26  C   UNL     1      23.286  49.705  48.713  1.00  0.00     0.002 A 
HETATM   27  C   UNL     1      23.417  48.487  49.386  1.00  0.00     0.030 A 
ENDBRANCH  18  21
ENDBRANCH  16  17
ENDBRANCH   1  16
TORSDOF 3
ENDMDL
MODEL 3
REMARK VINA RESULT:      -9.3      1.504      3.112
REMARK  3 active torsions:
REMARK  status: ('A' for Active; 'I' for Inactive)
REMARK    1  A    between atoms: C_3  and  N_4 
REMARK       I    between atoms: N_4  and  C_5 
REMARK    2  A    between atoms: C_5  and  C_6 
REMARK    3  A    between atoms: C_6  and  N_7 
ROOT
HETATM    1  N   UNL     1      26.650  44.317  52.821  1.00  0.00    -0.367 N 
HETATM    2  C   UNL     1      27.313  45.030  53.711  1.00  0.00     0.108 C 
HETATM    3  C   UNL     1      28.560  44.486  54.305  1.00  0.00     0.014 A 
HETATM    4  C   UNL     1      29.050  45.051  55.500  1.00  0.00    -0.042 A 
HETATM    5  C   UNL     1      30.216  44.559  56.097  1.00  0.00     0.008 A 
HETATM    6  C   UNL     1      30.927  43.527  55.491  1.00  0.00     0.001 A 
HETATM    7  C   UNL     1      30.476  42.982  54.293  1.00  0.00     0.001 A 
HETATM    8  C   UNL     1      29.303  43.456  53.702  1.00  0.00     0.016 A 
HETATM    9  C   UNL     1      28.278  46.176  56.141  1.00  0.00     0.069 C 
HETATM   10  C   UNL     1      27.609  47.076  55.083  1.00  0.00     0.028 C 
HETATM   11  C   UNL     1      26.560  47.969  55.755  1.00  0.00     0.038 C 
HETATM   12  C   UNL     1      28.620  47.948  54.329  1.00  0.00     0.038 C 
HETATM   13  N   UNL     1      26.898  46.237  54.079  1.00  0.00    -0.367 N 
HETATM   14  H   UNL     1      26.042  46.600  53.689  1.00  0.00     0.162 HD
HETATM   15  H   UNL     1      26.920  43.340  52.703  1.00  0.00     0.161 HD
ENDROOT
BRANCH   1  16
HETATM   16  C   UNL     1      25.483  44.740  52.032  1.00  0.00     0.224 C 
BRANCH  16  17
HETATM   17  C   UNL     1      26.004  45.633  50.911  1.00  0.00     0.239 C 
HETATM   18  N   UNL     1      25.660  46.965  51.037  1.00  0.00    -0.325 N 
HETATM   19  H   UNL     1      25.301  47.287  51.927  1.00  0.00     0.169 HD
HETATM   20  O   UNL     1      26.748  45.146  50.063  1.00  0.00    -0.271 OA
BRANCH  18  21
HETATM   21  C   UNL     1      25.892  47.985  50.083  1.00  0.00     0.040 A 
HETATM   22  C   UNL     1      24.810  48.469  49.316  1.00  0.00    -0.035 A 
HETATM   23  C   UNL     1      23.392  48.010  49.525  1.00  0.00     0.050 C 
HETATM   24  C   UNL     1      25.053  49.422  48.311  1.00  0.00     0.009 A 
HETATM   25  C   UNL     1      26.339  49.902  48.076  1.00  0.00     0.001 A 
HETATM   26  C   UNL     1      27.400  49.436  48.842  1.00  0.00     0.002 A 
HETATM   27  C   UNL     1      27.178  48.485  49.841  1.00  0.00     0.030 A 
ENDBRANCH  18  21
ENDBRANCH  16  17
ENDBRANCH   1  16
TORSDOF 3
ENDMDL
MODEL 4
REMARK VINA RESULT:      -9.0      1.553      7.759
REMARK  3 active torsions:
REMARK  status: ('A' for Active; 'I' for Inactive)
REMARK    1  A    between atoms: C_3  and  N_4 
REMARK       I    between atoms: N_4  and  C_5 
REMARK    2  A    between atoms: C_5  and  C_6 
REMARK    3  A    between atoms: C_6  and  N_7 
ROOT
HETATM    1  N   UNL     1      25.038  46.026  51.155  1.00  0.00    -0.367 N 
HETATM    2  C   UNL     1      24.451  46.750  50.219  1.00  0.00     0.108 C 
HETATM    3  C   UNL     1      25.200  47.857  49.573  1.00  0.00     0.014 A 
HETATM    4  C   UNL     1      24.481  48.848  48.873  1.00  0.00    -0.042 A 
HETATM    5  C   UNL     1      25.149  49.915  48.259  1.00  0.00     0.008 A 
HETATM    6  C   UNL     1      26.538  49.984  48.303  1.00  0.00     0.001 A 
HETATM    7  C   UNL     1      27.264  48.995  48.960  1.00  0.00     0.001 A 
HETATM    8  C   UNL     1      26.603  47.939  49.590  1.00  0.00     0.016 A 
HETATM    9  C   UNL     1      22.977  48.756  48.822  1.00  0.00     0.069 C 
HETATM   10  C   UNL     1      22.504  47.289  48.781  1.00  0.00     0.028 C 
HETATM   11  C   UNL     1      21.004  47.224  49.092  1.00  0.00     0.038 C 
HETATM   12  C   UNL     1      22.778  46.621  47.428  1.00  0.00     0.038 C 
HETATM   13  N   UNL     1      23.207  46.498  49.827  1.00  0.00    -0.367 N 
HETATM   14  H   UNL     1      22.693  45.757  50.278  1.00  0.00     0.162 HD
HETATM   15  H   UNL     1      25.924  46.367  51.529  1.00  0.00     0.161 HD
ENDROOT
BRANCH   1  16
HETATM   16  C   UNL     1      24.510  44.817  51.805  1.00  0.00     0.224 C 
BRANCH  16  17
HETATM   17  C   UNL     1      25.394  44.543  53.018  1.00  0.00     0.239 C 
HETATM   18  N   UNL     1      26.730  44.833  52.825  1.00  0.00    -0.325 N 
HETATM   19  H   UNL     1      26.991  45.390  52.022  1.00  0.00     0.169 HD
HETATM   20  O   UNL     1      24.864  44.194  54.070  1.00  0.00    -0.271 OA
BRANCH  18  21
HETATM   21  C   UNL     1      27.787  44.554  53.726  1.00  0.00     0.040 A 
HETATM   22  C   UNL     1      28.213  45.560  54.620  1.00  0.00    -0.035 A 
HETATM   23  C   UNL     1      27.536  46.900  54.725  1.00  0.00     0.050 C 
HETATM   24  C   UNL     1      29.316  45.312  55.457  1.00  0.00     0.009 A 
HETATM   25  C   UNL     1      29.979  44.087  55.423  1.00  0.00     0.001 A 
HETATM   26  C   UNL     1      29.548  43.093  54.553  1.00  0.00     0.002 A 
HETATM   27  C   UNL     1      28.458  43.323  53.711  1.00  0.00     0.030 A 
ENDBRANCH  18  21
ENDBRANCH  16  17
ENDBRANCH   1  16
TORSDOF 3
ENDMDL
MODEL 5
REMARK VINA RESULT:      -8.8      4.253      7.062
REMARK  3 active torsions:
REMARK  status: ('A' for Active; 'I' for Inactive)
REMARK    1  A    between atoms: C_3  and  N_4 
REMARK       I    between atoms: N_4  and  C_5 
REMARK    2  A    between atoms: C_5  and  C_6 
REMARK    3  A    between atoms: C_6  and  N_7 
ROOT
HETATM    1  N   UNL     1      23.035  47.564  48.650  1.00  0.00    -0.367 N 
HETATM    2  C   UNL     1      24.119  47.322  49.362  1.00  0.00     0.108 C 
HETATM    3  C   UNL     1      25.329  48.160  49.164  1.00  0.00     0.014 A 
HETATM    4  C   UNL     1      26.572  47.681  49.624  1.00  0.00    -0.042 A 
HETATM    5  C   UNL     1      27.738  48.436  49.446  1.00  0.00     0.008 A 
HETATM    6  C   UNL     1      27.671  49.690  48.845  1.00  0.00     0.001 A 
HETATM    7  C   UNL     1      26.445  50.191  48.418  1.00  0.00     0.001 A 
HETATM    8  C   UNL     1      25.282  49.435  48.575  1.00  0.00     0.016 A 
HETATM    9  C   UNL     1      26.631  46.327  50.284  1.00  0.00     0.069 C 
HETATM   10  C   UNL     1      25.350  46.038  51.091  1.00  0.00     0.028 C 
HETATM   11  C   UNL     1      25.286  44.546  51.438  1.00  0.00     0.038 C 
HETATM   12  C   UNL     1      25.265  46.869  52.377  1.00  0.00     0.038 C 
HETATM   13  N   UNL     1      24.150  46.351  50.269  1.00  0.00    -0.367 N 
HETATM   14  H   UNL     1      23.334  45.771  50.392  1.00  0.00     0.162 HD
HETATM   15  H   UNL     1      23.122  48.204  47.860  1.00  0.00     0.161 HD
ENDROOT
BRANCH   1  16
HETATM   16  C   UNL     1      21.713  46.936  48.800  1.00  0.00     0.224 C 
BRANCH  16  17
HETATM   17  C   UNL     1      20.673  48.014  48.510  1.00  0.00     0.239 C 
HETATM   18  N   UNL     1      20.880  49.201  49.187  1.00  0.00    -0.325 N 
HETATM   19  H   UNL     1      21.777  49.353  49.628  1.00  0.00     0.169 HD
HETATM   20  O   UNL     1      19.818  47.798  47.655  1.00  0.00    -0.271 OA
BRANCH  18  21
HETATM   21  C   UNL     1      20.006  50.315  49.211  1.00  0.00     0.040 A 
HETATM   22  C   UNL     1      18.888  50.293  50.074  1.00  0.00    -0.035 A 
HETATM   23  C   UNL     1      18.625  49.171  51.042  1.00  0.00     0.050 C 
HETATM   24  C   UNL     1      17.975  51.362  50.040  1.00  0.00     0.009 A 
HETATM   25  C   UNL     1      18.167  52.441  49.180  1.00  0.00     0.001 A 
HETATM   26  C   UNL     1      19.275  52.467  48.343  1.00  0.00     0.002 A 
HETATM   27  C   UNL     1      20.191  51.412  48.359  1.00  0.00     0.030 A 
ENDBRANCH  18  21
ENDBRANCH  16  17
ENDBRANCH   1  16
TORSDOF 3
ENDMDL
MODEL 6
REMARK VINA RESULT:      -8.8      3.479      5.238
REMARK  3 active torsions:
REMARK  status: ('A' for Active; 'I' for Inactive)
REMARK    1  A    between atoms: C_3  and  N_4 
REMARK       I    between atoms: N_4  and  C_5 
REMARK    2  A    between atoms: C_5  and  C_6 
REMARK    3  A    between atoms: C_6  and  N_7 
ROOT
HETATM    1  N   UNL     1      24.172  47.295  50.345  1.00  0.00    -0.367 N 
HETATM    2  C   UNL     1      24.786  46.177  50.684  1.00  0.00     0.108 C 
HETATM    3  C   UNL     1      25.606  46.137  51.921  1.00  0.00     0.014 A 
HETATM    4  C   UNL     1      26.547  45.100  52.083  1.00  0.00    -0.042 A 
HETATM    5  C   UNL     1      27.347  45.033  53.230  1.00  0.00     0.008 A 
HETATM    6  C   UNL     1      27.190  45.974  54.243  1.00  0.00     0.001 A 
HETATM    7  C   UNL     1      26.241  46.983  54.115  1.00  0.00     0.001 A 
HETATM    8  C   UNL     1      25.453  47.066  52.965  1.00  0.00     0.016 A 
HETATM    9  C   UNL     1      26.699  44.079  50.983  1.00  0.00     0.069 C 
HETATM   10  C   UNL     1      25.353  43.794  50.288  1.00  0.00     0.028 C 
HETATM   11  C   UNL     1      25.600  43.049  48.972  1.00  0.00     0.038 C 
HETATM   12  C   UNL     1      24.397  42.980  51.168  1.00  0.00     0.038 C 
HETATM   13  N   UNL     1      24.675  45.076  49.949  1.00  0.00    -0.367 N 
HETATM   14  H   UNL     1      24.132  45.108  49.100  1.00  0.00     0.162 HD
HETATM   15  H   UNL     1      24.426  48.144  50.850  1.00  0.00     0.161 HD
ENDROOT
BRANCH   1  16
HETATM   16  C   UNL     1      23.218  47.487  49.242  1.00  0.00     0.224 C 
BRANCH  16  17
HETATM   17  C   UNL     1      22.571  48.853  49.446  1.00  0.00     0.239 C 
HETATM   18  N   UNL     1      21.200  48.863  49.282  1.00  0.00    -0.325 N 
HETATM   19  H   UNL     1      20.710  47.978  49.265  1.00  0.00     0.169 HD
HETATM   20  O   UNL     1      23.271  49.789  49.824  1.00  0.00    -0.271 OA
BRANCH  18  21
HETATM   21  C   UNL     1      20.364  50.007  49.280  1.00  0.00     0.040 A 
HETATM   22  C   UNL     1      19.198  50.008  50.075  1.00  0.00    -0.035 A 
HETATM   23  C   UNL     1      18.839  48.877  51.001  1.00  0.00     0.050 C 
HETATM   24  C   UNL     1      18.324  51.108  50.011  1.00  0.00     0.009 A 
HETATM   25  C   UNL     1      18.604  52.196  49.186  1.00  0.00     0.001 A 
HETATM   26  C   UNL     1      19.760  52.200  48.417  1.00  0.00     0.002 A 
HETATM   27  C   UNL     1      20.636  51.113  48.464  1.00  0.00     0.030 A 
ENDBRANCH  18  21
ENDBRANCH  16  17
ENDBRANCH   1  16
TORSDOF 3
ENDMDL
MODEL 7
REMARK VINA RESULT:      -8.7      2.099      8.028
REMARK  3 active torsions:
REMARK  status: ('A' for Active; 'I' for Inactive)
REMARK    1  A    between atoms: C_3  and  N_4 
REMARK       I    between atoms: N_4  and  C_5 
REMARK    2  A    between atoms: C_5  and  C_6 
REMARK    3  A    between atoms: C_6  and  N_7 
ROOT
HETATM    1  N   UNL     1      24.544  45.947  50.457  1.00  0.00    -0.367 N 
HETATM    2  C   UNL     1      23.630  46.421  49.629  1.00  0.00     0.108 C 
HETATM    3  C   UNL     1      23.756  47.807  49.114  1.00  0.00     0.014 A 
HETATM    4  C   UNL     1      22.622  48.433  48.557  1.00  0.00    -0.042 A 
HETATM    5  C   UNL     1      22.697  49.744  48.071  1.00  0.00     0.008 A 
HETATM    6  C   UNL     1      23.908  50.429  48.098  1.00  0.00     0.001 A 
HETATM    7  C   UNL     1      25.044  49.812  48.612  1.00  0.00     0.001 A 
HETATM    8  C   UNL     1      24.972  48.512  49.116  1.00  0.00     0.016 A 
HETATM    9  C   UNL     1      21.319  47.677  48.522  1.00  0.00     0.069 C 
HETATM   10  C   UNL     1      21.548  46.168  48.305  1.00  0.00     0.028 C 
HETATM   11  C   UNL     1      20.263  45.399  48.633  1.00  0.00     0.038 C 
HETATM   12  C   UNL     1      21.993  45.840  46.875  1.00  0.00     0.038 C 
HETATM   13  N   UNL     1      22.605  45.676  49.232  1.00  0.00    -0.367 N 
HETATM   14  H   UNL     1      22.510  44.740  49.595  1.00  0.00     0.162 HD
HETATM   15  H   UNL     1      25.209  46.611  50.854  1.00  0.00     0.161 HD
ENDROOT
BRANCH   1  16
HETATM   16  C   UNL     1      24.661  44.570  50.959  1.00  0.00     0.224 C 
BRANCH  16  17
HETATM   17  C   UNL     1      25.232  44.659  52.370  1.00  0.00     0.239 C 
HETATM   18  N   UNL     1      26.442  45.320  52.455  1.00  0.00    -0.325 N 
HETATM   19  H   UNL     1      26.745  45.871  51.662  1.00  0.00     0.169 HD
HETATM   20  O   UNL     1      24.558  44.243  53.310  1.00  0.00    -0.271 OA
BRANCH  18  21
HETATM   21  C   UNL     1      27.257  45.433  53.607  1.00  0.00     0.040 A 
HETATM   22  C   UNL     1      27.118  46.565  54.440  1.00  0.00    -0.035 A 
HETATM   23  C   UNL     1      26.076  47.626  54.209  1.00  0.00     0.050 C 
HETATM   24  C   UNL     1      27.983  46.719  55.538  1.00  0.00     0.009 A 
HETATM   25  C   UNL     1      28.960  45.766  55.819  1.00  0.00     0.001 A 
HETATM   26  C   UNL     1      29.084  44.646  55.007  1.00  0.00     0.002 A 
HETATM   27  C   UNL     1      28.237  44.479  53.909  1.00  0.00     0.030 A 
ENDBRANCH  18  21
ENDBRANCH  16  17
ENDBRANCH   1  16
TORSDOF 3
ENDMDL
MODEL 8
REMARK VINA RESULT:      -8.7      2.713      6.986
REMARK  3 active torsions:
REMARK  status: ('A' for Active; 'I' for Inactive)
REMARK    1  A    between atoms: C_3  and  N_4 
REMARK       I    between atoms: N_4  and  C_5 
REMARK    2  A    between atoms: C_5  and  C_6 
REMARK    3  A    between atoms: C_6  and  N_7 
ROOT
HETATM    1  N   UNL     1      27.262  44.745  52.949  1.00  0.00    -0.367 N 
HETATM    2  C   UNL     1      26.713  44.148  51.908  1.00  0.00     0.108 C 
HETATM    3  C   UNL     1      27.251  42.844  51.443  1.00  0.00     0.014 A 
HETATM    4  C   UNL     1      26.934  42.401  50.143  1.00  0.00    -0.042 A 
HETATM    5  C   UNL     1      27.431  41.183  49.663  1.00  0.00     0.008 A 
HETATM    6  C   UNL     1      28.214  40.378  50.486  1.00  0.00     0.001 A 
HETATM    7  C   UNL     1      28.507  40.786  51.783  1.00  0.00     0.001 A 
HETATM    8  C   UNL     1      28.030  42.008  52.261  1.00  0.00     0.016 A 
HETATM    9  C   UNL     1      26.075  43.276  49.266  1.00  0.00     0.069 C 
HETATM   10  C   UNL     1      25.026  44.045  50.092  1.00  0.00     0.028 C 
HETATM   11  C   UNL     1      24.427  45.172  49.243  1.00  0.00     0.038 C 
HETATM   12  C   UNL     1      23.903  43.137  50.608  1.00  0.00     0.038 C 
HETATM   13  N   UNL     1      25.674  44.679  51.273  1.00  0.00    -0.367 N 
HETATM   14  H   UNL     1      25.319  45.572  51.578  1.00  0.00     0.162 HD
HETATM   15  H   UNL     1      28.151  44.378  53.289  1.00  0.00     0.161 HD
ENDROOT
BRANCH   1  16
HETATM   16  C   UNL     1      26.786  45.959  53.631  1.00  0.00     0.224 C 
BRANCH  16  17
HETATM   17  C   UNL     1      27.671  46.155  54.858  1.00  0.00     0.239 C 
HETATM   18  N   UNL     1      28.734  45.276  54.940  1.00  0.00    -0.325 N 
HETATM   19  H   UNL     1      28.979  44.740  54.118  1.00  0.00     0.169 HD
HETATM   20  O   UNL     1      27.447  47.105  55.605  1.00  0.00    -0.271 OA
BRANCH  18  21
HETATM   21  C   UNL     1      29.630  45.143  56.029  1.00  0.00     0.040 A 
HETATM   22  C   UNL     1      30.567  44.088  56.022  1.00  0.00    -0.035 A 
HETATM   23  C   UNL     1      30.721  43.139  54.864  1.00  0.00     0.050 C 
HETATM   24  C   UNL     1      31.402  43.904  57.139  1.00  0.00     0.009 A 
HETATM   25  C   UNL     1      31.323  44.757  58.239  1.00  0.00     0.001 A 
HETATM   26  C   UNL     1      30.411  45.804  58.236  1.00  0.00     0.002 A 
HETATM   27  C   UNL     1      29.570  45.998  57.137  1.00  0.00     0.030 A 
ENDBRANCH  18  21
ENDBRANCH  16  17
ENDBRANCH   1  16
TORSDOF 3
ENDMDL
MODEL 9
REMARK VINA RESULT:      -8.6      3.544      5.852
REMARK  3 active torsions:
REMARK  status: ('A' for Active; 'I' for Inactive)
REMARK    1  A    between atoms: C_3  and  N_4 
REMARK       I    between atoms: N_4  and  C_5 
REMARK    2  A    between atoms: C_5  and  C_6 
REMARK    3  A    between atoms: C_6  and  N_7 
ROOT
HETATM    1  N   UNL     1      26.637  43.998  53.581  1.00  0.00    -0.367 N 
HETATM    2  C   UNL     1      27.306  44.890  54.289  1.00  0.00     0.108 C 
HETATM    3  C   UNL     1      28.618  44.523  54.878  1.00  0.00     0.014 A 
HETATM    4  C   UNL     1      29.141  45.312  55.923  1.00  0.00    -0.042 A 
HETATM    5  C   UNL     1      30.370  44.993  56.512  1.00  0.00     0.008 A 
HETATM    6  C   UNL     1      31.108  43.911  56.042  1.00  0.00     0.001 A 
HETATM    7  C   UNL     1      30.622  43.143  54.989  1.00  0.00     0.001 A 
HETATM    8  C   UNL     1      29.388  43.445  54.409  1.00  0.00     0.016 A 
HETATM    9  C   UNL     1      28.338  46.490  56.415  1.00  0.00     0.069 C 
HETATM   10  C   UNL     1      27.552  47.155  55.269  1.00  0.00     0.028 C 
HETATM   11  C   UNL     1      26.489  48.094  55.851  1.00  0.00     0.038 C 
HETATM   12  C   UNL     1      28.458  47.935  54.309  1.00  0.00     0.038 C 
HETATM   13  N   UNL     1      26.837  46.119  54.474  1.00  0.00    -0.367 N 
HETATM   14  H   UNL     1      25.938  46.362  54.088  1.00  0.00     0.162 HD
HETATM   15  H   UNL     1      26.962  43.031  53.613  1.00  0.00     0.161 HD
ENDROOT
BRANCH   1  16
HETATM   16  C   UNL     1      25.401  44.216  52.815  1.00  0.00     0.224 C 
BRANCH  16  17
HETATM   17  C   UNL     1      25.609  43.580  51.445  1.00  0.00     0.239 C 
HETATM   18  N   UNL     1      25.654  42.200  51.458  1.00  0.00    -0.325 N 
HETATM   19  H   UNL     1      25.338  41.716  52.289  1.00  0.00     0.169 HD
HETATM   20  O   UNL     1      25.620  44.303  50.451  1.00  0.00    -0.271 OA
BRANCH  18  21
HETATM   21  C   UNL     1      25.966  41.360  50.362  1.00  0.00     0.040 A 
HETATM   22  C   UNL     1      27.238  40.750  50.303  1.00  0.00    -0.035 A 
HETATM   23  C   UNL     1      28.258  40.880  51.402  1.00  0.00     0.050 C 
HETATM   24  C   UNL     1      27.580  39.982  49.175  1.00  0.00     0.009 A 
HETATM   25  C   UNL     1      26.677  39.807  48.129  1.00  0.00     0.001 A 
HETATM   26  C   UNL     1      25.421  40.395  48.196  1.00  0.00     0.002 A 
HETATM   27  C   UNL     1      25.066  41.165  49.306  1.00  0.00     0.030 A 
ENDBRANCH  18  21
ENDBRANCH  16  17
ENDBRANCH   1  16
TORSDOF 3
ENDMDL
MODEL 10
REMARK VINA RESULT:      -8.4      3.870      7.668
REMARK  3 active torsions:
REMARK  status: ('A' for Active; 'I' for Inactive)
REMARK    1  A    between atoms: C_3  and  N_4 
REMARK       I    between atoms: N_4  and  C_5 
REMARK    2  A    between atoms: C_5  and  C_6 
REMARK    3  A    between atoms: C_6  and  N_7 
ROOT
HETATM    1  N   UNL     1      28.211  42.641  51.973  1.00  0.00    -0.367 N 
HETATM    2  C   UNL     1      27.876  41.758  51.050  1.00  0.00     0.108 C 
HETATM    3  C   UNL     1      26.620  41.943  50.281  1.00  0.00     0.014 A 
HETATM    4  C   UNL     1      26.076  40.842  49.589  1.00  0.00    -0.042 A 
HETATM    5  C   UNL     1      24.887  40.972  48.861  1.00  0.00     0.008 A 
HETATM    6  C   UNL     1      24.250  42.207  48.783  1.00  0.00     0.001 A 
HETATM    7  C   UNL     1      24.793  43.312  49.432  1.00  0.00     0.001 A 
HETATM    8  C   UNL     1      25.969  43.184  50.174  1.00  0.00     0.016 A 
HETATM    9  C   UNL     1      26.781  39.512  49.671  1.00  0.00     0.069 C 
HETATM   10  C   UNL     1      28.310  39.688  49.753  1.00  0.00     0.028 C 
HETATM   11  C   UNL     1      28.958  38.371  50.193  1.00  0.00     0.038 C 
HETATM   12  C   UNL     1      28.922  40.143  48.422  1.00  0.00     0.038 C 
HETATM   13  N   UNL     1      28.649  40.712  50.780  1.00  0.00    -0.367 N 
HETATM   14  H   UNL     1      29.494  40.577  51.314  1.00  0.00     0.162 HD
HETATM   15  H   UNL     1      27.506  43.324  52.250  1.00  0.00     0.161 HD
ENDROOT
BRANCH   1  16
HETATM   16  C   UNL     1      29.469  42.699  52.733  1.00  0.00     0.224 C 
BRANCH  16  17
HETATM   17  C   UNL     1      29.132  43.265  54.108  1.00  0.00     0.239 C 
HETATM   18  N   UNL     1      30.069  44.151  54.604  1.00  0.00    -0.325 N 
HETATM   19  H   UNL     1      30.763  44.523  53.969  1.00  0.00     0.169 HD
HETATM   20  O   UNL     1      28.048  42.986  54.615  1.00  0.00    -0.271 OA
BRANCH  18  21
HETATM   21  C   UNL     1      30.080  44.721  55.900  1.00  0.00     0.040 A 
HETATM   22  C   UNL     1      30.997  44.235  56.857  1.00  0.00    -0.035 A 
HETATM   23  C   UNL     1      32.032  43.190  56.539  1.00  0.00     0.050 C 
HETATM   24  C   UNL     1      30.954  44.742  58.168  1.00  0.00     0.009 A 
HETATM   25  C   UNL     1      30.032  45.723  58.526  1.00  0.00     0.001 A 
HETATM   26  C   UNL     1      29.141  46.211  57.579  1.00  0.00     0.002 A 
HETATM   27  C   UNL     1      29.166  45.715  56.273  1.00  0.00     0.030 A 
ENDBRANCH  18  21
ENDBRANCH  16  17
ENDBRANCH   1  16
TORSDOF 3
ENDMDL
