MODEL 1
REMARK VINA RESULT:      -8.2      0.000      0.000
REMARK  1 active torsions:
REMARK  status: ('A' for Active; 'I' for Inactive)
REMARK    1  A    between atoms: C_8  and  C_9 
ROOT
HETATM    1  C   UNL     1      29.938  53.411  40.814  1.00  0.00     0.073 C 
HETATM    2  C   UNL     1      28.789  52.467  40.854  1.00  0.00     0.062 A 
HETATM    3  N   UNL     1      27.612  52.889  41.322  1.00  0.00    -0.178 NA
HETATM    4  N   UNL     1      26.812  51.833  41.173  1.00  0.00    -0.262 N 
HETATM    5  H   UNL     1      25.841  51.934  41.447  1.00  0.00     0.191 HD
HETATM    6  C   UNL     1      27.432  50.714  40.683  1.00  0.00     0.134 A 
HETATM    7  C   UNL     1      28.744  51.088  40.436  1.00  0.00     0.032 A 
HETATM    8  C   UNL     1      29.886  50.371  39.774  1.00  0.00     0.120 C 
HETATM    9  S   UNL     1      29.504  48.800  38.963  1.00  0.00    -0.141 SA
HETATM   10  C   UNL     1      28.600  47.955  40.291  1.00  0.00     0.136 C 
HETATM   11  C   UNL     1      28.815  46.450  40.124  1.00  0.00     0.031 C 
HETATM   12  C   UNL     1      27.118  48.302  40.235  1.00  0.00     0.236 C 
HETATM   13  O   UNL     1      26.247  47.446  40.044  1.00  0.00    -0.272 OA
HETATM   14  N   UNL     1      26.688  49.569  40.508  1.00  0.00    -0.311 N 
HETATM   15  H   UNL     1      25.677  49.620  40.576  1.00  0.00     0.170 HD
ENDROOT
BRANCH   8  16
HETATM   16  C   UNL     1      31.074  50.293  40.739  1.00  0.00    -0.029 A 
HETATM   17  C   UNL     1      32.366  50.797  40.358  1.00  0.00    -0.018 A 
HETATM   18  C   UNL     1      33.425  50.756  41.305  1.00  0.00    -0.025 A 
HETATM   19  C   UNL     1      32.675  51.352  39.088  1.00  0.00     0.013 A 
HETATM   20  C   UNL     1      34.690  51.277  40.986  1.00  0.00     0.012 A 
HETATM   21  C   UNL     1      33.217  50.199  42.572  1.00  0.00     0.012 A 
HETATM   22  C   UNL     1      34.946  51.835  39.738  1.00  0.00     0.001 A 
HETATM   23  C   UNL     1      33.939  51.867  38.786  1.00  0.00     0.001 A 
HETATM   24  C   UNL     1      31.979  49.684  42.930  1.00  0.00     0.002 A 
HETATM   25  C   UNL     1      30.923  49.734  42.027  1.00  0.00     0.009 A 
ENDBRANCH   8  16
TORSDOF 1
ENDMDL
MODEL 2
REMARK VINA RESULT:      -7.7     25.703     27.335
REMARK  1 active torsions:
REMARK  status: ('A' for Active; 'I' for Inactive)
REMARK    1  A    between atoms: C_8  and  C_9 
ROOT
HETATM    1  C   UNL     1      36.330  42.130  65.307  1.00  0.00     0.073 C 
HETATM    2  C   UNL     1      36.895  43.460  64.957  1.00  0.00     0.062 A 
HETATM    3  N   UNL     1      36.069  44.451  64.611  1.00  0.00    -0.178 NA
HETATM    4  N   UNL     1      36.882  45.490  64.416  1.00  0.00    -0.262 N 
HETATM    5  H   UNL     1      36.462  46.377  64.162  1.00  0.00     0.191 HD
HETATM    6  C   UNL     1      38.215  45.204  64.560  1.00  0.00     0.134 A 
HETATM    7  C   UNL     1      38.276  43.872  64.939  1.00  0.00     0.032 A 
HETATM    8  C   UNL     1      39.420  43.005  65.380  1.00  0.00     0.120 C 
HETATM    9  S   UNL     1      41.004  43.828  65.670  1.00  0.00    -0.141 SA
HETATM   10  C   UNL     1      41.173  44.771  64.128  1.00  0.00     0.136 C 
HETATM   11  C   UNL     1      42.666  44.937  63.838  1.00  0.00     0.031 C 
HETATM   12  C   UNL     1      40.489  46.126  64.252  1.00  0.00     0.236 C 
HETATM   13  O   UNL     1      41.111  47.190  64.156  1.00  0.00    -0.272 OA
HETATM   14  N   UNL     1      39.131  46.213  64.364  1.00  0.00    -0.311 N 
HETATM   15  H   UNL     1      38.806  47.172  64.291  1.00  0.00     0.170 HD
ENDROOT
BRANCH   8  16
HETATM   16  C   UNL     1      39.521  41.780  64.465  1.00  0.00    -0.029 A 
HETATM   17  C   UNL     1      39.990  40.519  64.971  1.00  0.00    -0.018 A 
HETATM   18  C   UNL     1      40.012  39.395  64.102  1.00  0.00    -0.025 A 
HETATM   19  C   UNL     1      40.434  40.297  66.301  1.00  0.00     0.013 A 
HETATM   20  C   UNL     1      40.424  38.136  64.569  1.00  0.00     0.012 A 
HETATM   21  C   UNL     1      39.619  39.530  62.765  1.00  0.00     0.012 A 
HETATM   22  C   UNL     1      40.829  37.955  65.888  1.00  0.00     0.001 A 
HETATM   23  C   UNL     1      40.841  39.037  66.753  1.00  0.00     0.001 A 
HETATM   24  C   UNL     1      39.196  40.754  62.266  1.00  0.00     0.002 A 
HETATM   25  C   UNL     1      39.144  41.861  63.106  1.00  0.00     0.009 A 
ENDBRANCH   8  16
TORSDOF 1
ENDMDL
MODEL 3
REMARK VINA RESULT:      -7.7      2.331      4.084
REMARK  1 active torsions:
REMARK  status: ('A' for Active; 'I' for Inactive)
REMARK    1  A    between atoms: C_8  and  C_9 
ROOT
HETATM    1  C   UNL     1      32.175  47.712  41.615  1.00  0.00     0.073 C 
HETATM    2  C   UNL     1      31.077  47.852  40.621  1.00  0.00     0.062 A 
HETATM    3  N   UNL     1      30.664  46.777  39.947  1.00  0.00    -0.178 NA
HETATM    4  N   UNL     1      29.662  47.236  39.196  1.00  0.00    -0.262 N 
HETATM    5  H   UNL     1      29.172  46.574  38.606  1.00  0.00     0.191 HD
HETATM    6  C   UNL     1      29.441  48.584  39.306  1.00  0.00     0.134 A 
HETATM    7  C   UNL     1      30.343  49.038  40.256  1.00  0.00     0.032 A 
HETATM    8  C   UNL     1      30.516  50.374  40.919  1.00  0.00     0.120 C 
HETATM    9  S   UNL     1      29.234  51.612  40.609  1.00  0.00    -0.141 SA
HETATM   10  C   UNL     1      29.146  51.547  38.797  1.00  0.00     0.136 C 
HETATM   11  C   UNL     1      28.712  52.927  38.297  1.00  0.00     0.031 C 
HETATM   12  C   UNL     1      28.164  50.473  38.348  1.00  0.00     0.236 C 
HETATM   13  O   UNL     1      27.149  50.739  37.694  1.00  0.00    -0.272 OA
HETATM   14  N   UNL     1      28.434  49.151  38.558  1.00  0.00    -0.311 N 
HETATM   15  H   UNL     1      27.771  48.548  38.081  1.00  0.00     0.170 HD
ENDROOT
BRANCH   8  16
HETATM   16  C   UNL     1      31.940  50.888  40.681  1.00  0.00    -0.029 A 
HETATM   17  C   UNL     1      32.778  51.274  41.784  1.00  0.00    -0.018 A 
HETATM   18  C   UNL     1      34.111  51.690  41.520  1.00  0.00    -0.025 A 
HETATM   19  C   UNL     1      32.377  51.265  43.146  1.00  0.00     0.013 A 
HETATM   20  C   UNL     1      34.975  52.035  42.573  1.00  0.00     0.012 A 
HETATM   21  C   UNL     1      34.581  51.758  40.203  1.00  0.00     0.012 A 
HETATM   22  C   UNL     1      34.550  51.988  43.897  1.00  0.00     0.001 A 
HETATM   23  C   UNL     1      33.249  51.610  44.183  1.00  0.00     0.001 A 
HETATM   24  C   UNL     1      33.763  51.416  39.135  1.00  0.00     0.002 A 
HETATM   25  C   UNL     1      32.463  50.984  39.372  1.00  0.00     0.009 A 
ENDBRANCH   8  16
TORSDOF 1
ENDMDL
MODEL 4
REMARK VINA RESULT:      -7.5     11.021     12.635
REMARK  1 active torsions:
REMARK  status: ('A' for Active; 'I' for Inactive)
REMARK    1  A    between atoms: C_8  and  C_9 
ROOT
HETATM    1  C   UNL     1      25.760  47.505  53.383  1.00  0.00     0.073 C 
HETATM    2  C   UNL     1      25.892  46.039  53.160  1.00  0.00     0.062 A 
HETATM    3  N   UNL     1      26.518  45.293  54.073  1.00  0.00    -0.178 NA
HETATM    4  N   UNL     1      26.414  44.052  53.596  1.00  0.00    -0.262 N 
HETATM    5  H   UNL     1      26.807  43.299  54.148  1.00  0.00     0.191 HD
HETATM    6  C   UNL     1      25.798  43.962  52.375  1.00  0.00     0.134 A 
HETATM    7  C   UNL     1      25.413  45.254  52.050  1.00  0.00     0.032 A 
HETATM    8  C   UNL     1      24.584  45.802  50.924  1.00  0.00     0.120 C 
HETATM    9  S   UNL     1      23.748  44.599  49.864  1.00  0.00    -0.141 SA
HETATM   10  C   UNL     1      25.131  43.493  49.466  1.00  0.00     0.136 C 
HETATM   11  C   UNL     1      24.865  42.882  48.089  1.00  0.00     0.031 C 
HETATM   12  C   UNL     1      25.271  42.408  50.525  1.00  0.00     0.236 C 
HETATM   13  O   UNL     1      25.143  41.207  50.259  1.00  0.00    -0.272 OA
HETATM   14  N   UNL     1      25.657  42.720  51.797  1.00  0.00    -0.311 N 
HETATM   15  H   UNL     1      25.848  41.891  52.350  1.00  0.00     0.170 HD
ENDROOT
BRANCH   8  16
HETATM   16  C   UNL     1      25.394  46.848  50.150  1.00  0.00    -0.029 A 
HETATM   17  C   UNL     1      24.755  48.008  49.591  1.00  0.00    -0.018 A 
HETATM   18  C   UNL     1      25.554  48.980  48.931  1.00  0.00    -0.025 A 
HETATM   19  C   UNL     1      23.361  48.273  49.654  1.00  0.00     0.013 A 
HETATM   20  C   UNL     1      24.974  50.148  48.408  1.00  0.00     0.012 A 
HETATM   21  C   UNL     1      26.934  48.786  48.796  1.00  0.00     0.012 A 
HETATM   22  C   UNL     1      23.606  50.382  48.512  1.00  0.00     0.001 A 
HETATM   23  C   UNL     1      22.798  49.440  49.129  1.00  0.00     0.001 A 
HETATM   24  C   UNL     1      27.547  47.651  49.308  1.00  0.00     0.002 A 
HETATM   25  C   UNL     1      26.788  46.698  49.978  1.00  0.00     0.009 A 
ENDBRANCH   8  16
TORSDOF 1
ENDMDL
MODEL 5
REMARK VINA RESULT:      -7.4     13.357     14.921
REMARK  1 active torsions:
REMARK  status: ('A' for Active; 'I' for Inactive)
REMARK    1  A    between atoms: C_8  and  C_9 
ROOT
HETATM    1  C   UNL     1      19.767  51.631  49.329  1.00  0.00     0.073 C 
HETATM    2  C   UNL     1      20.281  50.235  49.290  1.00  0.00     0.062 A 
HETATM    3  N   UNL     1      21.561  50.001  49.589  1.00  0.00    -0.178 NA
HETATM    4  N   UNL     1      21.670  48.675  49.508  1.00  0.00    -0.262 N 
HETATM    5  H   UNL     1      22.570  48.261  49.722  1.00  0.00     0.191 HD
HETATM    6  C   UNL     1      20.527  48.033  49.106  1.00  0.00     0.134 A 
HETATM    7  C   UNL     1      19.568  49.025  48.968  1.00  0.00     0.032 A 
HETATM    8  C   UNL     1      18.093  48.964  48.692  1.00  0.00     0.120 C 
HETATM    9  S   UNL     1      17.324  47.327  48.716  1.00  0.00    -0.141 SA
HETATM   10  C   UNL     1      18.451  46.418  47.621  1.00  0.00     0.136 C 
HETATM   11  C   UNL     1      17.651  45.306  46.939  1.00  0.00     0.031 C 
HETATM   12  C   UNL     1      19.617  45.841  48.413  1.00  0.00     0.236 C 
HETATM   13  O   UNL     1      19.825  44.625  48.489  1.00  0.00    -0.272 OA
HETATM   14  N   UNL     1      20.548  46.663  48.981  1.00  0.00    -0.311 N 
HETATM   15  H   UNL     1      21.339  46.143  49.348  1.00  0.00     0.170 HD
ENDROOT
BRANCH   8  16
HETATM   16  C   UNL     1      17.769  49.778  47.434  1.00  0.00    -0.029 A 
HETATM   17  C   UNL     1      16.816  50.853  47.477  1.00  0.00    -0.018 A 
HETATM   18  C   UNL     1      16.590  51.618  46.301  1.00  0.00    -0.025 A 
HETATM   19  C   UNL     1      16.072  51.228  48.627  1.00  0.00     0.013 A 
HETATM   20  C   UNL     1      15.698  52.703  46.313  1.00  0.00     0.012 A 
HETATM   21  C   UNL     1      17.259  51.300  45.113  1.00  0.00     0.012 A 
HETATM   22  C   UNL     1      15.006  53.053  47.468  1.00  0.00     0.001 A 
HETATM   23  C   UNL     1      15.187  52.311  48.624  1.00  0.00     0.001 A 
HETATM   24  C   UNL     1      18.156  50.242  45.062  1.00  0.00     0.002 A 
HETATM   25  C   UNL     1      18.410  49.495  46.207  1.00  0.00     0.009 A 
ENDBRANCH   8  16
TORSDOF 1
ENDMDL
MODEL 6
REMARK VINA RESULT:      -7.4     25.702     26.841
REMARK  1 active torsions:
REMARK  status: ('A' for Active; 'I' for Inactive)
REMARK    1  A    between atoms: C_8  and  C_9 
ROOT
HETATM    1  C   UNL     1      42.408  44.799  63.786  1.00  0.00     0.073 C 
HETATM    2  C   UNL     1      41.365  45.778  64.196  1.00  0.00     0.062 A 
HETATM    3  N   UNL     1      41.731  47.012  64.551  1.00  0.00    -0.178 NA
HETATM    4  N   UNL     1      40.575  47.627  64.803  1.00  0.00    -0.262 N 
HETATM    5  H   UNL     1      40.608  48.603  65.075  1.00  0.00     0.191 HD
HETATM    6  C   UNL     1      39.468  46.827  64.687  1.00  0.00     0.134 A 
HETATM    7  C   UNL     1      39.938  45.593  64.266  1.00  0.00     0.032 A 
HETATM    8  C   UNL     1      39.228  44.344  63.828  1.00  0.00     0.120 C 
HETATM    9  S   UNL     1      37.436  44.456  63.609  1.00  0.00    -0.141 SA
HETATM   10  C   UNL     1      36.959  45.220  65.185  1.00  0.00     0.136 C 
HETATM   11  C   UNL     1      35.539  44.759  65.521  1.00  0.00     0.031 C 
HETATM   12  C   UNL     1      37.029  46.738  65.087  1.00  0.00     0.236 C 
HETATM   13  O   UNL     1      36.033  47.455  65.236  1.00  0.00    -0.272 OA
HETATM   14  N   UNL     1      38.229  47.372  64.941  1.00  0.00    -0.311 N 
HETATM   15  H   UNL     1      38.141  48.378  65.037  1.00  0.00     0.170 HD
ENDROOT
BRANCH   8  16
HETATM   16  C   UNL     1      39.669  43.166  64.704  1.00  0.00    -0.029 A 
HETATM   17  C   UNL     1      39.698  41.828  64.180  1.00  0.00    -0.018 A 
HETATM   18  C   UNL     1      40.169  40.775  65.010  1.00  0.00    -0.025 A 
HETATM   19  C   UNL     1      39.297  41.465  62.867  1.00  0.00     0.013 A 
HETATM   20  C   UNL     1      40.254  39.461  64.521  1.00  0.00     0.012 A 
HETATM   21  C   UNL     1      40.558  41.037  66.329  1.00  0.00     0.012 A 
HETATM   22  C   UNL     1      39.873  39.151  63.219  1.00  0.00     0.001 A 
HETATM   23  C   UNL     1      39.388  40.153  62.394  1.00  0.00     0.001 A 
HETATM   24  C   UNL     1      40.499  42.324  66.847  1.00  0.00     0.002 A 
HETATM   25  C   UNL     1      40.065  43.373  66.045  1.00  0.00     0.009 A 
ENDBRANCH   8  16
TORSDOF 1
ENDMDL
MODEL 7
REMARK VINA RESULT:      -7.3     24.953     26.620
REMARK  1 active torsions:
REMARK  status: ('A' for Active; 'I' for Inactive)
REMARK    1  A    between atoms: C_8  and  C_9 
ROOT
HETATM    1  C   UNL     1      40.940  45.642  63.976  1.00  0.00     0.073 C 
HETATM    2  C   UNL     1      40.068  44.439  63.889  1.00  0.00     0.062 A 
HETATM    3  N   UNL     1      40.351  43.491  62.993  1.00  0.00    -0.178 NA
HETATM    4  N   UNL     1      39.424  42.558  63.213  1.00  0.00    -0.262 N 
HETATM    5  H   UNL     1      39.459  41.715  62.651  1.00  0.00     0.191 HD
HETATM    6  C   UNL     1      38.507  42.884  64.178  1.00  0.00     0.134 A 
HETATM    7  C   UNL     1      38.902  44.117  64.672  1.00  0.00     0.032 A 
HETATM    8  C   UNL     1      38.405  44.944  65.823  1.00  0.00     0.120 C 
HETATM    9  S   UNL     1      37.195  44.171  66.922  1.00  0.00    -0.141 SA
HETATM   10  C   UNL     1      35.992  43.559  65.709  1.00  0.00     0.136 C 
HETATM   11  C   UNL     1      34.616  43.537  66.378  1.00  0.00     0.031 C 
HETATM   12  C   UNL     1      36.382  42.170  65.222  1.00  0.00     0.236 C 
HETATM   13  O   UNL     1      35.660  41.182  65.400  1.00  0.00    -0.272 OA
HETATM   14  N   UNL     1      37.503  41.986  64.465  1.00  0.00    -0.311 N 
HETATM   15  H   UNL     1      37.559  41.044  64.093  1.00  0.00     0.170 HD
ENDROOT
BRANCH   8  16
HETATM   16  C   UNL     1      37.984  46.329  65.318  1.00  0.00    -0.029 A 
HETATM   17  C   UNL     1      38.550  47.523  65.885  1.00  0.00    -0.018 A 
HETATM   18  C   UNL     1      38.172  48.783  65.347  1.00  0.00    -0.025 A 
HETATM   19  C   UNL     1      39.483  47.547  66.954  1.00  0.00     0.013 A 
HETATM   20  C   UNL     1      38.735  49.971  65.844  1.00  0.00     0.012 A 
HETATM   21  C   UNL     1      37.235  48.856  64.310  1.00  0.00     0.012 A 
HETATM   22  C   UNL     1      39.665  49.949  66.878  1.00  0.00     0.001 A 
HETATM   23  C   UNL     1      40.034  48.737  67.438  1.00  0.00     0.001 A 
HETATM   24  C   UNL     1      36.664  47.705  63.783  1.00  0.00     0.002 A 
HETATM   25  C   UNL     1      37.036  46.460  64.278  1.00  0.00     0.009 A 
ENDBRANCH   8  16
TORSDOF 1
ENDMDL
MODEL 8
REMARK VINA RESULT:      -7.0      2.713      5.962
REMARK  1 active torsions:
REMARK  status: ('A' for Active; 'I' for Inactive)
REMARK    1  A    between atoms: C_8  and  C_9 
ROOT
HETATM    1  C   UNL     1      26.537  49.507  38.409  1.00  0.00     0.073 C 
HETATM    2  C   UNL     1      27.625  50.487  38.674  1.00  0.00     0.062 A 
HETATM    3  N   UNL     1      27.697  51.599  37.939  1.00  0.00    -0.178 NA
HETATM    4  N   UNL     1      28.731  52.260  38.461  1.00  0.00    -0.262 N 
HETATM    5  H   UNL     1      28.961  53.164  38.067  1.00  0.00     0.191 HD
HETATM    6  C   UNL     1      29.379  51.596  39.471  1.00  0.00     0.134 A 
HETATM    7  C   UNL     1      28.671  50.420  39.664  1.00  0.00     0.032 A 
HETATM    8  C   UNL     1      28.783  49.339  40.700  1.00  0.00     0.120 C 
HETATM    9  S   UNL     1      29.901  49.649  42.087  1.00  0.00    -0.141 SA
HETATM   10  C   UNL     1      31.399  50.157  41.196  1.00  0.00     0.136 C 
HETATM   11  C   UNL     1      32.609  49.773  42.049  1.00  0.00     0.031 C 
HETATM   12  C   UNL     1      31.378  51.656  40.925  1.00  0.00     0.236 C 
HETATM   13  O   UNL     1      32.233  52.421  41.386  1.00  0.00    -0.272 OA
HETATM   14  N   UNL     1      30.468  52.195  40.062  1.00  0.00    -0.311 N 
HETATM   15  H   UNL     1      30.663  53.172  39.868  1.00  0.00     0.170 HD
ENDROOT
BRANCH   8  16
HETATM   16  C   UNL     1      29.014  47.988  40.013  1.00  0.00    -0.029 A 
HETATM   17  C   UNL     1      28.216  46.842  40.355  1.00  0.00    -0.018 A 
HETATM   18  C   UNL     1      28.426  45.626  39.651  1.00  0.00    -0.025 A 
HETATM   19  C   UNL     1      27.207  46.828  41.353  1.00  0.00     0.013 A 
HETATM   20  C   UNL     1      27.639  44.495  39.926  1.00  0.00     0.012 A 
HETATM   21  C   UNL     1      29.421  45.540  38.670  1.00  0.00     0.012 A 
HETATM   22  C   UNL     1      26.643  44.529  40.896  1.00  0.00     0.001 A 
HETATM   23  C   UNL     1      26.431  45.695  41.615  1.00  0.00     0.001 A 
HETATM   24  C   UNL     1      30.213  46.638  38.361  1.00  0.00     0.002 A 
HETATM   25  C   UNL     1      30.009  47.845  39.021  1.00  0.00     0.009 A 
ENDBRANCH   8  16
TORSDOF 1
ENDMDL
MODEL 9
REMARK VINA RESULT:      -6.7     13.251     15.227
REMARK  1 active torsions:
REMARK  status: ('A' for Active; 'I' for Inactive)
REMARK    1  A    between atoms: C_8  and  C_9 
ROOT
HETATM    1  C   UNL     1      16.968  51.022  49.372  1.00  0.00     0.073 C 
HETATM    2  C   UNL     1      17.928  49.923  49.662  1.00  0.00     0.062 A 
HETATM    3  N   UNL     1      18.778  50.050  50.684  1.00  0.00    -0.178 NA
HETATM    4  N   UNL     1      19.443  48.894  50.691  1.00  0.00    -0.262 N 
HETATM    5  H   UNL     1      20.139  48.755  51.414  1.00  0.00     0.191 HD
HETATM    6  C   UNL     1      19.106  48.038  49.675  1.00  0.00     0.134 A 
HETATM    7  C   UNL     1      18.089  48.667  48.974  1.00  0.00     0.032 A 
HETATM    8  C   UNL     1      17.207  48.202  47.851  1.00  0.00     0.120 C 
HETATM    9  S   UNL     1      17.307  46.453  47.404  1.00  0.00    -0.141 SA
HETATM   10  C   UNL     1      19.104  46.258  47.234  1.00  0.00     0.136 C 
HETATM   11  C   UNL     1      19.364  45.153  46.209  1.00  0.00     0.031 C 
HETATM   12  C   UNL     1      19.734  45.913  48.577  1.00  0.00     0.236 C 
HETATM   13  O   UNL     1      20.337  44.851  48.769  1.00  0.00    -0.272 OA
HETATM   14  N   UNL     1      19.751  46.824  49.593  1.00  0.00    -0.311 N 
HETATM   15  H   UNL     1      20.326  46.515  50.371  1.00  0.00     0.170 HD
ENDROOT
BRANCH   8  16
HETATM   16  C   UNL     1      17.348  49.152  46.657  1.00  0.00    -0.029 A 
HETATM   17  C   UNL     1      16.198  49.549  45.890  1.00  0.00    -0.018 A 
HETATM   18  C   UNL     1      16.368  50.476  44.828  1.00  0.00    -0.025 A 
HETATM   19  C   UNL     1      14.875  49.087  46.120  1.00  0.00     0.013 A 
HETATM   20  C   UNL     1      15.263  50.922  44.083  1.00  0.00     0.012 A 
HETATM   21  C   UNL     1      17.642  50.962  44.512  1.00  0.00     0.012 A 
HETATM   22  C   UNL     1      13.978  50.463  44.355  1.00  0.00     0.001 A 
HETATM   23  C   UNL     1      13.785  49.539  45.370  1.00  0.00     0.001 A 
HETATM   24  C   UNL     1      18.758  50.556  45.231  1.00  0.00     0.002 A 
HETATM   25  C   UNL     1      18.612  49.667  46.290  1.00  0.00     0.009 A 
ENDBRANCH   8  16
TORSDOF 1
ENDMDL
MODEL 10
REMARK VINA RESULT:      -6.7      2.687      6.541
REMARK  1 active torsions:
REMARK  status: ('A' for Active; 'I' for Inactive)
REMARK    1  A    between atoms: C_8  and  C_9 
ROOT
HETATM    1  C   UNL     1      24.707  47.243  38.941  1.00  0.00     0.073 C 
HETATM    2  C   UNL     1      25.370  48.567  38.789  1.00  0.00     0.062 A 
HETATM    3  N   UNL     1      24.887  49.442  37.904  1.00  0.00    -0.178 NA
HETATM    4  N   UNL     1      25.665  50.514  38.058  1.00  0.00    -0.262 N 
HETATM    5  H   UNL     1      25.463  51.329  37.491  1.00  0.00     0.191 HD
HETATM    6  C   UNL     1      26.680  50.354  38.966  1.00  0.00     0.134 A 
HETATM    7  C   UNL     1      26.515  49.083  39.495  1.00  0.00     0.032 A 
HETATM    8  C   UNL     1      27.206  48.367  40.620  1.00  0.00     0.120 C 
HETATM    9  S   UNL     1      28.342  49.342  41.634  1.00  0.00    -0.141 SA
HETATM   10  C   UNL     1      29.358  50.113  40.342  1.00  0.00     0.136 C 
HETATM   11  C   UNL     1      30.750  50.365  40.924  1.00  0.00     0.031 C 
HETATM   12  C   UNL     1      28.723  51.414  39.869  1.00  0.00     0.236 C 
HETATM   13  O   UNL     1      29.289  52.507  39.992  1.00  0.00    -0.272 OA
HETATM   14  N   UNL     1      27.543  51.404  39.182  1.00  0.00    -0.311 N 
HETATM   15  H   UNL     1      27.316  52.319  38.806  1.00  0.00     0.170 HD
ENDROOT
BRANCH   8  16
HETATM   16  C   UNL     1      27.811  47.057  40.102  1.00  0.00    -0.029 A 
HETATM   17  C   UNL     1      27.437  45.794  40.679  1.00  0.00    -0.018 A 
HETATM   18  C   UNL     1      27.979  44.602  40.130  1.00  0.00    -0.025 A 
HETATM   19  C   UNL     1      26.543  45.638  41.771  1.00  0.00     0.013 A 
HETATM   20  C   UNL     1      27.606  43.346  40.637  1.00  0.00     0.012 A 
HETATM   21  C   UNL     1      28.892  44.664  39.070  1.00  0.00     0.012 A 
HETATM   22  C   UNL     1      26.707  43.234  41.693  1.00  0.00     0.001 A 
HETATM   23  C   UNL     1      26.181  44.381  42.265  1.00  0.00     0.001 A 
HETATM   24  C   UNL     1      29.278  45.884  38.533  1.00  0.00     0.002 A 
HETATM   25  C   UNL     1      28.742  47.063  39.040  1.00  0.00     0.009 A 
ENDBRANCH   8  16
TORSDOF 1
ENDMDL
