MODEL 1
REMARK VINA RESULT:      -9.6      0.000      0.000
REMARK  9 active torsions:
REMARK  status: ('A' for Active; 'I' for Inactive)
REMARK    1  A    between atoms: C_2  and  O_3 
REMARK    2  A    between atoms: O_3  and  C_4 
REMARK    3  A    between atoms: C_4  and  C_5 
REMARK    4  A    between atoms: C_8  and  N_9 
REMARK       I    between atoms: N_9  and  C_10 
REMARK    5  A    between atoms: C_10  and  C_11 
REMARK    6  A    between atoms: C_11  and  C_12 
REMARK    7  A    between atoms: N_13  and  C_14 
REMARK    8  A    between atoms: C_14  and  C_15 
REMARK    9  A    between atoms: N_23  and  C_24 
ROOT
HETATM    1  C   UNL     1      26.699  42.592  50.683  1.00  0.00     0.191 C 
HETATM    2  N   UNL     1      27.203  41.352  51.238  1.00  0.00    -0.315 N 
HETATM    3  C   UNL     1      27.730  41.572  52.514  1.00  0.00     0.333 C 
HETATM    4  O   UNL     1      27.860  40.675  53.333  1.00  0.00    -0.246 OA
HETATM    5  N   UNL     1      27.999  42.922  52.640  1.00  0.00    -0.232 N 
HETATM    6  C   UNL     1      27.520  43.573  51.519  1.00  0.00     0.256 C 
HETATM    7  O   UNL     1      27.635  44.748  51.193  1.00  0.00    -0.270 OA
ENDROOT
BRANCH   1   8
HETATM    8  C   UNL     1      25.211  42.764  50.973  1.00  0.00     0.138 C 
BRANCH   8   9
HETATM    9  C   UNL     1      24.781  44.215  51.019  1.00  0.00     0.224 C 
HETATM   10  N   UNL     1      25.019  44.897  49.837  1.00  0.00    -0.327 N 
HETATM   11  H   UNL     1      25.498  44.401  49.096  1.00  0.00     0.169 HD
HETATM   12  O   UNL     1      24.237  44.659  52.023  1.00  0.00    -0.273 OA
BRANCH  10  13
HETATM   13  C   UNL     1      24.576  46.197  49.504  1.00  0.00     0.034 A 
HETATM   14  C   UNL     1      23.332  46.480  48.933  1.00  0.00     0.030 A 
HETATM   15  C   UNL     1      22.981  47.793  48.590  1.00  0.00     0.020 A 
HETATM   16  C   UNL     1      23.871  48.848  48.819  1.00  0.00     0.039 A 
HETATM   17  C   UNL     1      25.115  48.571  49.398  1.00  0.00     0.020 A 
HETATM   18  C   UNL     1      25.462  47.257  49.738  1.00  0.00     0.030 A 
BRANCH  16  19
HETATM   19  C   UNL     1      23.549  50.260  48.475  1.00  0.00     0.293 C 
HETATM   20  O   UNL     1      23.648  50.714  47.346  1.00  0.00    -0.259 OA
BRANCH  19  21
HETATM   21  O   UNL     1      23.147  50.942  49.576  1.00  0.00    -0.318 OA
BRANCH  21  22
HETATM   22  C   UNL     1      21.760  50.809  49.924  1.00  0.00     0.174 C 
HETATM   23  C   UNL     1      20.879  51.206  48.756  1.00  0.00     0.034 C 
ENDBRANCH  21  22
ENDBRANCH  19  21
ENDBRANCH  16  19
ENDBRANCH  10  13
ENDBRANCH   8   9
ENDBRANCH   1   8
BRANCH   2  24
HETATM   24  C   UNL     1      26.730  40.050  50.800  1.00  0.00     0.168 C 
BRANCH  24  25
HETATM   25  C   UNL     1      27.697  39.348  49.889  1.00  0.00    -0.023 A 
HETATM   26  C   UNL     1      27.469  39.260  48.519  1.00  0.00     0.125 A 
HETATM   27  N   UNL     1      28.302  38.650  47.645  1.00  0.00    -0.273 NA
HETATM   28  C   UNL     1      29.433  38.118  48.157  1.00  0.00     0.116 A 
HETATM   29  C   UNL     1      29.763  38.159  49.500  1.00  0.00     0.020 A 
HETATM   30  C   UNL     1      28.879  38.781  50.375  1.00  0.00     0.012 A 
ENDBRANCH  24  25
ENDBRANCH   2  24
BRANCH   5  31
HETATM   31  C   UNL     1      28.681  43.532  53.741  1.00  0.00     0.047 A 
HETATM   32  C   UNL     1      29.943  43.083  54.169  1.00  0.00     0.031 A 
HETATM   33  C   UNL     1      30.620  43.679  55.243  1.00  0.00     0.009 A 
HETATM   34  C   UNL     1      30.056  44.752  55.929  1.00  0.00    -0.062 A 
HETATM   35  C   UNL     1      30.778  45.412  57.065  1.00  0.00     0.048 C 
HETATM   36  C   UNL     1      28.809  45.220  55.518  1.00  0.00     0.009 A 
HETATM   37  C   UNL     1      28.133  44.616  54.446  1.00  0.00     0.031 A 
ENDBRANCH   5  31
TORSDOF 9
ENDMDL
MODEL 2
REMARK VINA RESULT:      -9.4      2.815      8.750
REMARK  9 active torsions:
REMARK  status: ('A' for Active; 'I' for Inactive)
REMARK    1  A    between atoms: C_2  and  O_3 
REMARK    2  A    between atoms: O_3  and  C_4 
REMARK    3  A    between atoms: C_4  and  C_5 
REMARK    4  A    between atoms: C_8  and  N_9 
REMARK       I    between atoms: N_9  and  C_10 
REMARK    5  A    between atoms: C_10  and  C_11 
REMARK    6  A    between atoms: C_11  and  C_12 
REMARK    7  A    between atoms: N_13  and  C_14 
REMARK    8  A    between atoms: C_14  and  C_15 
REMARK    9  A    between atoms: N_23  and  C_24 
ROOT
HETATM    1  C   UNL     1      27.109  44.147  51.881  1.00  0.00     0.191 C 
HETATM    2  N   UNL     1      26.934  45.102  52.958  1.00  0.00    -0.315 N 
HETATM    3  C   UNL     1      26.187  46.197  52.514  1.00  0.00     0.333 C 
HETATM    4  O   UNL     1      25.584  46.933  53.282  1.00  0.00    -0.246 OA
HETATM    5  N   UNL     1      26.245  46.226  51.133  1.00  0.00    -0.232 N 
HETATM    6  C   UNL     1      26.896  45.089  50.696  1.00  0.00     0.256 C 
HETATM    7  O   UNL     1      27.236  44.774  49.563  1.00  0.00    -0.270 OA
ENDROOT
BRANCH   1   8
HETATM    8  C   UNL     1      26.024  43.075  51.909  1.00  0.00     0.138 C 
BRANCH   8   9
HETATM    9  C   UNL     1      26.009  42.217  50.663  1.00  0.00     0.224 C 
HETATM   10  N   UNL     1      27.245  41.677  50.351  1.00  0.00    -0.327 N 
HETATM   11  H   UNL     1      28.033  41.944  50.926  1.00  0.00     0.169 HD
HETATM   12  O   UNL     1      24.955  42.024  50.067  1.00  0.00    -0.273 OA
BRANCH  10  13
HETATM   13  C   UNL     1      27.521  40.703  49.364  1.00  0.00     0.034 A 
HETATM   14  C   UNL     1      27.671  39.339  49.630  1.00  0.00     0.030 A 
HETATM   15  C   UNL     1      27.988  38.438  48.603  1.00  0.00     0.020 A 
HETATM   16  C   UNL     1      28.155  38.890  47.290  1.00  0.00     0.039 A 
HETATM   17  C   UNL     1      27.998  40.254  47.018  1.00  0.00     0.020 A 
HETATM   18  C   UNL     1      27.682  41.151  48.047  1.00  0.00     0.030 A 
BRANCH  16  19
HETATM   19  C   UNL     1      28.491  37.977  46.162  1.00  0.00     0.293 C 
HETATM   20  O   UNL     1      29.256  37.033  46.270  1.00  0.00    -0.259 OA
BRANCH  19  21
HETATM   21  O   UNL     1      27.838  38.351  45.034  1.00  0.00    -0.318 OA
BRANCH  21  22
HETATM   22  C   UNL     1      28.608  38.315  43.823  1.00  0.00     0.174 C 
HETATM   23  C   UNL     1      29.132  39.698  43.484  1.00  0.00     0.034 C 
ENDBRANCH  21  22
ENDBRANCH  19  21
ENDBRANCH  16  19
ENDBRANCH  10  13
ENDBRANCH   8   9
ENDBRANCH   1   8
BRANCH   2  24
HETATM   24  C   UNL     1      27.017  44.726  54.358  1.00  0.00     0.168 C 
BRANCH  24  25
HETATM   25  C   UNL     1      28.430  44.590  54.849  1.00  0.00    -0.023 A 
HETATM   26  C   UNL     1      29.032  45.587  55.611  1.00  0.00     0.125 A 
HETATM   27  N   UNL     1      30.296  45.522  56.090  1.00  0.00    -0.273 NA
HETATM   28  C   UNL     1      30.992  44.397  55.814  1.00  0.00     0.116 A 
HETATM   29  C   UNL     1      30.487  43.343  55.075  1.00  0.00     0.020 A 
HETATM   30  C   UNL     1      29.189  43.445  54.585  1.00  0.00     0.012 A 
ENDBRANCH  24  25
ENDBRANCH   2  24
BRANCH   5  31
HETATM   31  C   UNL     1      25.733  47.275  50.304  1.00  0.00     0.047 A 
HETATM   32  C   UNL     1      24.354  47.437  50.084  1.00  0.00     0.031 A 
HETATM   33  C   UNL     1      23.844  48.465  49.277  1.00  0.00     0.009 A 
HETATM   34  C   UNL     1      24.701  49.373  48.661  1.00  0.00    -0.062 A 
HETATM   35  C   UNL     1      24.170  50.490  47.813  1.00  0.00     0.048 C 
HETATM   36  C   UNL     1      26.073  49.238  48.871  1.00  0.00     0.009 A 
HETATM   37  C   UNL     1      26.577  48.203  49.675  1.00  0.00     0.031 A 
ENDBRANCH   5  31
TORSDOF 9
ENDMDL
MODEL 3
REMARK VINA RESULT:      -9.3      3.175      5.903
REMARK  9 active torsions:
REMARK  status: ('A' for Active; 'I' for Inactive)
REMARK    1  A    between atoms: C_2  and  O_3 
REMARK    2  A    between atoms: O_3  and  C_4 
REMARK    3  A    between atoms: C_4  and  C_5 
REMARK    4  A    between atoms: C_8  and  N_9 
REMARK       I    between atoms: N_9  and  C_10 
REMARK    5  A    between atoms: C_10  and  C_11 
REMARK    6  A    between atoms: C_11  and  C_12 
REMARK    7  A    between atoms: N_13  and  C_14 
REMARK    8  A    between atoms: C_14  and  C_15 
REMARK    9  A    between atoms: N_23  and  C_24 
ROOT
HETATM    1  C   UNL     1      24.746  46.570  49.306  1.00  0.00     0.191 C 
HETATM    2  N   UNL     1      24.095  45.305  49.584  1.00  0.00    -0.315 N 
HETATM    3  C   UNL     1      24.668  44.704  50.708  1.00  0.00     0.333 C 
HETATM    4  O   UNL     1      24.083  43.858  51.369  1.00  0.00    -0.246 OA
HETATM    5  N   UNL     1      25.914  45.269  50.910  1.00  0.00    -0.232 N 
HETATM    6  C   UNL     1      26.074  46.311  50.017  1.00  0.00     0.256 C 
HETATM    7  O   UNL     1      27.058  47.007  49.802  1.00  0.00    -0.270 OA
ENDROOT
BRANCH   1   8
HETATM    8  C   UNL     1      24.006  47.729  49.968  1.00  0.00     0.138 C 
BRANCH   8   9
HETATM    9  C   UNL     1      23.131  48.499  49.003  1.00  0.00     0.224 C 
HETATM   10  N   UNL     1      21.827  48.653  49.445  1.00  0.00    -0.327 N 
HETATM   11  H   UNL     1      21.568  48.199  50.311  1.00  0.00     0.169 HD
HETATM   12  O   UNL     1      23.613  48.956  47.973  1.00  0.00    -0.273 OA
BRANCH  10  13
HETATM   13  C   UNL     1      20.825  49.464  48.864  1.00  0.00     0.034 A 
HETATM   14  C   UNL     1      20.716  50.842  49.069  1.00  0.00     0.030 A 
HETATM   15  C   UNL     1      19.666  51.572  48.493  1.00  0.00     0.020 A 
HETATM   16  C   UNL     1      18.710  50.933  47.698  1.00  0.00     0.039 A 
HETATM   17  C   UNL     1      18.820  49.554  47.484  1.00  0.00     0.020 A 
HETATM   18  C   UNL     1      19.870  48.827  48.061  1.00  0.00     0.030 A 
BRANCH  16  19
HETATM   19  C   UNL     1      17.577  51.659  47.062  1.00  0.00     0.293 C 
HETATM   20  O   UNL     1      17.710  52.396  46.098  1.00  0.00    -0.259 OA
BRANCH  19  21
HETATM   21  O   UNL     1      16.413  51.387  47.703  1.00  0.00    -0.318 OA
BRANCH  21  22
HETATM   22  C   UNL     1      15.760  52.506  48.321  1.00  0.00     0.174 C 
HETATM   23  C   UNL     1      15.851  52.407  49.832  1.00  0.00     0.034 C 
ENDBRANCH  21  22
ENDBRANCH  19  21
ENDBRANCH  16  19
ENDBRANCH  10  13
ENDBRANCH   8   9
ENDBRANCH   1   8
BRANCH   2  24
HETATM   24  C   UNL     1      22.746  45.004  49.137  1.00  0.00     0.168 C 
BRANCH  24  25
HETATM   25  C   UNL     1      22.624  44.932  47.641  1.00  0.00    -0.023 A 
HETATM   26  C   UNL     1      21.921  45.895  46.924  1.00  0.00     0.125 A 
HETATM   27  N   UNL     1      21.780  45.892  45.578  1.00  0.00    -0.273 NA
HETATM   28  C   UNL     1      22.389  44.889  44.908  1.00  0.00     0.116 A 
HETATM   29  C   UNL     1      23.120  43.887  45.520  1.00  0.00     0.020 A 
HETATM   30  C   UNL     1      23.234  43.911  46.906  1.00  0.00     0.012 A 
ENDBRANCH  24  25
ENDBRANCH   2  24
BRANCH   5  31
HETATM   31  C   UNL     1      26.879  44.826  51.870  1.00  0.00     0.047 A 
HETATM   32  C   UNL     1      26.893  45.320  53.186  1.00  0.00     0.031 A 
HETATM   33  C   UNL     1      27.833  44.887  54.133  1.00  0.00     0.009 A 
HETATM   34  C   UNL     1      28.794  43.938  53.795  1.00  0.00    -0.062 A 
HETATM   35  C   UNL     1      29.791  43.451  54.804  1.00  0.00     0.048 C 
HETATM   36  C   UNL     1      28.795  43.428  52.498  1.00  0.00     0.009 A 
HETATM   37  C   UNL     1      27.856  43.869  51.552  1.00  0.00     0.031 A 
ENDBRANCH   5  31
TORSDOF 9
ENDMDL
MODEL 4
REMARK VINA RESULT:      -9.0      2.388      8.956
REMARK  9 active torsions:
REMARK  status: ('A' for Active; 'I' for Inactive)
REMARK    1  A    between atoms: C_2  and  O_3 
REMARK    2  A    between atoms: O_3  and  C_4 
REMARK    3  A    between atoms: C_4  and  C_5 
REMARK    4  A    between atoms: C_8  and  N_9 
REMARK       I    between atoms: N_9  and  C_10 
REMARK    5  A    between atoms: C_10  and  C_11 
REMARK    6  A    between atoms: C_11  and  C_12 
REMARK    7  A    between atoms: N_13  and  C_14 
REMARK    8  A    between atoms: C_14  and  C_15 
REMARK    9  A    between atoms: N_23  and  C_24 
ROOT
HETATM    1  C   UNL     1      23.356  45.413  49.500  1.00  0.00     0.191 C 
HETATM    2  N   UNL     1      23.647  46.830  49.602  1.00  0.00    -0.315 N 
HETATM    3  C   UNL     1      24.759  47.036  50.425  1.00  0.00     0.333 C 
HETATM    4  O   UNL     1      25.432  48.055  50.374  1.00  0.00    -0.246 OA
HETATM    5  N   UNL     1      24.932  45.907  51.203  1.00  0.00    -0.232 N 
HETATM    6  C   UNL     1      24.037  44.941  50.784  1.00  0.00     0.256 C 
HETATM    7  O   UNL     1      23.800  43.840  51.263  1.00  0.00    -0.270 OA
ENDROOT
BRANCH   1   8
HETATM    8  C   UNL     1      24.034  44.795  48.281  1.00  0.00     0.138 C 
BRANCH   8   9
HETATM    9  C   UNL     1      24.482  43.368  48.515  1.00  0.00     0.224 C 
HETATM   10  N   UNL     1      25.839  43.250  48.764  1.00  0.00    -0.327 N 
HETATM   11  H   UNL     1      26.402  44.089  48.707  1.00  0.00     0.169 HD
HETATM   12  O   UNL     1      23.656  42.462  48.519  1.00  0.00    -0.273 OA
BRANCH  10  13
HETATM   13  C   UNL     1      26.526  42.090  49.190  1.00  0.00     0.034 A 
HETATM   14  C   UNL     1      26.509  41.607  50.502  1.00  0.00     0.030 A 
HETATM   15  C   UNL     1      27.252  40.473  50.858  1.00  0.00     0.020 A 
HETATM   16  C   UNL     1      28.022  39.801  49.904  1.00  0.00     0.039 A 
HETATM   17  C   UNL     1      28.036  40.277  48.587  1.00  0.00     0.020 A 
HETATM   18  C   UNL     1      27.293  41.411  48.235  1.00  0.00     0.030 A 
BRANCH  16  19
HETATM   19  C   UNL     1      28.829  38.592  50.228  1.00  0.00     0.293 C 
HETATM   20  O   UNL     1      29.665  38.564  51.117  1.00  0.00    -0.259 OA
BRANCH  19  21
HETATM   21  O   UNL     1      28.504  37.565  49.405  1.00  0.00    -0.318 OA
BRANCH  21  22
HETATM   22  C   UNL     1      27.307  36.847  49.740  1.00  0.00     0.174 C 
HETATM   23  C   UNL     1      26.452  36.633  48.506  1.00  0.00     0.034 C 
ENDBRANCH  21  22
ENDBRANCH  19  21
ENDBRANCH  16  19
ENDBRANCH  10  13
ENDBRANCH   8   9
ENDBRANCH   1   8
BRANCH   2  24
HETATM   24  C   UNL     1      23.230  47.788  48.594  1.00  0.00     0.168 C 
BRANCH  24  25
HETATM   25  C   UNL     1      22.174  48.738  49.085  1.00  0.00    -0.023 A 
HETATM   26  C   UNL     1      20.842  48.350  49.187  1.00  0.00     0.125 A 
HETATM   27  N   UNL     1      19.846  49.152  49.628  1.00  0.00    -0.273 NA
HETATM   28  C   UNL     1      20.197  50.401  50.008  1.00  0.00     0.116 A 
HETATM   29  C   UNL     1      21.492  50.884  49.958  1.00  0.00     0.020 A 
HETATM   30  C   UNL     1      22.491  50.039  49.486  1.00  0.00     0.012 A 
ENDBRANCH  24  25
ENDBRANCH   2  24
BRANCH   5  31
HETATM   31  C   UNL     1      25.871  45.777  52.277  1.00  0.00     0.047 A 
HETATM   32  C   UNL     1      26.886  44.805  52.257  1.00  0.00     0.031 A 
HETATM   33  C   UNL     1      27.812  44.675  53.303  1.00  0.00     0.009 A 
HETATM   34  C   UNL     1      27.755  45.518  54.409  1.00  0.00    -0.062 A 
HETATM   35  C   UNL     1      28.751  45.405  55.524  1.00  0.00     0.048 C 
HETATM   36  C   UNL     1      26.761  46.495  54.447  1.00  0.00     0.009 A 
HETATM   37  C   UNL     1      25.833  46.617  53.400  1.00  0.00     0.031 A 
ENDBRANCH   5  31
TORSDOF 9
ENDMDL
MODEL 5
REMARK VINA RESULT:      -8.8      1.843      2.452
REMARK  9 active torsions:
REMARK  status: ('A' for Active; 'I' for Inactive)
REMARK    1  A    between atoms: C_2  and  O_3 
REMARK    2  A    between atoms: O_3  and  C_4 
REMARK    3  A    between atoms: C_4  and  C_5 
REMARK    4  A    between atoms: C_8  and  N_9 
REMARK       I    between atoms: N_9  and  C_10 
REMARK    5  A    between atoms: C_10  and  C_11 
REMARK    6  A    between atoms: C_11  and  C_12 
REMARK    7  A    between atoms: N_13  and  C_14 
REMARK    8  A    between atoms: C_14  and  C_15 
REMARK    9  A    between atoms: N_23  and  C_24 
ROOT
HETATM    1  C   UNL     1      26.510  43.008  49.430  1.00  0.00     0.191 C 
HETATM    2  N   UNL     1      27.015  41.671  49.668  1.00  0.00    -0.315 N 
HETATM    3  C   UNL     1      27.557  41.581  50.953  1.00  0.00     0.333 C 
HETATM    4  O   UNL     1      27.693  40.514  51.534  1.00  0.00    -0.246 OA
HETATM    5  N   UNL     1      27.833  42.862  51.393  1.00  0.00    -0.232 N 
HETATM    6  C   UNL     1      27.345  43.761  50.466  1.00  0.00     0.256 C 
HETATM    7  O   UNL     1      27.461  44.979  50.427  1.00  0.00    -0.270 OA
ENDROOT
BRANCH   1   8
HETATM    8  C   UNL     1      25.026  43.109  49.770  1.00  0.00     0.138 C 
BRANCH   8   9
HETATM    9  C   UNL     1      24.342  44.276  49.090  1.00  0.00     0.224 C 
HETATM   10  N   UNL     1      24.358  45.438  49.843  1.00  0.00    -0.327 N 
HETATM   11  H   UNL     1      24.754  45.390  50.773  1.00  0.00     0.169 HD
HETATM   12  O   UNL     1      23.887  44.142  47.960  1.00  0.00    -0.273 OA
BRANCH  10  13
HETATM   13  C   UNL     1      23.965  46.728  49.420  1.00  0.00     0.034 A 
HETATM   14  C   UNL     1      24.793  47.853  49.462  1.00  0.00     0.030 A 
HETATM   15  C   UNL     1      24.316  49.111  49.065  1.00  0.00     0.020 A 
HETATM   16  C   UNL     1      23.001  49.261  48.615  1.00  0.00     0.039 A 
HETATM   17  C   UNL     1      22.170  48.135  48.564  1.00  0.00     0.020 A 
HETATM   18  C   UNL     1      22.650  46.881  48.962  1.00  0.00     0.030 A 
BRANCH  16  19
HETATM   19  C   UNL     1      22.444  50.572  48.181  1.00  0.00     0.293 C 
HETATM   20  O   UNL     1      23.089  51.608  48.187  1.00  0.00    -0.259 OA
BRANCH  19  21
HETATM   21  O   UNL     1      21.151  50.439  47.796  1.00  0.00    -0.318 OA
BRANCH  21  22
HETATM   22  C   UNL     1      20.222  51.360  48.387  1.00  0.00     0.174 C 
HETATM   23  C   UNL     1      20.237  51.235  49.898  1.00  0.00     0.034 C 
ENDBRANCH  21  22
ENDBRANCH  19  21
ENDBRANCH  16  19
ENDBRANCH  10  13
ENDBRANCH   8   9
ENDBRANCH   1   8
BRANCH   2  24
HETATM   24  C   UNL     1      26.532  40.511  48.938  1.00  0.00     0.168 C 
BRANCH  24  25
HETATM   25  C   UNL     1      26.665  40.655  47.448  1.00  0.00    -0.023 A 
HETATM   26  C   UNL     1      27.911  40.772  46.840  1.00  0.00     0.125 A 
HETATM   27  N   UNL     1      28.099  40.896  45.506  1.00  0.00    -0.273 NA
HETATM   28  C   UNL     1      26.991  40.880  44.734  1.00  0.00     0.116 A 
HETATM   29  C   UNL     1      25.707  40.758  45.233  1.00  0.00     0.020 A 
HETATM   30  C   UNL     1      25.546  40.646  46.610  1.00  0.00     0.012 A 
ENDBRANCH  24  25
ENDBRANCH   2  24
BRANCH   5  31
HETATM   31  C   UNL     1      28.531  43.191  52.600  1.00  0.00     0.047 A 
HETATM   32  C   UNL     1      29.844  42.751  52.838  1.00  0.00     0.031 A 
HETATM   33  C   UNL     1      30.536  43.074  54.015  1.00  0.00     0.009 A 
HETATM   34  C   UNL     1      29.934  43.854  54.999  1.00  0.00    -0.062 A 
HETATM   35  C   UNL     1      30.669  44.225  56.252  1.00  0.00     0.048 C 
HETATM   36  C   UNL     1      28.634  44.309  54.782  1.00  0.00     0.009 A 
HETATM   37  C   UNL     1      27.945  43.977  53.604  1.00  0.00     0.031 A 
ENDBRANCH   5  31
TORSDOF 9
ENDMDL
MODEL 6
REMARK VINA RESULT:      -8.6      3.118      8.473
REMARK  9 active torsions:
REMARK  status: ('A' for Active; 'I' for Inactive)
REMARK    1  A    between atoms: C_2  and  O_3 
REMARK    2  A    between atoms: O_3  and  C_4 
REMARK    3  A    between atoms: C_4  and  C_5 
REMARK    4  A    between atoms: C_8  and  N_9 
REMARK       I    between atoms: N_9  and  C_10 
REMARK    5  A    between atoms: C_10  and  C_11 
REMARK    6  A    between atoms: C_11  and  C_12 
REMARK    7  A    between atoms: N_13  and  C_14 
REMARK    8  A    between atoms: C_14  and  C_15 
REMARK    9  A    between atoms: N_23  and  C_24 
ROOT
HETATM    1  C   UNL     1      24.712  42.750  49.625  1.00  0.00     0.191 C 
HETATM    2  N   UNL     1      24.176  42.555  48.293  1.00  0.00    -0.315 N 
HETATM    3  C   UNL     1      23.638  43.751  47.809  1.00  0.00     0.333 C 
HETATM    4  O   UNL     1      23.479  43.963  46.615  1.00  0.00    -0.246 OA
HETATM    5  N   UNL     1      23.395  44.581  48.888  1.00  0.00    -0.232 N 
HETATM    6  C   UNL     1      23.901  43.982  50.026  1.00  0.00     0.256 C 
HETATM    7  O   UNL     1      23.814  44.335  51.195  1.00  0.00    -0.270 OA
ENDROOT
BRANCH   1   8
HETATM    8  C   UNL     1      26.200  43.086  49.580  1.00  0.00     0.138 C 
BRANCH   8   9
HETATM    9  C   UNL     1      26.926  42.723  50.857  1.00  0.00     0.224 C 
HETATM   10  N   UNL     1      27.939  43.609  51.185  1.00  0.00    -0.327 N 
HETATM   11  H   UNL     1      28.138  44.358  50.534  1.00  0.00     0.169 HD
HETATM   12  O   UNL     1      26.564  41.752  51.510  1.00  0.00    -0.273 OA
BRANCH  10  13
HETATM   13  C   UNL     1      28.675  43.646  52.391  1.00  0.00     0.034 A 
HETATM   14  C   UNL     1      29.805  42.864  52.645  1.00  0.00     0.030 A 
HETATM   15  C   UNL     1      30.457  42.925  53.885  1.00  0.00     0.020 A 
HETATM   16  C   UNL     1      29.988  43.775  54.891  1.00  0.00     0.039 A 
HETATM   17  C   UNL     1      28.861  44.566  54.639  1.00  0.00     0.020 A 
HETATM   18  C   UNL     1      28.212  44.502  53.399  1.00  0.00     0.030 A 
BRANCH  16  19
HETATM   19  C   UNL     1      30.642  43.879  56.225  1.00  0.00     0.293 C 
HETATM   20  O   UNL     1      30.963  42.907  56.891  1.00  0.00    -0.259 OA
BRANCH  19  21
HETATM   21  O   UNL     1      30.815  45.177  56.574  1.00  0.00    -0.318 OA
BRANCH  21  22
HETATM   22  C   UNL     1      30.444  45.521  57.917  1.00  0.00     0.174 C 
HETATM   23  C   UNL     1      29.038  46.089  57.952  1.00  0.00     0.034 C 
ENDBRANCH  21  22
ENDBRANCH  19  21
ENDBRANCH  16  19
ENDBRANCH  10  13
ENDBRANCH   8   9
ENDBRANCH   1   8
BRANCH   2  24
HETATM   24  C   UNL     1      24.627  41.488  47.417  1.00  0.00     0.168 C 
BRANCH  24  25
HETATM   25  C   UNL     1      23.577  40.442  47.173  1.00  0.00    -0.023 A 
HETATM   26  C   UNL     1      22.265  40.617  47.603  1.00  0.00     0.125 A 
HETATM   27  N   UNL     1      21.273  39.719  47.408  1.00  0.00    -0.273 NA
HETATM   28  C   UNL     1      21.596  38.596  46.731  1.00  0.00     0.116 A 
HETATM   29  C   UNL     1      22.864  38.326  46.250  1.00  0.00     0.020 A 
HETATM   30  C   UNL     1      23.867  39.263  46.479  1.00  0.00     0.012 A 
ENDBRANCH  24  25
ENDBRANCH   2  24
BRANCH   5  31
HETATM   31  C   UNL     1      22.711  45.838  48.829  1.00  0.00     0.047 A 
HETATM   32  C   UNL     1      21.347  45.922  48.504  1.00  0.00     0.031 A 
HETATM   33  C   UNL     1      20.669  47.149  48.450  1.00  0.00     0.009 A 
HETATM   34  C   UNL     1      21.337  48.340  48.724  1.00  0.00    -0.062 A 
HETATM   35  C   UNL     1      20.620  49.657  48.691  1.00  0.00     0.048 C 
HETATM   36  C   UNL     1      22.689  48.281  49.057  1.00  0.00     0.009 A 
HETATM   37  C   UNL     1      23.364  47.050  49.103  1.00  0.00     0.031 A 
ENDBRANCH   5  31
TORSDOF 9
ENDMDL
MODEL 7
REMARK VINA RESULT:      -8.4      2.253      2.839
REMARK  9 active torsions:
REMARK  status: ('A' for Active; 'I' for Inactive)
REMARK    1  A    between atoms: C_2  and  O_3 
REMARK    2  A    between atoms: O_3  and  C_4 
REMARK    3  A    between atoms: C_4  and  C_5 
REMARK    4  A    between atoms: C_8  and  N_9 
REMARK       I    between atoms: N_9  and  C_10 
REMARK    5  A    between atoms: C_10  and  C_11 
REMARK    6  A    between atoms: C_11  and  C_12 
REMARK    7  A    between atoms: N_13  and  C_14 
REMARK    8  A    between atoms: C_14  and  C_15 
REMARK    9  A    between atoms: N_23  and  C_24 
ROOT
HETATM    1  C   UNL     1      25.862  43.393  49.528  1.00  0.00     0.191 C 
HETATM    2  N   UNL     1      26.181  41.993  49.723  1.00  0.00    -0.315 N 
HETATM    3  C   UNL     1      26.823  41.811  50.951  1.00  0.00     0.333 C 
HETATM    4  O   UNL     1      26.853  40.730  51.521  1.00  0.00    -0.246 OA
HETATM    5  N   UNL     1      27.329  43.032  51.357  1.00  0.00    -0.232 N 
HETATM    6  C   UNL     1      26.895  44.003  50.476  1.00  0.00     0.256 C 
HETATM    7  O   UNL     1      27.187  45.190  50.420  1.00  0.00    -0.270 OA
ENDROOT
BRANCH   1   8
HETATM    8  C   UNL     1      24.449  43.711  50.007  1.00  0.00     0.138 C 
BRANCH   8   9
HETATM    9  C   UNL     1      23.629  44.457  48.976  1.00  0.00     0.224 C 
HETATM   10  N   UNL     1      22.682  45.301  49.532  1.00  0.00    -0.327 N 
HETATM   11  H   UNL     1      22.583  45.298  50.539  1.00  0.00     0.169 HD
HETATM   12  O   UNL     1      23.872  44.315  47.784  1.00  0.00    -0.273 OA
BRANCH  10  13
HETATM   13  C   UNL     1      21.892  46.255  48.850  1.00  0.00     0.034 A 
HETATM   14  C   UNL     1      22.388  47.451  48.324  1.00  0.00     0.030 A 
HETATM   15  C   UNL     1      21.532  48.369  47.698  1.00  0.00     0.020 A 
HETATM   16  C   UNL     1      20.164  48.101  47.586  1.00  0.00     0.039 A 
HETATM   17  C   UNL     1      19.665  46.901  48.106  1.00  0.00     0.020 A 
HETATM   18  C   UNL     1      20.523  45.986  48.731  1.00  0.00     0.030 A 
BRANCH  16  19
HETATM   19  C   UNL     1      19.211  49.040  46.932  1.00  0.00     0.293 C 
HETATM   20  O   UNL     1      19.046  49.091  45.724  1.00  0.00    -0.259 OA
BRANCH  19  21
HETATM   21  O   UNL     1      18.582  49.805  47.857  1.00  0.00    -0.318 OA
BRANCH  21  22
HETATM   22  C   UNL     1      18.675  51.225  47.665  1.00  0.00     0.174 C 
HETATM   23  C   UNL     1      19.845  51.791  48.446  1.00  0.00     0.034 C 
ENDBRANCH  21  22
ENDBRANCH  19  21
ENDBRANCH  16  19
ENDBRANCH  10  13
ENDBRANCH   8   9
ENDBRANCH   1   8
BRANCH   2  24
HETATM   24  C   UNL     1      25.464  40.926  49.048  1.00  0.00     0.168 C 
BRANCH  24  25
HETATM   25  C   UNL     1      26.340  40.106  48.143  1.00  0.00    -0.023 A 
HETATM   26  C   UNL     1      26.757  40.589  46.907  1.00  0.00     0.125 A 
HETATM   27  N   UNL     1      27.551  39.905  46.051  1.00  0.00    -0.273 NA
HETATM   28  C   UNL     1      27.971  38.686  46.455  1.00  0.00     0.116 A 
HETATM   29  C   UNL     1      27.625  38.117  47.667  1.00  0.00     0.020 A 
HETATM   30  C   UNL     1      26.796  38.839  48.519  1.00  0.00     0.012 A 
ENDBRANCH  24  25
ENDBRANCH   2  24
BRANCH   5  31
HETATM   31  C   UNL     1      28.179  43.242  52.490  1.00  0.00     0.047 A 
HETATM   32  C   UNL     1      29.478  42.708  52.549  1.00  0.00     0.031 A 
HETATM   33  C   UNL     1      30.318  42.914  53.653  1.00  0.00     0.009 A 
HETATM   34  C   UNL     1      29.886  43.667  54.741  1.00  0.00    -0.062 A 
HETATM   35  C   UNL     1      30.782  43.913  55.919  1.00  0.00     0.048 C 
HETATM   36  C   UNL     1      28.605  44.214  54.703  1.00  0.00     0.009 A 
HETATM   37  C   UNL     1      27.766  43.999  53.597  1.00  0.00     0.031 A 
ENDBRANCH   5  31
TORSDOF 9
ENDMDL
MODEL 8
REMARK VINA RESULT:      -8.3      3.137     10.774
REMARK  9 active torsions:
REMARK  status: ('A' for Active; 'I' for Inactive)
REMARK    1  A    between atoms: C_2  and  O_3 
REMARK    2  A    between atoms: O_3  and  C_4 
REMARK    3  A    between atoms: C_4  and  C_5 
REMARK    4  A    between atoms: C_8  and  N_9 
REMARK       I    between atoms: N_9  and  C_10 
REMARK    5  A    between atoms: C_10  and  C_11 
REMARK    6  A    between atoms: C_11  and  C_12 
REMARK    7  A    between atoms: N_13  and  C_14 
REMARK    8  A    between atoms: C_14  and  C_15 
REMARK    9  A    between atoms: N_23  and  C_24 
ROOT
HETATM    1  C   UNL     1      22.026  46.932  47.749  1.00  0.00     0.191 C 
HETATM    2  N   UNL     1      22.217  48.089  48.600  1.00  0.00    -0.315 N 
HETATM    3  C   UNL     1      21.033  48.827  48.685  1.00  0.00     0.333 C 
HETATM    4  O   UNL     1      20.807  49.600  49.605  1.00  0.00    -0.246 OA
HETATM    5  N   UNL     1      20.231  48.478  47.614  1.00  0.00    -0.232 N 
HETATM    6  C   UNL     1      20.830  47.433  46.938  1.00  0.00     0.256 C 
HETATM    7  O   UNL     1      20.501  46.893  45.890  1.00  0.00    -0.270 OA
ENDROOT
BRANCH   1   8
HETATM    8  C   UNL     1      21.636  45.702  48.564  1.00  0.00     0.138 C 
BRANCH   8   9
HETATM    9  C   UNL     1      22.713  44.639  48.581  1.00  0.00     0.224 C 
HETATM   10  N   UNL     1      23.741  44.910  49.469  1.00  0.00    -0.327 N 
HETATM   11  H   UNL     1      23.714  45.792  49.963  1.00  0.00     0.169 HD
HETATM   12  O   UNL     1      22.592  43.637  47.885  1.00  0.00    -0.273 OA
BRANCH  10  13
HETATM   13  C   UNL     1      24.790  44.039  49.842  1.00  0.00     0.034 A 
HETATM   14  C   UNL     1      26.145  44.381  49.800  1.00  0.00     0.030 A 
HETATM   15  C   UNL     1      27.132  43.446  50.145  1.00  0.00     0.020 A 
HETATM   16  C   UNL     1      26.776  42.154  50.542  1.00  0.00     0.039 A 
HETATM   17  C   UNL     1      25.420  41.810  50.594  1.00  0.00     0.020 A 
HETATM   18  C   UNL     1      24.437  42.746  50.248  1.00  0.00     0.030 A 
BRANCH  16  19
HETATM   19  C   UNL     1      27.783  41.123  50.920  1.00  0.00     0.293 C 
HETATM   20  O   UNL     1      28.386  40.446  50.103  1.00  0.00    -0.259 OA
BRANCH  19  21
HETATM   21  O   UNL     1      27.916  41.054  52.267  1.00  0.00    -0.318 OA
BRANCH  21  22
HETATM   22  C   UNL     1      29.116  41.627  52.809  1.00  0.00     0.174 C 
HETATM   23  C   UNL     1      28.786  42.815  53.693  1.00  0.00     0.034 C 
ENDBRANCH  21  22
ENDBRANCH  19  21
ENDBRANCH  16  19
ENDBRANCH  10  13
ENDBRANCH   8   9
ENDBRANCH   1   8
BRANCH   2  24
HETATM   24  C   UNL     1      23.252  48.149  49.617  1.00  0.00     0.168 C 
BRANCH  24  25
HETATM   25  C   UNL     1      24.546  48.717  49.108  1.00  0.00    -0.023 A 
HETATM   26  C   UNL     1      24.568  49.724  48.147  1.00  0.00     0.125 A 
HETATM   27  N   UNL     1      25.697  50.283  47.655  1.00  0.00    -0.273 NA
HETATM   28  C   UNL     1      26.867  49.832  48.159  1.00  0.00     0.116 A 
HETATM   29  C   UNL     1      26.959  48.844  49.122  1.00  0.00     0.020 A 
HETATM   30  C   UNL     1      25.780  48.279  49.599  1.00  0.00     0.012 A 
ENDBRANCH  24  25
ENDBRANCH   2  24
BRANCH   5  31
HETATM   31  C   UNL     1      18.998  49.114  47.259  1.00  0.00     0.047 A 
HETATM   32  C   UNL     1      18.933  50.081  46.241  1.00  0.00     0.031 A 
HETATM   33  C   UNL     1      17.728  50.705  45.884  1.00  0.00     0.009 A 
HETATM   34  C   UNL     1      16.542  50.380  46.536  1.00  0.00    -0.062 A 
HETATM   35  C   UNL     1      15.243  51.023  46.150  1.00  0.00     0.048 C 
HETATM   36  C   UNL     1      16.581  49.418  47.544  1.00  0.00     0.009 A 
HETATM   37  C   UNL     1      17.790  48.801  47.901  1.00  0.00     0.031 A 
ENDBRANCH   5  31
TORSDOF 9
ENDMDL
MODEL 9
REMARK VINA RESULT:      -8.0      1.829      2.193
REMARK  9 active torsions:
REMARK  status: ('A' for Active; 'I' for Inactive)
REMARK    1  A    between atoms: C_2  and  O_3 
REMARK    2  A    between atoms: O_3  and  C_4 
REMARK    3  A    between atoms: C_4  and  C_5 
REMARK    4  A    between atoms: C_8  and  N_9 
REMARK       I    between atoms: N_9  and  C_10 
REMARK    5  A    between atoms: C_10  and  C_11 
REMARK    6  A    between atoms: C_11  and  C_12 
REMARK    7  A    between atoms: N_13  and  C_14 
REMARK    8  A    between atoms: C_14  and  C_15 
REMARK    9  A    between atoms: N_23  and  C_24 
ROOT
HETATM    1  C   UNL     1      26.575  42.772  50.609  1.00  0.00     0.191 C 
HETATM    2  N   UNL     1      27.088  41.519  51.126  1.00  0.00    -0.315 N 
HETATM    3  C   UNL     1      27.635  41.710  52.398  1.00  0.00     0.333 C 
HETATM    4  O   UNL     1      27.780  40.793  53.193  1.00  0.00    -0.246 OA
HETATM    5  N   UNL     1      27.906  43.056  52.552  1.00  0.00    -0.232 N 
HETATM    6  C   UNL     1      27.409  43.734  51.455  1.00  0.00     0.256 C 
HETATM    7  O   UNL     1      27.517  44.916  51.156  1.00  0.00    -0.270 OA
ENDROOT
BRANCH   1   8
HETATM    8  C   UNL     1      25.091  42.936  50.927  1.00  0.00     0.138 C 
BRANCH   8   9
HETATM    9  C   UNL     1      24.292  43.469  49.758  1.00  0.00     0.224 C 
HETATM   10  N   UNL     1      23.232  44.275  50.137  1.00  0.00    -0.327 N 
HETATM   11  H   UNL     1      23.053  44.382  51.128  1.00  0.00     0.169 HD
HETATM   12  O   UNL     1      24.640  43.211  48.611  1.00  0.00    -0.273 OA
BRANCH  10  13
HETATM   13  C   UNL     1      22.416  45.058  49.289  1.00  0.00     0.034 A 
HETATM   14  C   UNL     1      21.143  44.676  48.854  1.00  0.00     0.030 A 
HETATM   15  C   UNL     1      20.411  45.488  47.977  1.00  0.00     0.020 A 
HETATM   16  C   UNL     1      20.941  46.699  47.522  1.00  0.00     0.039 A 
HETATM   17  C   UNL     1      22.211  47.090  47.961  1.00  0.00     0.020 A 
HETATM   18  C   UNL     1      22.940  46.276  48.837  1.00  0.00     0.030 A 
BRANCH  16  19
HETATM   19  C   UNL     1      20.206  47.599  46.590  1.00  0.00     0.293 C 
HETATM   20  O   UNL     1      19.628  47.201  45.592  1.00  0.00    -0.259 OA
BRANCH  19  21
HETATM   21  O   UNL     1      20.282  48.887  47.008  1.00  0.00    -0.318 OA
BRANCH  21  22
HETATM   22  C   UNL     1      19.197  49.345  47.828  1.00  0.00     0.174 C 
HETATM   23  C   UNL     1      18.990  50.837  47.651  1.00  0.00     0.034 C 
ENDBRANCH  21  22
ENDBRANCH  19  21
ENDBRANCH  16  19
ENDBRANCH  10  13
ENDBRANCH   8   9
ENDBRANCH   1   8
BRANCH   2  24
HETATM   24  C   UNL     1      26.610  40.228  50.664  1.00  0.00     0.168 C 
BRANCH  24  25
HETATM   25  C   UNL     1      27.610  39.498  49.814  1.00  0.00    -0.023 A 
HETATM   26  C   UNL     1      27.463  39.412  48.433  1.00  0.00     0.125 A 
HETATM   27  N   UNL     1      28.331  38.778  47.612  1.00  0.00    -0.273 NA
HETATM   28  C   UNL     1      29.415  38.217  48.192  1.00  0.00     0.116 A 
HETATM   29  C   UNL     1      29.664  38.253  49.552  1.00  0.00     0.020 A 
HETATM   30  C   UNL     1      28.745  38.901  50.371  1.00  0.00     0.012 A 
ENDBRANCH  24  25
ENDBRANCH   2  24
BRANCH   5  31
HETATM   31  C   UNL     1      28.606  43.640  53.657  1.00  0.00     0.047 A 
HETATM   32  C   UNL     1      29.872  43.178  54.057  1.00  0.00     0.031 A 
HETATM   33  C   UNL     1      30.566  43.749  55.134  1.00  0.00     0.009 A 
HETATM   34  C   UNL     1      30.015  44.808  55.851  1.00  0.00    -0.062 A 
HETATM   35  C   UNL     1      30.755  45.441  56.991  1.00  0.00     0.048 C 
HETATM   36  C   UNL     1      28.764  45.289  55.467  1.00  0.00     0.009 A 
HETATM   37  C   UNL     1      28.071  44.710  54.392  1.00  0.00     0.031 A 
ENDBRANCH   5  31
TORSDOF 9
ENDMDL
MODEL 10
REMARK VINA RESULT:      -8.0     11.465     14.802
REMARK  9 active torsions:
REMARK  status: ('A' for Active; 'I' for Inactive)
REMARK    1  A    between atoms: C_2  and  O_3 
REMARK    2  A    between atoms: O_3  and  C_4 
REMARK    3  A    between atoms: C_4  and  C_5 
REMARK    4  A    between atoms: C_8  and  N_9 
REMARK       I    between atoms: N_9  and  C_10 
REMARK    5  A    between atoms: C_10  and  C_11 
REMARK    6  A    between atoms: C_11  and  C_12 
REMARK    7  A    between atoms: N_13  and  C_14 
REMARK    8  A    between atoms: C_14  and  C_15 
REMARK    9  A    between atoms: N_23  and  C_24 
ROOT
HETATM    1  C   UNL     1      29.124  48.318  40.618  1.00  0.00     0.191 C 
HETATM    2  N   UNL     1      27.712  48.642  40.557  1.00  0.00    -0.315 N 
HETATM    3  C   UNL     1      26.945  47.482  40.694  1.00  0.00     0.333 C 
HETATM    4  O   UNL     1      25.777  47.507  41.055  1.00  0.00    -0.246 OA
HETATM    5  N   UNL     1      27.750  46.397  40.400  1.00  0.00    -0.232 N 
HETATM    6  C   UNL     1      29.044  46.845  40.218  1.00  0.00     0.256 C 
HETATM    7  O   UNL     1      30.037  46.229  39.856  1.00  0.00    -0.270 OA
ENDROOT
BRANCH   1   8
HETATM    8  C   UNL     1      29.662  48.454  42.039  1.00  0.00     0.138 C 
BRANCH   8   9
HETATM    9  C   UNL     1      30.963  49.225  42.107  1.00  0.00     0.224 C 
HETATM   10  N   UNL     1      31.513  49.487  40.863  1.00  0.00    -0.327 N 
HETATM   11  H   UNL     1      31.047  49.100  40.052  1.00  0.00     0.169 HD
HETATM   12  O   UNL     1      31.399  49.591  43.191  1.00  0.00    -0.273 OA
BRANCH  10  13
HETATM   13  C   UNL     1      32.614  50.328  40.583  1.00  0.00     0.034 A 
HETATM   14  C   UNL     1      33.904  50.122  41.080  1.00  0.00     0.030 A 
HETATM   15  C   UNL     1      34.937  51.026  40.793  1.00  0.00     0.020 A 
HETATM   16  C   UNL     1      34.694  52.152  40.000  1.00  0.00     0.039 A 
HETATM   17  C   UNL     1      33.406  52.358  39.494  1.00  0.00     0.020 A 
HETATM   18  C   UNL     1      32.376  51.453  39.783  1.00  0.00     0.030 A 
BRANCH  16  19
HETATM   19  C   UNL     1      35.754  53.143  39.665  1.00  0.00     0.293 C 
HETATM   20  O   UNL     1      36.074  54.057  40.407  1.00  0.00    -0.259 OA
BRANCH  19  21
HETATM   21  O   UNL     1      36.285  52.882  38.445  1.00  0.00    -0.318 OA
BRANCH  21  22
HETATM   22  C   UNL     1      37.669  52.501  38.432  1.00  0.00     0.174 C 
HETATM   23  C   UNL     1      37.806  50.997  38.299  1.00  0.00     0.034 C 
ENDBRANCH  21  22
ENDBRANCH  19  21
ENDBRANCH  16  19
ENDBRANCH  10  13
ENDBRANCH   8   9
ENDBRANCH   1   8
BRANCH   2  24
HETATM   24  C   UNL     1      27.198  49.963  40.873  1.00  0.00     0.168 C 
BRANCH  24  25
HETATM   25  C   UNL     1      27.842  51.055  40.066  1.00  0.00    -0.023 A 
HETATM   26  C   UNL     1      27.748  51.081  38.678  1.00  0.00     0.125 A 
HETATM   27  N   UNL     1      28.297  52.038  37.895  1.00  0.00    -0.273 NA
HETATM   28  C   UNL     1      28.955  53.035  38.528  1.00  0.00     0.116 A 
HETATM   29  C   UNL     1      29.098  53.111  39.901  1.00  0.00     0.020 A 
HETATM   30  C   UNL     1      28.535  52.104  40.677  1.00  0.00     0.012 A 
ENDBRANCH  24  25
ENDBRANCH   2  24
BRANCH   5  31
HETATM   31  C   UNL     1      27.303  45.041  40.282  1.00  0.00     0.047 A 
HETATM   32  C   UNL     1      27.039  44.456  39.031  1.00  0.00     0.031 A 
HETATM   33  C   UNL     1      26.607  43.127  38.907  1.00  0.00     0.009 A 
HETATM   34  C   UNL     1      26.425  42.334  40.037  1.00  0.00    -0.062 A 
HETATM   35  C   UNL     1      25.984  40.905  39.918  1.00  0.00     0.048 C 
HETATM   36  C   UNL     1      26.689  42.889  41.288  1.00  0.00     0.009 A 
HETATM   37  C   UNL     1      27.115  44.222  41.406  1.00  0.00     0.031 A 
ENDBRANCH   5  31
TORSDOF 9
ENDMDL
