MODEL 1
REMARK VINA RESULT:      -9.3      0.000      0.000
REMARK  7 active torsions:
REMARK  status: ('A' for Active; 'I' for Inactive)
REMARK    1  A    between atoms: O_2  and  C_3 
REMARK    2  A    between atoms: N_9  and  N_10 
REMARK       I    between atoms: N_10  and  C_11 
REMARK    3  A    between atoms: C_11  and  C_12 
REMARK    4  A    between atoms: C_12  and  C_13 
REMARK    5  A    between atoms: C_13  and  C_14 
REMARK    6  A    between atoms: C_14  and  N_15 
REMARK       I    between atoms: N_15  and  C_16 
REMARK    7  A    between atoms: C_16  and  C_17 
ROOT
HETATM    1  N   UNL     1      25.694  46.649  50.976  1.00  0.00    -0.246 N 
HETATM    2  C   UNL     1      25.450  45.357  50.533  1.00  0.00     0.237 C 
HETATM    3  O   UNL     1      25.892  44.849  49.507  1.00  0.00    -0.272 OA
HETATM    4  H   UNL     1      25.468  46.895  51.933  1.00  0.00     0.192 HD
ENDROOT
BRANCH   1   5
HETATM    5  N   UNL     1      26.553  47.448  50.288  1.00  0.00    -0.166 NA
HETATM    6  C   UNL     1      26.083  48.384  49.527  1.00  0.00     0.157 A 
HETATM    7  C   UNL     1      24.725  48.756  49.100  1.00  0.00     0.029 A 
HETATM    8  C   UNL     1      27.026  49.390  48.831  1.00  0.00     0.277 A 
HETATM    9  C   UNL     1      23.479  48.201  49.324  1.00  0.00     0.053 A 
HETATM   10  C   UNL     1      24.869  49.874  48.276  1.00  0.00     0.048 A 
HETATM   11  C   UNL     1      22.361  48.822  48.751  1.00  0.00     0.069 A 
HETATM   12  C   UNL     1      22.517  49.956  47.934  1.00  0.00     0.039 A 
HETATM   13  C   UNL     1      23.786  50.490  47.684  1.00  0.00     0.033 A 
HETATM   14  N   UNL     1      26.200  50.238  48.128  1.00  0.00    -0.321 N 
HETATM   15  H   UNL     1      26.556  50.998  47.569  1.00  0.00     0.169 HD
HETATM   16  O   UNL     1      28.234  49.429  48.904  1.00  0.00    -0.266 OA
BRANCH  11  17
HETATM   17  O   UNL     1      21.170  48.216  49.050  1.00  0.00    -0.356 OA
HETATM   18  C   UNL     1      20.883  46.994  48.380  1.00  0.00     0.210 C 
ENDBRANCH  11  17
ENDBRANCH   1   5
BRANCH   2  19
HETATM   19  C   UNL     1      24.524  44.589  51.450  1.00  0.00     0.106 C 
BRANCH  19  20
HETATM   20  C   UNL     1      25.304  43.732  52.438  1.00  0.00     0.029 C 
BRANCH  20  21
HETATM   21  C   UNL     1      25.272  44.361  53.828  1.00  0.00     0.123 C 
BRANCH  21  22
HETATM   22  N   UNL     1      26.533  44.221  54.522  1.00  0.00    -0.357 N 
HETATM   23  C   UNL     1      27.545  45.145  54.410  1.00  0.00     0.253 C 
HETATM   24  O   UNL     1      27.429  46.150  53.713  1.00  0.00    -0.268 OA
HETATM   25  H   UNL     1      26.689  43.373  55.055  1.00  0.00     0.162 HD
BRANCH  23  26
HETATM   26  C   UNL     1      28.798  44.926  55.202  1.00  0.00     0.053 A 
HETATM   27  C   UNL     1      29.757  43.923  54.982  1.00  0.00     0.049 A 
HETATM   28 CL   UNL     1      29.687  42.770  53.694  1.00  0.00    -0.083 Cl
HETATM   29  C   UNL     1      30.877  43.823  55.823  1.00  0.00     0.025 A 
HETATM   30  C   UNL     1      31.061  44.716  56.877  1.00  0.00     0.002 A 
HETATM   31  C   UNL     1      30.128  45.721  57.098  1.00  0.00     0.001 A 
HETATM   32  C   UNL     1      29.009  45.825  56.268  1.00  0.00     0.019 A 
ENDBRANCH  23  26
ENDBRANCH  21  22
ENDBRANCH  20  21
ENDBRANCH  19  20
ENDBRANCH   2  19
TORSDOF 7
ENDMDL
MODEL 2
REMARK VINA RESULT:      -9.1      2.691      8.446
REMARK  7 active torsions:
REMARK  status: ('A' for Active; 'I' for Inactive)
REMARK    1  A    between atoms: O_2  and  C_3 
REMARK    2  A    between atoms: N_9  and  N_10 
REMARK       I    between atoms: N_10  and  C_11 
REMARK    3  A    between atoms: C_11  and  C_12 
REMARK    4  A    between atoms: C_12  and  C_13 
REMARK    5  A    between atoms: C_13  and  C_14 
REMARK    6  A    between atoms: C_14  and  N_15 
REMARK       I    between atoms: N_15  and  C_16 
REMARK    7  A    between atoms: C_16  and  C_17 
ROOT
HETATM    1  N   UNL     1      26.130  45.990  53.340  1.00  0.00    -0.246 N 
HETATM    2  C   UNL     1      25.139  45.023  53.252  1.00  0.00     0.237 C 
HETATM    3  O   UNL     1      24.715  44.336  54.177  1.00  0.00    -0.272 OA
HETATM    4  H   UNL     1      26.250  46.647  52.578  1.00  0.00     0.192 HD
ENDROOT
BRANCH   1   5
HETATM    5  N   UNL     1      26.665  46.299  54.551  1.00  0.00    -0.166 NA
HETATM    6  C   UNL     1      27.752  45.711  54.938  1.00  0.00     0.157 A 
HETATM    7  C   UNL     1      28.558  44.610  54.388  1.00  0.00     0.029 A 
HETATM    8  C   UNL     1      28.458  46.126  56.247  1.00  0.00     0.277 A 
HETATM    9  C   UNL     1      28.406  43.786  53.288  1.00  0.00     0.053 A 
HETATM   10  C   UNL     1      29.629  44.436  55.266  1.00  0.00     0.048 A 
HETATM   11  C   UNL     1      29.384  42.811  53.047  1.00  0.00     0.069 A 
HETATM   12  C   UNL     1      30.466  42.653  53.932  1.00  0.00     0.039 A 
HETATM   13  C   UNL     1      30.593  43.469  55.062  1.00  0.00     0.033 A 
HETATM   14  N   UNL     1      29.568  45.317  56.336  1.00  0.00    -0.321 N 
HETATM   15  H   UNL     1      30.215  45.371  57.108  1.00  0.00     0.169 HD
HETATM   16  O   UNL     1      28.112  46.992  57.020  1.00  0.00    -0.266 OA
BRANCH  11  17
HETATM   17  O   UNL     1      29.162  42.062  51.923  1.00  0.00    -0.356 OA
HETATM   18  C   UNL     1      28.006  41.232  51.919  1.00  0.00     0.210 C 
ENDBRANCH  11  17
ENDBRANCH   1   5
BRANCH   2  19
HETATM   19  C   UNL     1      24.612  44.851  51.845  1.00  0.00     0.106 C 
BRANCH  19  20
HETATM   20  C   UNL     1      25.625  44.145  50.953  1.00  0.00     0.029 C 
BRANCH  20  21
HETATM   21  C   UNL     1      26.392  45.162  50.112  1.00  0.00     0.123 C 
BRANCH  21  22
HETATM   22  N   UNL     1      25.524  46.168  49.542  1.00  0.00    -0.357 N 
HETATM   23  C   UNL     1      25.528  47.475  49.969  1.00  0.00     0.253 C 
HETATM   24  O   UNL     1      26.279  47.862  50.861  1.00  0.00    -0.268 OA
HETATM   25  H   UNL     1      24.846  45.873  48.849  1.00  0.00     0.162 HD
BRANCH  23  26
HETATM   26  C   UNL     1      24.617  48.449  49.285  1.00  0.00     0.053 A 
HETATM   27  C   UNL     1      25.009  49.585  48.557  1.00  0.00     0.049 A 
HETATM   28 CL   UNL     1      26.653  50.040  48.266  1.00  0.00    -0.083 Cl
HETATM   29  C   UNL     1      24.039  50.425  47.987  1.00  0.00     0.025 A 
HETATM   30  C   UNL     1      22.680  50.145  48.126  1.00  0.00     0.002 A 
HETATM   31  C   UNL     1      22.279  49.018  48.832  1.00  0.00     0.001 A 
HETATM   32  C   UNL     1      23.238  48.179  49.404  1.00  0.00     0.019 A 
ENDBRANCH  23  26
ENDBRANCH  21  22
ENDBRANCH  20  21
ENDBRANCH  19  20
ENDBRANCH   2  19
TORSDOF 7
ENDMDL
MODEL 3
REMARK VINA RESULT:      -9.0      3.515      9.591
REMARK  7 active torsions:
REMARK  status: ('A' for Active; 'I' for Inactive)
REMARK    1  A    between atoms: O_2  and  C_3 
REMARK    2  A    between atoms: N_9  and  N_10 
REMARK       I    between atoms: N_10  and  C_11 
REMARK    3  A    between atoms: C_11  and  C_12 
REMARK    4  A    between atoms: C_12  and  C_13 
REMARK    5  A    between atoms: C_13  and  C_14 
REMARK    6  A    between atoms: C_14  and  N_15 
REMARK       I    between atoms: N_15  and  C_16 
REMARK    7  A    between atoms: C_16  and  C_17 
ROOT
HETATM    1  N   UNL     1      25.841  44.278  51.474  1.00  0.00    -0.246 N 
HETATM    2  C   UNL     1      25.965  45.466  50.767  1.00  0.00     0.237 C 
HETATM    3  O   UNL     1      26.784  45.699  49.883  1.00  0.00    -0.272 OA
HETATM    4  H   UNL     1      25.003  44.111  52.018  1.00  0.00     0.192 HD
ENDROOT
BRANCH   1   5
HETATM    5  N   UNL     1      26.625  43.215  51.150  1.00  0.00    -0.166 NA
HETATM    6  C   UNL     1      27.628  42.906  51.909  1.00  0.00     0.157 A 
HETATM    7  C   UNL     1      28.248  43.549  53.077  1.00  0.00     0.029 A 
HETATM    8  C   UNL     1      28.462  41.634  51.644  1.00  0.00     0.277 A 
HETATM    9  C   UNL     1      28.005  44.736  53.742  1.00  0.00     0.053 A 
HETATM   10  C   UNL     1      29.303  42.719  53.463  1.00  0.00     0.048 A 
HETATM   11  C   UNL     1      28.807  45.057  54.847  1.00  0.00     0.069 A 
HETATM   12  C   UNL     1      29.858  44.205  55.235  1.00  0.00     0.039 A 
HETATM   13  C   UNL     1      30.119  43.023  54.534  1.00  0.00     0.033 A 
HETATM   14  N   UNL     1      29.419  41.613  52.634  1.00  0.00    -0.321 N 
HETATM   15  H   UNL     1      30.112  40.883  52.699  1.00  0.00     0.169 HD
HETATM   16  O   UNL     1      28.296  40.823  50.761  1.00  0.00    -0.266 OA
BRANCH  11  17
HETATM   17  O   UNL     1      28.475  46.237  55.456  1.00  0.00    -0.356 OA
HETATM   18  C   UNL     1      27.472  47.026  54.828  1.00  0.00     0.210 C 
ENDBRANCH  11  17
ENDBRANCH   1   5
BRANCH   2  19
HETATM   19  C   UNL     1      24.975  46.518  51.214  1.00  0.00     0.106 C 
BRANCH  19  20
HETATM   20  C   UNL     1      24.753  47.568  50.134  1.00  0.00     0.029 C 
BRANCH  20  21
HETATM   21  C   UNL     1      23.433  47.314  49.409  1.00  0.00     0.123 C 
BRANCH  21  22
HETATM   22  N   UNL     1      22.540  48.448  49.484  1.00  0.00    -0.357 N 
HETATM   23  C   UNL     1      21.232  48.388  49.066  1.00  0.00     0.253 C 
HETATM   24  O   UNL     1      20.746  47.355  48.608  1.00  0.00    -0.268 OA
HETATM   25  H   UNL     1      22.923  49.334  49.796  1.00  0.00     0.162 HD
BRANCH  23  26
HETATM   26  C   UNL     1      20.377  49.609  49.223  1.00  0.00     0.053 A 
HETATM   27  C   UNL     1      19.251  49.735  50.052  1.00  0.00     0.049 A 
HETATM   28 CL   UNL     1      18.669  48.493  51.107  1.00  0.00    -0.083 Cl
HETATM   29  C   UNL     1      18.529  50.939  50.080  1.00  0.00     0.025 A 
HETATM   30  C   UNL     1      18.919  52.025  49.298  1.00  0.00     0.002 A 
HETATM   31  C   UNL     1      20.039  51.918  48.483  1.00  0.00     0.001 A 
HETATM   32  C   UNL     1      20.761  50.722  48.447  1.00  0.00     0.019 A 
ENDBRANCH  23  26
ENDBRANCH  21  22
ENDBRANCH  20  21
ENDBRANCH  19  20
ENDBRANCH   2  19
TORSDOF 7
ENDMDL
MODEL 4
REMARK VINA RESULT:      -9.0      2.261      3.328
REMARK  7 active torsions:
REMARK  status: ('A' for Active; 'I' for Inactive)
REMARK    1  A    between atoms: O_2  and  C_3 
REMARK    2  A    between atoms: N_9  and  N_10 
REMARK       I    between atoms: N_10  and  C_11 
REMARK    3  A    between atoms: C_11  and  C_12 
REMARK    4  A    between atoms: C_12  and  C_13 
REMARK    5  A    between atoms: C_13  and  C_14 
REMARK    6  A    between atoms: C_14  and  N_15 
REMARK       I    between atoms: N_15  and  C_16 
REMARK    7  A    between atoms: C_16  and  C_17 
ROOT
HETATM    1  N   UNL     1      25.899  46.862  50.911  1.00  0.00    -0.246 N 
HETATM    2  C   UNL     1      25.883  46.747  52.294  1.00  0.00     0.237 C 
HETATM    3  O   UNL     1      25.508  47.606  53.087  1.00  0.00    -0.272 OA
HETATM    4  H   UNL     1      26.015  46.029  50.347  1.00  0.00     0.192 HD
ENDROOT
BRANCH   1   5
HETATM    5  N   UNL     1      25.396  47.979  50.321  1.00  0.00    -0.166 NA
HETATM    6  C   UNL     1      24.291  47.903  49.649  1.00  0.00     0.157 A 
HETATM    7  C   UNL     1      23.432  46.783  49.238  1.00  0.00     0.029 A 
HETATM    8  C   UNL     1      23.623  49.171  49.073  1.00  0.00     0.277 A 
HETATM    9  C   UNL     1      23.533  45.412  49.384  1.00  0.00     0.053 A 
HETATM   10  C   UNL     1      22.368  47.347  48.532  1.00  0.00     0.048 A 
HETATM   11  C   UNL     1      22.512  44.609  48.855  1.00  0.00     0.069 A 
HETATM   12  C   UNL     1      21.437  45.191  48.158  1.00  0.00     0.039 A 
HETATM   13  C   UNL     1      21.362  46.578  47.984  1.00  0.00     0.033 A 
HETATM   14  N   UNL     1      22.482  48.728  48.443  1.00  0.00    -0.321 N 
HETATM   15  H   UNL     1      21.849  49.354  47.969  1.00  0.00     0.169 HD
HETATM   16  O   UNL     1      24.017  50.312  49.171  1.00  0.00    -0.266 OA
BRANCH  11  17
HETATM   17  O   UNL     1      22.685  43.268  49.071  1.00  0.00    -0.356 OA
HETATM   18  C   UNL     1      23.388  42.892  50.250  1.00  0.00     0.210 C 
ENDBRANCH  11  17
ENDBRANCH   1   5
BRANCH   2  19
HETATM   19  C   UNL     1      26.420  45.418  52.777  1.00  0.00     0.106 C 
BRANCH  19  20
HETATM   20  C   UNL     1      26.975  44.590  51.625  1.00  0.00     0.029 C 
BRANCH  20  21
HETATM   21  C   UNL     1      28.111  43.695  52.112  1.00  0.00     0.123 C 
BRANCH  21  22
HETATM   22  N   UNL     1      28.573  44.066  53.431  1.00  0.00    -0.357 N 
HETATM   23  C   UNL     1      29.737  43.572  53.972  1.00  0.00     0.253 C 
HETATM   24  O   UNL     1      30.453  42.784  53.357  1.00  0.00    -0.268 OA
HETATM   25  H   UNL     1      27.977  44.663  53.993  1.00  0.00     0.162 HD
BRANCH  23  26
HETATM   26  C   UNL     1      30.149  44.051  55.331  1.00  0.00     0.053 A 
HETATM   27  C   UNL     1      29.813  45.283  55.916  1.00  0.00     0.049 A 
HETATM   28 CL   UNL     1      28.794  46.470  55.177  1.00  0.00    -0.083 Cl
HETATM   29  C   UNL     1      30.292  45.609  57.195  1.00  0.00     0.025 A 
HETATM   30  C   UNL     1      31.097  44.718  57.905  1.00  0.00     0.002 A 
HETATM   31  C   UNL     1      31.425  43.491  57.344  1.00  0.00     0.001 A 
HETATM   32  C   UNL     1      30.955  43.161  56.071  1.00  0.00     0.019 A 
ENDBRANCH  23  26
ENDBRANCH  21  22
ENDBRANCH  20  21
ENDBRANCH  19  20
ENDBRANCH   2  19
TORSDOF 7
ENDMDL
MODEL 5
REMARK VINA RESULT:      -8.9      2.734      8.657
REMARK  7 active torsions:
REMARK  status: ('A' for Active; 'I' for Inactive)
REMARK    1  A    between atoms: O_2  and  C_3 
REMARK    2  A    between atoms: N_9  and  N_10 
REMARK       I    between atoms: N_10  and  C_11 
REMARK    3  A    between atoms: C_11  and  C_12 
REMARK    4  A    between atoms: C_12  and  C_13 
REMARK    5  A    between atoms: C_13  and  C_14 
REMARK    6  A    between atoms: C_14  and  N_15 
REMARK       I    between atoms: N_15  and  C_16 
REMARK    7  A    between atoms: C_16  and  C_17 
ROOT
HETATM    1  N   UNL     1      26.472  45.457  52.299  1.00  0.00    -0.246 N 
HETATM    2  C   UNL     1      25.561  44.416  52.191  1.00  0.00     0.237 C 
HETATM    3  O   UNL     1      24.791  44.034  53.067  1.00  0.00    -0.272 OA
HETATM    4  H   UNL     1      26.897  45.832  51.460  1.00  0.00     0.192 HD
ENDROOT
BRANCH   1   5
HETATM    5  N   UNL     1      26.508  46.207  53.433  1.00  0.00    -0.166 NA
HETATM    6  C   UNL     1      27.451  46.010  54.299  1.00  0.00     0.157 A 
HETATM    7  C   UNL     1      28.521  45.009  54.419  1.00  0.00     0.029 A 
HETATM    8  C   UNL     1      27.598  46.924  55.535  1.00  0.00     0.277 A 
HETATM    9  C   UNL     1      28.863  43.896  53.672  1.00  0.00     0.053 A 
HETATM   10  C   UNL     1      29.229  45.333  55.578  1.00  0.00     0.048 A 
HETATM   11  C   UNL     1      29.970  43.137  54.077  1.00  0.00     0.069 A 
HETATM   12  C   UNL     1      30.683  43.482  55.240  1.00  0.00     0.039 A 
HETATM   13  C   UNL     1      30.309  44.589  56.009  1.00  0.00     0.033 A 
HETATM   14  N   UNL     1      28.693  46.443  56.216  1.00  0.00    -0.321 N 
HETATM   15  H   UNL     1      29.017  46.855  57.078  1.00  0.00     0.169 HD
HETATM   16  O   UNL     1      26.904  47.872  55.829  1.00  0.00    -0.266 OA
BRANCH  11  17
HETATM   17  O   UNL     1      30.246  42.072  53.262  1.00  0.00    -0.356 OA
HETATM   18  C   UNL     1      29.137  41.429  52.645  1.00  0.00     0.210 C 
ENDBRANCH  11  17
ENDBRANCH   1   5
BRANCH   2  19
HETATM   19  C   UNL     1      25.612  43.732  50.843  1.00  0.00     0.106 C 
BRANCH  19  20
HETATM   20  C   UNL     1      25.151  44.662  49.729  1.00  0.00     0.029 C 
BRANCH  20  21
HETATM   21  C   UNL     1      23.677  45.015  49.907  1.00  0.00     0.123 C 
BRANCH  21  22
HETATM   22  N   UNL     1      23.352  46.308  49.347  1.00  0.00    -0.357 N 
HETATM   23  C   UNL     1      23.862  47.481  49.850  1.00  0.00     0.253 C 
HETATM   24  O   UNL     1      24.633  47.493  50.809  1.00  0.00    -0.268 OA
HETATM   25  H   UNL     1      22.670  46.343  48.598  1.00  0.00     0.162 HD
BRANCH  23  26
HETATM   26  C   UNL     1      23.494  48.766  49.173  1.00  0.00     0.053 A 
HETATM   27  C   UNL     1      24.385  49.690  48.601  1.00  0.00     0.049 A 
HETATM   28 CL   UNL     1      26.100  49.476  48.526  1.00  0.00    -0.083 Cl
HETATM   29  C   UNL     1      23.897  50.869  48.017  1.00  0.00     0.025 A 
HETATM   30  C   UNL     1      22.529  51.139  47.987  1.00  0.00     0.002 A 
HETATM   31  C   UNL     1      21.637  50.228  48.537  1.00  0.00     0.001 A 
HETATM   32  C   UNL     1      22.115  49.053  49.123  1.00  0.00     0.019 A 
ENDBRANCH  23  26
ENDBRANCH  21  22
ENDBRANCH  20  21
ENDBRANCH  19  20
ENDBRANCH   2  19
TORSDOF 7
ENDMDL
MODEL 6
REMARK VINA RESULT:      -8.8      3.183      9.359
REMARK  7 active torsions:
REMARK  status: ('A' for Active; 'I' for Inactive)
REMARK    1  A    between atoms: O_2  and  C_3 
REMARK    2  A    between atoms: N_9  and  N_10 
REMARK       I    between atoms: N_10  and  C_11 
REMARK    3  A    between atoms: C_11  and  C_12 
REMARK    4  A    between atoms: C_12  and  C_13 
REMARK    5  A    between atoms: C_13  and  C_14 
REMARK    6  A    between atoms: C_14  and  N_15 
REMARK       I    between atoms: N_15  and  C_16 
REMARK    7  A    between atoms: C_16  and  C_17 
ROOT
HETATM    1  N   UNL     1      25.962  44.164  50.494  1.00  0.00    -0.246 N 
HETATM    2  C   UNL     1      26.414  45.348  49.929  1.00  0.00     0.237 C 
HETATM    3  O   UNL     1      27.420  45.481  49.238  1.00  0.00    -0.272 OA
HETATM    4  H   UNL     1      25.016  44.118  50.855  1.00  0.00     0.192 HD
ENDROOT
BRANCH   1   5
HETATM    5  N   UNL     1      26.612  42.999  50.231  1.00  0.00    -0.166 NA
HETATM    6  C   UNL     1      27.468  42.539  51.086  1.00  0.00     0.157 A 
HETATM    7  C   UNL     1      28.044  43.073  52.329  1.00  0.00     0.029 A 
HETATM    8  C   UNL     1      28.131  41.159  50.882  1.00  0.00     0.277 A 
HETATM    9  C   UNL     1      27.907  44.278  52.993  1.00  0.00     0.053 A 
HETATM   10  C   UNL     1      28.916  42.092  52.807  1.00  0.00     0.048 A 
HETATM   11  C   UNL     1      28.620  44.467  54.185  1.00  0.00     0.069 A 
HETATM   12  C   UNL     1      29.485  43.466  54.663  1.00  0.00     0.039 A 
HETATM   13  C   UNL     1      29.645  42.263  53.966  1.00  0.00     0.033 A 
HETATM   14  N   UNL     1      28.959  40.987  51.968  1.00  0.00    -0.321 N 
HETATM   15  H   UNL     1      29.526  40.162  52.090  1.00  0.00     0.169 HD
HETATM   16  O   UNL     1      27.946  40.388  49.966  1.00  0.00    -0.266 OA
BRANCH  11  17
HETATM   17  O   UNL     1      28.400  45.679  54.782  1.00  0.00    -0.356 OA
HETATM   18  C   UNL     1      29.321  46.076  55.790  1.00  0.00     0.210 C 
ENDBRANCH  11  17
ENDBRANCH   1   5
BRANCH   2  19
HETATM   19  C   UNL     1      25.539  46.532  50.273  1.00  0.00     0.106 C 
BRANCH  19  20
HETATM   20  C   UNL     1      26.342  47.827  50.305  1.00  0.00     0.029 C 
BRANCH  20  21
HETATM   21  C   UNL     1      25.931  48.735  49.150  1.00  0.00     0.123 C 
BRANCH  21  22
HETATM   22  N   UNL     1      24.501  48.943  49.098  1.00  0.00    -0.357 N 
HETATM   23  C   UNL     1      23.903  49.742  48.152  1.00  0.00     0.253 C 
HETATM   24  O   UNL     1      24.558  50.323  47.289  1.00  0.00    -0.268 OA
HETATM   25  H   UNL     1      23.934  48.532  49.831  1.00  0.00     0.162 HD
BRANCH  23  26
HETATM   26  C   UNL     1      22.409  49.860  48.160  1.00  0.00     0.053 A 
HETATM   27  C   UNL     1      21.492  48.840  47.854  1.00  0.00     0.049 A 
HETATM   28 CL   UNL     1      21.934  47.215  47.457  1.00  0.00    -0.083 Cl
HETATM   29  C   UNL     1      20.113  49.103  47.881  1.00  0.00     0.025 A 
HETATM   30  C   UNL     1      19.633  50.367  48.218  1.00  0.00     0.002 A 
HETATM   31  C   UNL     1      20.528  51.380  48.537  1.00  0.00     0.001 A 
HETATM   32  C   UNL     1      21.902  51.128  48.509  1.00  0.00     0.019 A 
ENDBRANCH  23  26
ENDBRANCH  21  22
ENDBRANCH  20  21
ENDBRANCH  19  20
ENDBRANCH   2  19
TORSDOF 7
ENDMDL
MODEL 7
REMARK VINA RESULT:      -8.7      3.277      8.921
REMARK  7 active torsions:
REMARK  status: ('A' for Active; 'I' for Inactive)
REMARK    1  A    between atoms: O_2  and  C_3 
REMARK    2  A    between atoms: N_9  and  N_10 
REMARK       I    between atoms: N_10  and  C_11 
REMARK    3  A    between atoms: C_11  and  C_12 
REMARK    4  A    between atoms: C_12  and  C_13 
REMARK    5  A    between atoms: C_13  and  C_14 
REMARK    6  A    between atoms: C_14  and  N_15 
REMARK       I    between atoms: N_15  and  C_16 
REMARK    7  A    between atoms: C_16  and  C_17 
ROOT
HETATM    1  N   UNL     1      25.212  46.717  51.996  1.00  0.00    -0.246 N 
HETATM    2  C   UNL     1      25.807  47.140  50.816  1.00  0.00     0.237 C 
HETATM    3  O   UNL     1      26.532  48.121  50.683  1.00  0.00    -0.272 OA
HETATM    4  H   UNL     1      24.820  45.785  52.046  1.00  0.00     0.192 HD
ENDROOT
BRANCH   1   5
HETATM    5  N   UNL     1      25.480  47.370  53.159  1.00  0.00    -0.166 NA
HETATM    6  C   UNL     1      26.430  46.941  53.926  1.00  0.00     0.157 A 
HETATM    7  C   UNL     1      27.292  45.749  53.902  1.00  0.00     0.029 A 
HETATM    8  C   UNL     1      26.847  47.727  55.189  1.00  0.00     0.277 A 
HETATM    9  C   UNL     1      27.352  44.644  53.073  1.00  0.00     0.053 A 
HETATM   10  C   UNL     1      28.136  45.856  55.009  1.00  0.00     0.048 A 
HETATM   11  C   UNL     1      28.318  43.664  53.340  1.00  0.00     0.069 A 
HETATM   12  C   UNL     1      29.173  43.790  54.451  1.00  0.00     0.039 A 
HETATM   13  C   UNL     1      29.081  44.895  55.305  1.00  0.00     0.033 A 
HETATM   14  N   UNL     1      27.877  47.003  55.746  1.00  0.00    -0.321 N 
HETATM   15  H   UNL     1      28.340  47.289  56.595  1.00  0.00     0.169 HD
HETATM   16  O   UNL     1      26.376  48.768  55.590  1.00  0.00    -0.266 OA
BRANCH  11  17
HETATM   17  O   UNL     1      28.318  42.622  52.452  1.00  0.00    -0.356 OA
HETATM   18  C   UNL     1      29.067  41.468  52.813  1.00  0.00     0.210 C 
ENDBRANCH  11  17
ENDBRANCH   1   5
BRANCH   2  19
HETATM   19  C   UNL     1      25.451  46.265  49.635  1.00  0.00     0.106 C 
BRANCH  19  20
HETATM   20  C   UNL     1      24.390  45.236  50.004  1.00  0.00     0.029 C 
BRANCH  20  21
HETATM   21  C   UNL     1      23.154  45.408  49.126  1.00  0.00     0.123 C 
BRANCH  21  22
HETATM   22  N   UNL     1      22.580  46.730  49.243  1.00  0.00    -0.357 N 
HETATM   23  C   UNL     1      22.104  47.427  48.157  1.00  0.00     0.253 C 
HETATM   24  O   UNL     1      22.137  46.958  47.021  1.00  0.00    -0.268 OA
HETATM   25  H   UNL     1      22.593  47.176  50.153  1.00  0.00     0.162 HD
BRANCH  23  26
HETATM   26  C   UNL     1      21.491  48.775  48.390  1.00  0.00     0.053 A 
HETATM   27  C   UNL     1      20.178  49.029  48.820  1.00  0.00     0.049 A 
HETATM   28 CL   UNL     1      19.026  47.802  49.219  1.00  0.00    -0.083 Cl
HETATM   29  C   UNL     1      19.731  50.351  48.973  1.00  0.00     0.025 A 
HETATM   30  C   UNL     1      20.579  51.427  48.712  1.00  0.00     0.002 A 
HETATM   31  C   UNL     1      21.884  51.190  48.299  1.00  0.00     0.001 A 
HETATM   32  C   UNL     1      22.335  49.877  48.141  1.00  0.00     0.019 A 
ENDBRANCH  23  26
ENDBRANCH  21  22
ENDBRANCH  20  21
ENDBRANCH  19  20
ENDBRANCH   2  19
TORSDOF 7
ENDMDL
MODEL 8
REMARK VINA RESULT:      -8.6      3.270      9.023
REMARK  7 active torsions:
REMARK  status: ('A' for Active; 'I' for Inactive)
REMARK    1  A    between atoms: O_2  and  C_3 
REMARK    2  A    between atoms: N_9  and  N_10 
REMARK       I    between atoms: N_10  and  C_11 
REMARK    3  A    between atoms: C_11  and  C_12 
REMARK    4  A    between atoms: C_12  and  C_13 
REMARK    5  A    between atoms: C_13  and  C_14 
REMARK    6  A    between atoms: C_14  and  N_15 
REMARK       I    between atoms: N_15  and  C_16 
REMARK    7  A    between atoms: C_16  and  C_17 
ROOT
HETATM    1  N   UNL     1      26.215  43.992  51.425  1.00  0.00    -0.246 N 
HETATM    2  C   UNL     1      26.211  44.739  50.256  1.00  0.00     0.237 C 
HETATM    3  O   UNL     1      27.167  44.912  49.505  1.00  0.00    -0.272 OA
HETATM    4  H   UNL     1      25.332  43.731  51.849  1.00  0.00     0.192 HD
ENDROOT
BRANCH   1   5
HETATM    5  N   UNL     1      27.333  43.306  51.784  1.00  0.00    -0.166 NA
HETATM    6  C   UNL     1      27.991  43.666  52.840  1.00  0.00     0.157 A 
HETATM    7  C   UNL     1      27.879  44.805  53.763  1.00  0.00     0.029 A 
HETATM    8  C   UNL     1      29.190  42.836  53.350  1.00  0.00     0.277 A 
HETATM    9  C   UNL     1      27.060  45.919  53.795  1.00  0.00     0.053 A 
HETATM   10  C   UNL     1      28.882  44.631  54.719  1.00  0.00     0.048 A 
HETATM   11  C   UNL     1      27.225  46.836  54.842  1.00  0.00     0.069 A 
HETATM   12  C   UNL     1      28.229  46.642  55.808  1.00  0.00     0.039 A 
HETATM   13  C   UNL     1      29.077  45.531  55.747  1.00  0.00     0.033 A 
HETATM   14  N   UNL     1      29.633  43.489  54.477  1.00  0.00    -0.321 N 
HETATM   15  H   UNL     1      30.420  43.163  55.016  1.00  0.00     0.169 HD
HETATM   16  O   UNL     1      29.632  41.818  52.865  1.00  0.00    -0.266 OA
BRANCH  11  17
HETATM   17  O   UNL     1      26.352  47.891  54.803  1.00  0.00    -0.356 OA
HETATM   18  C   UNL     1      26.279  48.709  55.965  1.00  0.00     0.210 C 
ENDBRANCH  11  17
ENDBRANCH   1   5
BRANCH   2  19
HETATM   19  C   UNL     1      24.871  45.382  49.977  1.00  0.00     0.106 C 
BRANCH  19  20
HETATM   20  C   UNL     1      24.763  46.752  50.634  1.00  0.00     0.029 C 
BRANCH  20  21
HETATM   21  C   UNL     1      24.406  47.813  49.597  1.00  0.00     0.123 C 
BRANCH  21  22
HETATM   22  N   UNL     1      23.111  48.406  49.845  1.00  0.00    -0.357 N 
HETATM   23  C   UNL     1      22.325  48.914  48.837  1.00  0.00     0.253 C 
HETATM   24  O   UNL     1      22.684  48.886  47.662  1.00  0.00    -0.268 OA
HETATM   25  H   UNL     1      22.810  48.505  50.808  1.00  0.00     0.162 HD
BRANCH  23  26
HETATM   26  C   UNL     1      20.981  49.472  49.195  1.00  0.00     0.053 A 
HETATM   27  C   UNL     1      19.781  48.750  49.297  1.00  0.00     0.049 A 
HETATM   28 CL   UNL     1      19.648  47.039  49.077  1.00  0.00    -0.083 Cl
HETATM   29  C   UNL     1      18.586  49.412  49.620  1.00  0.00     0.025 A 
HETATM   30  C   UNL     1      18.571  50.787  49.852  1.00  0.00     0.002 A 
HETATM   31  C   UNL     1      19.754  51.511  49.768  1.00  0.00     0.001 A 
HETATM   32  C   UNL     1      20.946  50.860  49.443  1.00  0.00     0.019 A 
ENDBRANCH  23  26
ENDBRANCH  21  22
ENDBRANCH  20  21
ENDBRANCH  19  20
ENDBRANCH   2  19
TORSDOF 7
ENDMDL
MODEL 9
REMARK VINA RESULT:      -8.2      2.632      4.184
REMARK  7 active torsions:
REMARK  status: ('A' for Active; 'I' for Inactive)
REMARK    1  A    between atoms: O_2  and  C_3 
REMARK    2  A    between atoms: N_9  and  N_10 
REMARK       I    between atoms: N_10  and  C_11 
REMARK    3  A    between atoms: C_11  and  C_12 
REMARK    4  A    between atoms: C_12  and  C_13 
REMARK    5  A    between atoms: C_13  and  C_14 
REMARK    6  A    between atoms: C_14  and  N_15 
REMARK       I    between atoms: N_15  and  C_16 
REMARK    7  A    between atoms: C_16  and  C_17 
ROOT
HETATM    1  N   UNL     1      23.253  43.983  48.849  1.00  0.00    -0.246 N 
HETATM    2  C   UNL     1      23.842  43.524  50.018  1.00  0.00     0.237 C 
HETATM    3  O   UNL     1      23.257  43.241  51.060  1.00  0.00    -0.272 OA
HETATM    4  H   UNL     1      23.788  43.975  47.989  1.00  0.00     0.192 HD
ENDROOT
BRANCH   1   5
HETATM    5  N   UNL     1      21.898  44.078  48.768  1.00  0.00    -0.166 NA
HETATM    6  C   UNL     1      21.348  45.239  48.605  1.00  0.00     0.157 A 
HETATM    7  C   UNL     1      21.870  46.614  48.598  1.00  0.00     0.029 A 
HETATM    8  C   UNL     1      19.826  45.372  48.382  1.00  0.00     0.277 A 
HETATM    9  C   UNL     1      23.126  47.149  48.814  1.00  0.00     0.053 A 
HETATM   10  C   UNL     1      20.773  47.445  48.362  1.00  0.00     0.048 A 
HETATM   11  C   UNL     1      23.280  48.540  48.734  1.00  0.00     0.069 A 
HETATM   12  C   UNL     1      22.170  49.366  48.482  1.00  0.00     0.039 A 
HETATM   13  C   UNL     1      20.895  48.818  48.299  1.00  0.00     0.033 A 
HETATM   14  N   UNL     1      19.596  46.721  48.234  1.00  0.00    -0.321 N 
HETATM   15  H   UNL     1      18.673  47.098  48.079  1.00  0.00     0.169 HD
HETATM   16  O   UNL     1      19.014  44.475  48.333  1.00  0.00    -0.266 OA
BRANCH  11  17
HETATM   17  O   UNL     1      24.563  48.973  48.936  1.00  0.00    -0.356 OA
HETATM   18  C   UNL     1      25.053  49.972  48.050  1.00  0.00     0.210 C 
ENDBRANCH  11  17
ENDBRANCH   1   5
BRANCH   2  19
HETATM   19  C   UNL     1      25.347  43.420  49.913  1.00  0.00     0.106 C 
BRANCH  19  20
HETATM   20  C   UNL     1      26.031  43.955  51.164  1.00  0.00     0.029 C 
BRANCH  20  21
HETATM   21  C   UNL     1      26.677  42.815  51.947  1.00  0.00     0.123 C 
BRANCH  21  22
HETATM   22  N   UNL     1      27.358  43.283  53.133  1.00  0.00    -0.357 N 
HETATM   23  C   UNL     1      28.720  43.474  53.176  1.00  0.00     0.253 C 
HETATM   24  O   UNL     1      29.434  43.260  52.199  1.00  0.00    -0.268 OA
HETATM   25  H   UNL     1      26.811  43.409  53.977  1.00  0.00     0.162 HD
BRANCH  23  26
HETATM   26  C   UNL     1      29.324  44.000  54.443  1.00  0.00     0.053 A 
HETATM   27  C   UNL     1      28.972  45.190  55.101  1.00  0.00     0.049 A 
HETATM   28 CL   UNL     1      27.710  46.256  54.586  1.00  0.00    -0.083 Cl
HETATM   29  C   UNL     1      29.644  45.571  56.274  1.00  0.00     0.025 A 
HETATM   30  C   UNL     1      30.659  44.776  56.806  1.00  0.00     0.002 A 
HETATM   31  C   UNL     1      31.007  43.591  56.173  1.00  0.00     0.001 A 
HETATM   32  C   UNL     1      30.346  43.207  55.003  1.00  0.00     0.019 A 
ENDBRANCH  23  26
ENDBRANCH  21  22
ENDBRANCH  20  21
ENDBRANCH  19  20
ENDBRANCH   2  19
TORSDOF 7
ENDMDL
MODEL 10
REMARK VINA RESULT:      -8.2      3.003      8.793
REMARK  7 active torsions:
REMARK  status: ('A' for Active; 'I' for Inactive)
REMARK    1  A    between atoms: O_2  and  C_3 
REMARK    2  A    between atoms: N_9  and  N_10 
REMARK       I    between atoms: N_10  and  C_11 
REMARK    3  A    between atoms: C_11  and  C_12 
REMARK    4  A    between atoms: C_12  and  C_13 
REMARK    5  A    between atoms: C_13  and  C_14 
REMARK    6  A    between atoms: C_14  and  N_15 
REMARK       I    between atoms: N_15  and  C_16 
REMARK    7  A    between atoms: C_16  and  C_17 
ROOT
HETATM    1  N   UNL     1      25.901  43.509  51.638  1.00  0.00    -0.246 N 
HETATM    2  C   UNL     1      25.854  44.258  50.471  1.00  0.00     0.237 C 
HETATM    3  O   UNL     1      26.719  44.298  49.601  1.00  0.00    -0.272 OA
HETATM    4  H   UNL     1      25.053  43.375  52.175  1.00  0.00     0.192 HD
ENDROOT
BRANCH   1   5
HETATM    5  N   UNL     1      26.946  42.666  51.857  1.00  0.00    -0.166 NA
HETATM    6  C   UNL     1      27.803  42.941  52.787  1.00  0.00     0.157 A 
HETATM    7  C   UNL     1      28.004  44.102  53.668  1.00  0.00     0.029 A 
HETATM    8  C   UNL     1      28.929  41.947  53.149  1.00  0.00     0.277 A 
HETATM    9  C   UNL     1      27.375  45.328  53.774  1.00  0.00     0.053 A 
HETATM   10  C   UNL     1      29.103  43.794  54.473  1.00  0.00     0.048 A 
HETATM   11  C   UNL     1      27.831  46.229  54.746  1.00  0.00     0.069 A 
HETATM   12  C   UNL     1      28.931  45.902  55.560  1.00  0.00     0.039 A 
HETATM   13  C   UNL     1      29.584  44.672  55.422  1.00  0.00     0.033 A 
HETATM   14  N   UNL     1      29.630  42.546  54.171  1.00  0.00    -0.321 N 
HETATM   15  H   UNL     1      30.433  42.113  54.601  1.00  0.00     0.169 HD
HETATM   16  O   UNL     1      29.135  40.864  52.648  1.00  0.00    -0.266 OA
BRANCH  11  17
HETATM   17  O   UNL     1      27.130  47.404  54.792  1.00  0.00    -0.356 OA
HETATM   18  C   UNL     1      25.926  47.466  54.037  1.00  0.00     0.210 C 
ENDBRANCH  11  17
ENDBRANCH   1   5
BRANCH   2  19
HETATM   19  C   UNL     1      24.595  45.090  50.360  1.00  0.00     0.106 C 
BRANCH  19  20
HETATM   20  C   UNL     1      23.374  44.218  50.097  1.00  0.00     0.029 C 
BRANCH  20  21
HETATM   21  C   UNL     1      22.532  44.810  48.970  1.00  0.00     0.123 C 
BRANCH  21  22
HETATM   22  N   UNL     1      22.408  46.246  49.074  1.00  0.00    -0.357 N 
HETATM   23  C   UNL     1      22.267  47.058  47.973  1.00  0.00     0.253 C 
HETATM   24  O   UNL     1      22.233  46.600  46.832  1.00  0.00    -0.268 OA
HETATM   25  H   UNL     1      22.496  46.665  49.993  1.00  0.00     0.162 HD
BRANCH  23  26
HETATM   26  C   UNL     1      22.106  48.532  48.191  1.00  0.00     0.053 A 
HETATM   27  C   UNL     1      23.098  49.418  48.645  1.00  0.00     0.049 A 
HETATM   28 CL   UNL     1      24.732  48.965  48.986  1.00  0.00    -0.083 Cl
HETATM   29  C   UNL     1      22.796  50.778  48.826  1.00  0.00     0.025 A 
HETATM   30  C   UNL     1      21.520  51.269  48.553  1.00  0.00     0.002 A 
HETATM   31  C   UNL     1      20.535  50.406  48.091  1.00  0.00     0.001 A 
HETATM   32  C   UNL     1      20.826  49.052  47.912  1.00  0.00     0.019 A 
ENDBRANCH  23  26
ENDBRANCH  21  22
ENDBRANCH  20  21
ENDBRANCH  19  20
ENDBRANCH   2  19
TORSDOF 7
ENDMDL
