MODEL 1
REMARK VINA RESULT:     -10.2      0.000      0.000
REMARK  8 active torsions:
REMARK  status: ('A' for Active; 'I' for Inactive)
REMARK    1  A    between atoms: C_12  and  S_13 
REMARK    2  A    between atoms: S_13  and  C_14 
REMARK    3  A    between atoms: C_14  and  C_15 
REMARK       I    between atoms: C_15  and  N_16 
REMARK    4  A    between atoms: N_16  and  C_17 
REMARK    5  A    between atoms: C_17  and  C_18 
REMARK    6  A    between atoms: C_18  and  C_19 
REMARK    7  A    between atoms: C_21  and  O_22 
REMARK    8  A    between atoms: C_24  and  O_25 
ROOT
HETATM    1  C   UNL     1      24.622  47.167  50.627  1.00  0.00     0.185 C 
ENDROOT
BRANCH   1   2
HETATM    2  S   UNL     1      25.824  45.951  51.244  1.00  0.00    -0.080 SA
BRANCH   2   3
HETATM    3  C   UNL     1      26.096  46.545  52.848  1.00  0.00     0.197 A 
HETATM    4  N   UNL     1      27.027  46.087  53.767  1.00  0.00    -0.271 N 
HETATM    5  C   UNL     1      27.941  44.994  53.802  1.00  0.00     0.054 A 
HETATM    6  C   UNL     1      26.926  47.003  54.808  1.00  0.00     0.159 A 
HETATM    7  C   UNL     1      28.812  44.927  54.917  1.00  0.00    -0.003 A 
HETATM    8  C   UNL     1      27.992  44.002  52.816  1.00  0.00     0.031 A 
HETATM    9  C   UNL     1      28.734  45.952  55.990  1.00  0.00    -0.046 A 
HETATM   10  C   UNL     1      29.736  43.870  54.986  1.00  0.00     0.014 A 
HETATM   11  C   UNL     1      29.679  45.898  57.158  1.00  0.00     0.049 C 
HETATM   12  C   UNL     1      27.807  46.920  55.908  1.00  0.00     0.060 A 
HETATM   13  C   UNL     1      29.789  42.895  53.989  1.00  0.00     0.001 A 
HETATM   14  C   UNL     1      28.916  42.959  52.912  1.00  0.00     0.002 A 
HETATM   15  N   UNL     1      25.959  47.861  54.570  1.00  0.00    -0.129 NA
HETATM   16  N   UNL     1      25.438  47.572  53.342  1.00  0.00    -0.122 NA
ENDBRANCH   2   3
ENDBRANCH   1   2
BRANCH   1  17
HETATM   17  C   UNL     1      25.313  48.129  49.678  1.00  0.00     0.227 C 
HETATM   18  N   UNL     1      24.579  49.102  49.050  1.00  0.00    -0.360 N 
HETATM   19  H   UNL     1      25.141  49.626  48.387  1.00  0.00     0.162 HD
HETATM   20  O   UNL     1      26.527  48.083  49.470  1.00  0.00    -0.273 OA
BRANCH  18  21
HETATM   21  C   UNL     1      23.136  49.124  48.876  1.00  0.00     0.127 C 
BRANCH  21  22
HETATM   22  C   UNL     1      22.644  50.444  48.284  1.00  0.00     0.058 C 
BRANCH  22  23
HETATM   23  C   UNL     1      21.266  50.786  48.795  1.00  0.00    -0.054 A 
HETATM   24  C   UNL     1      20.695  50.035  49.836  1.00  0.00     0.046 A 
HETATM   25  C   UNL     1      19.395  50.295  50.281  1.00  0.00     0.102 A 
HETATM   26  C   UNL     1      18.658  51.346  49.701  1.00  0.00     0.101 A 
HETATM   27  C   UNL     1      19.232  52.102  48.675  1.00  0.00     0.040 A 
HETATM   28  C   UNL     1      20.524  51.820  48.220  1.00  0.00     0.010 A 
BRANCH  25  29
HETATM   29  O   UNL     1      18.772  49.591  51.282  1.00  0.00    -0.353 OA
HETATM   30  C   UNL     1      18.438  48.237  51.004  1.00  0.00     0.210 C 
ENDBRANCH  25  29
BRANCH  26  31
HETATM   31  O   UNL     1      17.394  51.544  50.199  1.00  0.00    -0.353 OA
HETATM   32  C   UNL     1      16.780  52.801  49.960  1.00  0.00     0.210 C 
ENDBRANCH  26  31
ENDBRANCH  22  23
ENDBRANCH  21  22
ENDBRANCH  18  21
ENDBRANCH   1  17
TORSDOF 8
ENDMDL
MODEL 2
REMARK VINA RESULT:      -9.6      0.977      1.750
REMARK  8 active torsions:
REMARK  status: ('A' for Active; 'I' for Inactive)
REMARK    1  A    between atoms: C_12  and  S_13 
REMARK    2  A    between atoms: S_13  and  C_14 
REMARK    3  A    between atoms: C_14  and  C_15 
REMARK       I    between atoms: C_15  and  N_16 
REMARK    4  A    between atoms: N_16  and  C_17 
REMARK    5  A    between atoms: C_17  and  C_18 
REMARK    6  A    between atoms: C_18  and  C_19 
REMARK    7  A    between atoms: C_21  and  O_22 
REMARK    8  A    between atoms: C_24  and  O_25 
ROOT
HETATM    1  C   UNL     1      25.054  47.285  49.922  1.00  0.00     0.185 C 
ENDROOT
BRANCH   1   2
HETATM    2  S   UNL     1      25.935  45.918  50.733  1.00  0.00    -0.080 SA
BRANCH   2   3
HETATM    3  C   UNL     1      26.040  46.514  52.356  1.00  0.00     0.197 A 
HETATM    4  N   UNL     1      26.900  46.085  53.355  1.00  0.00    -0.271 N 
HETATM    5  C   UNL     1      27.845  45.025  53.471  1.00  0.00     0.054 A 
HETATM    6  C   UNL     1      26.674  46.993  54.383  1.00  0.00     0.159 A 
HETATM    7  C   UNL     1      28.614  44.983  54.660  1.00  0.00    -0.003 A 
HETATM    8  C   UNL     1      28.020  44.039  52.493  1.00  0.00     0.031 A 
HETATM    9  C   UNL     1      28.403  46.000  55.723  1.00  0.00    -0.046 A 
HETATM   10  C   UNL     1      29.565  43.959  54.811  1.00  0.00     0.014 A 
HETATM   11  C   UNL     1      29.241  45.975  56.971  1.00  0.00     0.049 C 
HETATM   12  C   UNL     1      27.454  46.936  55.558  1.00  0.00     0.060 A 
HETATM   13  C   UNL     1      29.742  42.991  53.822  1.00  0.00     0.001 A 
HETATM   14  C   UNL     1      28.967  43.029  52.670  1.00  0.00     0.002 A 
HETATM   15  N   UNL     1      25.702  47.818  54.060  1.00  0.00    -0.129 NA
HETATM   16  N   UNL     1      25.305  47.516  52.790  1.00  0.00    -0.122 NA
ENDBRANCH   2   3
ENDBRANCH   1   2
BRANCH   1  17
HETATM   17  C   UNL     1      26.055  48.318  49.435  1.00  0.00     0.227 C 
HETATM   18  N   UNL     1      25.607  49.436  48.781  1.00  0.00    -0.360 N 
HETATM   19  H   UNL     1      26.376  50.004  48.441  1.00  0.00     0.162 HD
HETATM   20  O   UNL     1      27.266  48.198  49.632  1.00  0.00    -0.273 OA
BRANCH  18  21
HETATM   21  C   UNL     1      24.309  49.610  48.150  1.00  0.00     0.127 C 
BRANCH  21  22
HETATM   22  C   UNL     1      23.490  50.719  48.809  1.00  0.00     0.058 C 
BRANCH  22  23
HETATM   23  C   UNL     1      22.067  50.273  49.045  1.00  0.00    -0.054 A 
HETATM   24  C   UNL     1      21.085  51.210  49.406  1.00  0.00     0.046 A 
HETATM   25  C   UNL     1      19.777  50.807  49.690  1.00  0.00     0.102 A 
HETATM   26  C   UNL     1      19.427  49.447  49.581  1.00  0.00     0.101 A 
HETATM   27  C   UNL     1      20.402  48.517  49.208  1.00  0.00     0.040 A 
HETATM   28  C   UNL     1      21.714  48.925  48.949  1.00  0.00     0.010 A 
BRANCH  25  29
HETATM   29  O   UNL     1      18.773  51.668  50.063  1.00  0.00    -0.353 OA
HETATM   30  C   UNL     1      18.229  52.499  49.044  1.00  0.00     0.210 C 
ENDBRANCH  25  29
BRANCH  26  31
HETATM   31  O   UNL     1      18.122  49.134  49.867  1.00  0.00    -0.353 OA
HETATM   32  C   UNL     1      17.319  48.627  48.813  1.00  0.00     0.210 C 
ENDBRANCH  26  31
ENDBRANCH  22  23
ENDBRANCH  21  22
ENDBRANCH  18  21
ENDBRANCH   1  17
TORSDOF 8
ENDMDL
MODEL 3
REMARK VINA RESULT:      -9.6      2.034      3.370
REMARK  8 active torsions:
REMARK  status: ('A' for Active; 'I' for Inactive)
REMARK    1  A    between atoms: C_12  and  S_13 
REMARK    2  A    between atoms: S_13  and  C_14 
REMARK    3  A    between atoms: C_14  and  C_15 
REMARK       I    between atoms: C_15  and  N_16 
REMARK    4  A    between atoms: N_16  and  C_17 
REMARK    5  A    between atoms: C_17  and  C_18 
REMARK    6  A    between atoms: C_18  and  C_19 
REMARK    7  A    between atoms: C_21  and  O_22 
REMARK    8  A    between atoms: C_24  and  O_25 
ROOT
HETATM    1  C   UNL     1      25.309  44.573  49.720  1.00  0.00     0.185 C 
ENDROOT
BRANCH   1   2
HETATM    2  S   UNL     1      24.966  44.022  51.418  1.00  0.00    -0.080 SA
BRANCH   2   3
HETATM    3  C   UNL     1      26.439  43.194  51.797  1.00  0.00     0.197 A 
HETATM    4  N   UNL     1      27.397  43.567  52.726  1.00  0.00    -0.271 N 
HETATM    5  C   UNL     1      27.592  44.710  53.555  1.00  0.00     0.054 A 
HETATM    6  C   UNL     1      28.271  42.485  52.736  1.00  0.00     0.159 A 
HETATM    7  C   UNL     1      28.680  44.661  54.462  1.00  0.00    -0.003 A 
HETATM    8  C   UNL     1      26.788  45.853  53.491  1.00  0.00     0.031 A 
HETATM    9  C   UNL     1      29.566  43.469  54.504  1.00  0.00    -0.046 A 
HETATM   10  C   UNL     1      28.902  45.764  55.304  1.00  0.00     0.014 A 
HETATM   11  C   UNL     1      30.701  43.405  55.487  1.00  0.00     0.049 C 
HETATM   12  C   UNL     1      29.345  42.456  53.650  1.00  0.00     0.060 A 
HETATM   13  C   UNL     1      28.084  46.892  55.244  1.00  0.00     0.001 A 
HETATM   14  C   UNL     1      27.034  46.937  54.336  1.00  0.00     0.002 A 
HETATM   15  N   UNL     1      27.916  41.602  51.828  1.00  0.00    -0.129 NA
HETATM   16  N   UNL     1      26.769  42.048  51.239  1.00  0.00    -0.122 NA
ENDBRANCH   2   3
ENDBRANCH   1   2
BRANCH   1  17
HETATM   17  C   UNL     1      26.406  45.621  49.738  1.00  0.00     0.227 C 
HETATM   18  N   UNL     1      26.092  46.923  50.034  1.00  0.00    -0.360 N 
HETATM   19  H   UNL     1      26.897  47.534  49.936  1.00  0.00     0.162 HD
HETATM   20  O   UNL     1      27.585  45.337  49.518  1.00  0.00    -0.273 OA
BRANCH  18  21
HETATM   21  C   UNL     1      24.773  47.531  49.981  1.00  0.00     0.127 C 
BRANCH  21  22
HETATM   22  C   UNL     1      24.728  48.733  49.039  1.00  0.00     0.058 C 
BRANCH  22  23
HETATM   23  C   UNL     1      23.353  49.355  49.022  1.00  0.00    -0.054 A 
HETATM   24  C   UNL     1      22.216  48.556  49.231  1.00  0.00     0.046 A 
HETATM   25  C   UNL     1      20.931  49.102  49.157  1.00  0.00     0.102 A 
HETATM   26  C   UNL     1      20.772  50.478  48.902  1.00  0.00     0.101 A 
HETATM   27  C   UNL     1      21.904  51.275  48.708  1.00  0.00     0.040 A 
HETATM   28  C   UNL     1      23.185  50.717  48.760  1.00  0.00     0.010 A 
BRANCH  25  29
HETATM   29  O   UNL     1      19.779  48.376  49.337  1.00  0.00    -0.353 OA
HETATM   30  C   UNL     1      19.661  47.165  48.599  1.00  0.00     0.210 C 
ENDBRANCH  25  29
BRANCH  26  31
HETATM   31  O   UNL     1      19.479  50.938  48.854  1.00  0.00    -0.353 OA
HETATM   32  C   UNL     1      19.272  52.282  48.449  1.00  0.00     0.210 C 
ENDBRANCH  26  31
ENDBRANCH  22  23
ENDBRANCH  21  22
ENDBRANCH  18  21
ENDBRANCH   1  17
TORSDOF 8
ENDMDL
MODEL 4
REMARK VINA RESULT:      -9.3      2.634      4.112
REMARK  8 active torsions:
REMARK  status: ('A' for Active; 'I' for Inactive)
REMARK    1  A    between atoms: C_12  and  S_13 
REMARK    2  A    between atoms: S_13  and  C_14 
REMARK    3  A    between atoms: C_14  and  C_15 
REMARK       I    between atoms: C_15  and  N_16 
REMARK    4  A    between atoms: N_16  and  C_17 
REMARK    5  A    between atoms: C_17  and  C_18 
REMARK    6  A    between atoms: C_18  and  C_19 
REMARK    7  A    between atoms: C_21  and  O_22 
REMARK    8  A    between atoms: C_24  and  O_25 
ROOT
HETATM    1  C   UNL     1      24.867  43.977  51.801  1.00  0.00     0.185 C 
ENDROOT
BRANCH   1   2
HETATM    2  S   UNL     1      26.194  45.175  51.474  1.00  0.00    -0.080 SA
BRANCH   2   3
HETATM    3  C   UNL     1      26.386  45.886  53.042  1.00  0.00     0.197 A 
HETATM    4  N   UNL     1      27.367  45.602  53.979  1.00  0.00    -0.271 N 
HETATM    5  C   UNL     1      28.414  44.639  54.067  1.00  0.00     0.054 A 
HETATM    6  C   UNL     1      27.149  46.553  54.969  1.00  0.00     0.159 A 
HETATM    7  C   UNL     1      29.286  44.745  55.179  1.00  0.00    -0.003 A 
HETATM    8  C   UNL     1      28.592  43.609  53.137  1.00  0.00     0.031 A 
HETATM    9  C   UNL     1      29.075  45.809  56.196  1.00  0.00    -0.046 A 
HETATM   10  C   UNL     1      30.337  43.821  55.300  1.00  0.00     0.014 A 
HETATM   11  C   UNL     1      30.019  45.941  57.358  1.00  0.00     0.049 C 
HETATM   12  C   UNL     1      28.031  46.645  56.066  1.00  0.00     0.060 A 
HETATM   13  C   UNL     1      30.516  42.808  54.358  1.00  0.00     0.001 A 
HETATM   14  C   UNL     1      29.642  42.700  53.284  1.00  0.00     0.002 A 
HETATM   15  N   UNL     1      26.079  47.266  54.690  1.00  0.00    -0.129 NA
HETATM   16  N   UNL     1      25.601  46.846  53.484  1.00  0.00    -0.122 NA
ENDBRANCH   2   3
ENDBRANCH   1   2
BRANCH   1  17
HETATM   17  C   UNL     1      24.906  42.876  50.758  1.00  0.00     0.227 C 
HETATM   18  N   UNL     1      24.022  42.905  49.711  1.00  0.00    -0.360 N 
HETATM   19  H   UNL     1      24.101  42.076  49.131  1.00  0.00     0.162 HD
HETATM   20  O   UNL     1      25.731  41.961  50.805  1.00  0.00    -0.273 OA
BRANCH  18  21
HETATM   21  C   UNL     1      22.781  43.660  49.643  1.00  0.00     0.127 C 
BRANCH  21  22
HETATM   22  C   UNL     1      22.677  44.487  48.362  1.00  0.00     0.058 C 
BRANCH  22  23
HETATM   23  C   UNL     1      22.738  45.964  48.667  1.00  0.00    -0.054 A 
HETATM   24  C   UNL     1      23.902  46.521  49.220  1.00  0.00     0.046 A 
HETATM   25  C   UNL     1      23.955  47.875  49.568  1.00  0.00     0.102 A 
HETATM   26  C   UNL     1      22.839  48.700  49.330  1.00  0.00     0.101 A 
HETATM   27  C   UNL     1      21.686  48.147  48.766  1.00  0.00     0.040 A 
HETATM   28  C   UNL     1      21.632  46.788  48.443  1.00  0.00     0.010 A 
BRANCH  25  29
HETATM   29  O   UNL     1      25.056  48.480  50.125  1.00  0.00    -0.353 OA
HETATM   30  C   UNL     1      26.291  48.325  49.438  1.00  0.00     0.210 C 
ENDBRANCH  25  29
BRANCH  26  31
HETATM   31  O   UNL     1      22.974  50.018  49.690  1.00  0.00    -0.353 OA
HETATM   32  C   UNL     1      22.976  50.988  48.654  1.00  0.00     0.210 C 
ENDBRANCH  26  31
ENDBRANCH  22  23
ENDBRANCH  21  22
ENDBRANCH  18  21
ENDBRANCH   1  17
TORSDOF 8
ENDMDL
MODEL 5
REMARK VINA RESULT:      -8.5      3.101      5.143
REMARK  8 active torsions:
REMARK  status: ('A' for Active; 'I' for Inactive)
REMARK    1  A    between atoms: C_12  and  S_13 
REMARK    2  A    between atoms: S_13  and  C_14 
REMARK    3  A    between atoms: C_14  and  C_15 
REMARK       I    between atoms: C_15  and  N_16 
REMARK    4  A    between atoms: N_16  and  C_17 
REMARK    5  A    between atoms: C_17  and  C_18 
REMARK    6  A    between atoms: C_18  and  C_19 
REMARK    7  A    between atoms: C_21  and  O_22 
REMARK    8  A    between atoms: C_24  and  O_25 
ROOT
HETATM    1  C   UNL     1      25.917  41.939  50.587  1.00  0.00     0.185 C 
ENDROOT
BRANCH   1   2
HETATM    2  S   UNL     1      26.243  43.407  51.608  1.00  0.00    -0.080 SA
BRANCH   2   3
HETATM    3  C   UNL     1      27.772  42.987  52.304  1.00  0.00     0.197 A 
HETATM    4  N   UNL     1      28.416  43.616  53.359  1.00  0.00    -0.271 N 
HETATM    5  C   UNL     1      28.166  44.794  54.120  1.00  0.00     0.054 A 
HETATM    6  C   UNL     1      29.506  42.790  53.606  1.00  0.00     0.159 A 
HETATM    7  C   UNL     1      29.039  45.047  55.208  1.00  0.00    -0.003 A 
HETATM    8  C   UNL     1      27.137  45.696  53.828  1.00  0.00     0.031 A 
HETATM    9  C   UNL     1      30.162  44.118  55.497  1.00  0.00    -0.046 A 
HETATM   10  C   UNL     1      28.823  46.194  55.991  1.00  0.00     0.014 A 
HETATM   11  C   UNL     1      31.069  44.370  56.669  1.00  0.00     0.049 C 
HETATM   12  C   UNL     1      30.361  43.057  54.697  1.00  0.00     0.060 A 
HETATM   13  C   UNL     1      27.783  47.077  55.700  1.00  0.00     0.001 A 
HETATM   14  C   UNL     1      26.947  46.831  54.619  1.00  0.00     0.002 A 
HETATM   15  N   UNL     1      29.556  41.820  52.719  1.00  0.00    -0.129 NA
HETATM   16  N   UNL     1      28.470  41.946  51.903  1.00  0.00    -0.122 NA
ENDBRANCH   2   3
ENDBRANCH   1   2
BRANCH   1  17
HETATM   17  C   UNL     1      26.110  42.284  49.122  1.00  0.00     0.227 C 
HETATM   18  N   UNL     1      25.095  42.895  48.432  1.00  0.00    -0.360 N 
HETATM   19  H   UNL     1      25.321  43.000  47.448  1.00  0.00     0.162 HD
HETATM   20  O   UNL     1      27.168  42.057  48.530  1.00  0.00    -0.273 OA
BRANCH  18  21
HETATM   21  C   UNL     1      23.692  42.937  48.811  1.00  0.00     0.127 C 
BRANCH  21  22
HETATM   22  C   UNL     1      22.881  43.881  47.922  1.00  0.00     0.058 C 
BRANCH  22  23
HETATM   23  C   UNL     1      23.025  45.311  48.382  1.00  0.00    -0.054 A 
HETATM   24  C   UNL     1      22.237  46.320  47.803  1.00  0.00     0.046 A 
HETATM   25  C   UNL     1      22.401  47.659  48.170  1.00  0.00     0.102 A 
HETATM   26  C   UNL     1      23.344  48.001  49.159  1.00  0.00     0.101 A 
HETATM   27  C   UNL     1      24.117  46.994  49.745  1.00  0.00     0.040 A 
HETATM   28  C   UNL     1      23.965  45.660  49.355  1.00  0.00     0.010 A 
BRANCH  25  29
HETATM   29  O   UNL     1      21.675  48.695  47.634  1.00  0.00    -0.353 OA
HETATM   30  C   UNL     1      20.310  48.792  48.023  1.00  0.00     0.210 C 
ENDBRANCH  25  29
BRANCH  26  31
HETATM   31  O   UNL     1      23.437  49.334  49.470  1.00  0.00    -0.353 OA
HETATM   32  C   UNL     1      24.390  50.112  48.761  1.00  0.00     0.210 C 
ENDBRANCH  26  31
ENDBRANCH  22  23
ENDBRANCH  21  22
ENDBRANCH  18  21
ENDBRANCH   1  17
TORSDOF 8
ENDMDL
MODEL 6
REMARK VINA RESULT:      -8.3      2.731      4.064
REMARK  8 active torsions:
REMARK  status: ('A' for Active; 'I' for Inactive)
REMARK    1  A    between atoms: C_12  and  S_13 
REMARK    2  A    between atoms: S_13  and  C_14 
REMARK    3  A    between atoms: C_14  and  C_15 
REMARK       I    between atoms: C_15  and  N_16 
REMARK    4  A    between atoms: N_16  and  C_17 
REMARK    5  A    between atoms: C_17  and  C_18 
REMARK    6  A    between atoms: C_18  and  C_19 
REMARK    7  A    between atoms: C_21  and  O_22 
REMARK    8  A    between atoms: C_24  and  O_25 
ROOT
HETATM    1  C   UNL     1      24.272  42.925  50.528  1.00  0.00     0.185 C 
ENDROOT
BRANCH   1   2
HETATM    2  S   UNL     1      25.096  44.117  51.625  1.00  0.00    -0.080 SA
BRANCH   2   3
HETATM    3  C   UNL     1      26.533  43.242  52.037  1.00  0.00     0.197 A 
HETATM    4  N   UNL     1      27.500  43.602  52.963  1.00  0.00    -0.271 N 
HETATM    5  C   UNL     1      27.734  44.758  53.762  1.00  0.00     0.054 A 
HETATM    6  C   UNL     1      28.330  42.488  53.009  1.00  0.00     0.159 A 
HETATM    7  C   UNL     1      28.813  44.691  54.679  1.00  0.00    -0.003 A 
HETATM    8  C   UNL     1      26.976  45.930  53.662  1.00  0.00     0.031 A 
HETATM    9  C   UNL     1      29.652  43.467  54.759  1.00  0.00    -0.046 A 
HETATM   10  C   UNL     1      29.074  45.807  55.493  1.00  0.00     0.014 A 
HETATM   11  C   UNL     1      30.776  43.385  55.753  1.00  0.00     0.049 C 
HETATM   12  C   UNL     1      29.396  42.440  53.931  1.00  0.00     0.060 A 
HETATM   13  C   UNL     1      28.300  46.964  55.397  1.00  0.00     0.001 A 
HETATM   14  C   UNL     1      27.259  47.026  54.480  1.00  0.00     0.002 A 
HETATM   15  N   UNL     1      27.947  41.595  52.122  1.00  0.00    -0.129 NA
HETATM   16  N   UNL     1      26.822  42.070  51.512  1.00  0.00    -0.122 NA
ENDBRANCH   2   3
ENDBRANCH   1   2
BRANCH   1  17
HETATM   17  C   UNL     1      24.694  43.179  49.092  1.00  0.00     0.227 C 
HETATM   18  N   UNL     1      24.484  44.414  48.535  1.00  0.00    -0.360 N 
HETATM   19  H   UNL     1      24.738  44.430  47.552  1.00  0.00     0.162 HD
HETATM   20  O   UNL     1      25.248  42.314  48.411  1.00  0.00    -0.273 OA
BRANCH  18  21
HETATM   21  C   UNL     1      23.566  45.436  49.011  1.00  0.00     0.127 C 
BRANCH  21  22
HETATM   22  C   UNL     1      22.412  45.677  48.038  1.00  0.00     0.058 C 
BRANCH  22  23
HETATM   23  C   UNL     1      21.632  46.911  48.421  1.00  0.00    -0.054 A 
HETATM   24  C   UNL     1      22.308  48.080  48.807  1.00  0.00     0.046 A 
HETATM   25  C   UNL     1      21.603  49.213  49.225  1.00  0.00     0.102 A 
HETATM   26  C   UNL     1      20.195  49.196  49.228  1.00  0.00     0.101 A 
HETATM   27  C   UNL     1      19.523  48.037  48.830  1.00  0.00     0.040 A 
HETATM   28  C   UNL     1      20.235  46.900  48.436  1.00  0.00     0.010 A 
BRANCH  25  29
HETATM   29  O   UNL     1      22.202  50.382  49.628  1.00  0.00    -0.353 OA
HETATM   30  C   UNL     1      23.244  50.888  48.804  1.00  0.00     0.210 C 
ENDBRANCH  25  29
BRANCH  26  31
HETATM   31  O   UNL     1      19.578  50.350  49.642  1.00  0.00    -0.353 OA
HETATM   32  C   UNL     1      18.232  50.256  50.083  1.00  0.00     0.210 C 
ENDBRANCH  26  31
ENDBRANCH  22  23
ENDBRANCH  21  22
ENDBRANCH  18  21
ENDBRANCH   1  17
TORSDOF 8
ENDMDL
MODEL 7
REMARK VINA RESULT:      -8.3      3.580      9.865
REMARK  8 active torsions:
REMARK  status: ('A' for Active; 'I' for Inactive)
REMARK    1  A    between atoms: C_12  and  S_13 
REMARK    2  A    between atoms: S_13  and  C_14 
REMARK    3  A    between atoms: C_14  and  C_15 
REMARK       I    between atoms: C_15  and  N_16 
REMARK    4  A    between atoms: N_16  and  C_17 
REMARK    5  A    between atoms: C_17  and  C_18 
REMARK    6  A    between atoms: C_18  and  C_19 
REMARK    7  A    between atoms: C_21  and  O_22 
REMARK    8  A    between atoms: C_24  and  O_25 
ROOT
HETATM    1  C   UNL     1      23.949  45.196  49.613  1.00  0.00     0.185 C 
ENDROOT
BRANCH   1   2
HETATM    2  S   UNL     1      22.707  45.871  48.470  1.00  0.00    -0.080 SA
BRANCH   2   3
HETATM    3  C   UNL     1      22.785  47.556  48.860  1.00  0.00     0.197 A 
HETATM    4  N   UNL     1      21.879  48.544  48.506  1.00  0.00    -0.271 N 
HETATM    5  C   UNL     1      20.724  48.585  47.672  1.00  0.00     0.054 A 
HETATM    6  C   UNL     1      22.334  49.659  49.200  1.00  0.00     0.159 A 
HETATM    7  C   UNL     1      19.999  49.803  47.648  1.00  0.00    -0.003 A 
HETATM    8  C   UNL     1      20.304  47.508  46.884  1.00  0.00     0.031 A 
HETATM    9  C   UNL     1      20.464  50.966  48.448  1.00  0.00    -0.046 A 
HETATM   10  C   UNL     1      18.847  49.884  46.847  1.00  0.00     0.014 A 
HETATM   11  C   UNL     1      19.678  52.247  48.446  1.00  0.00     0.049 C 
HETATM   12  C   UNL     1      21.595  50.861  49.165  1.00  0.00     0.060 A 
HETATM   13  C   UNL     1      18.429  48.798  46.078  1.00  0.00     0.001 A 
HETATM   14  C   UNL     1      19.159  47.617  46.093  1.00  0.00     0.002 A 
HETATM   15  N   UNL     1      23.456  49.382  49.826  1.00  0.00    -0.129 NA
HETATM   16  N   UNL     1      23.739  48.065  49.611  1.00  0.00    -0.122 NA
ENDBRANCH   2   3
ENDBRANCH   1   2
BRANCH   1  17
HETATM   17  C   UNL     1      24.620  43.990  48.981  1.00  0.00     0.227 C 
HETATM   18  N   UNL     1      25.809  43.536  49.490  1.00  0.00    -0.360 N 
HETATM   19  H   UNL     1      26.189  42.777  48.933  1.00  0.00     0.162 HD
HETATM   20  O   UNL     1      24.116  43.383  48.034  1.00  0.00    -0.273 OA
BRANCH  18  21
HETATM   21  C   UNL     1      26.728  44.274  50.340  1.00  0.00     0.127 C 
BRANCH  21  22
HETATM   22  C   UNL     1      26.718  43.766  51.781  1.00  0.00     0.058 C 
BRANCH  22  23
HETATM   23  C   UNL     1      26.897  44.904  52.757  1.00  0.00    -0.054 A 
HETATM   24  C   UNL     1      27.645  44.714  53.930  1.00  0.00     0.046 A 
HETATM   25  C   UNL     1      27.769  45.736  54.877  1.00  0.00     0.102 A 
HETATM   26  C   UNL     1      27.166  46.985  54.636  1.00  0.00     0.101 A 
HETATM   27  C   UNL     1      26.433  47.178  53.460  1.00  0.00     0.040 A 
HETATM   28  C   UNL     1      26.294  46.143  52.531  1.00  0.00     0.010 A 
BRANCH  25  29
HETATM   29  O   UNL     1      28.473  45.613  56.050  1.00  0.00    -0.353 OA
HETATM   30  C   UNL     1      29.891  45.603  55.951  1.00  0.00     0.210 C 
ENDBRANCH  25  29
BRANCH  26  31
HETATM   31  O   UNL     1      27.342  47.939  55.607  1.00  0.00    -0.353 OA
HETATM   32  C   UNL     1      26.206  48.690  56.008  1.00  0.00     0.210 C 
ENDBRANCH  26  31
ENDBRANCH  22  23
ENDBRANCH  21  22
ENDBRANCH  18  21
ENDBRANCH   1  17
TORSDOF 8
ENDMDL
MODEL 8
REMARK VINA RESULT:      -8.2      2.599      3.809
REMARK  8 active torsions:
REMARK  status: ('A' for Active; 'I' for Inactive)
REMARK    1  A    between atoms: C_12  and  S_13 
REMARK    2  A    between atoms: S_13  and  C_14 
REMARK    3  A    between atoms: C_14  and  C_15 
REMARK       I    between atoms: C_15  and  N_16 
REMARK    4  A    between atoms: N_16  and  C_17 
REMARK    5  A    between atoms: C_17  and  C_18 
REMARK    6  A    between atoms: C_18  and  C_19 
REMARK    7  A    between atoms: C_21  and  O_22 
REMARK    8  A    between atoms: C_24  and  O_25 
ROOT
HETATM    1  C   UNL     1      25.508  45.820  50.015  1.00  0.00     0.185 C 
ENDROOT
BRANCH   1   2
HETATM    2  S   UNL     1      25.001  44.710  51.362  1.00  0.00    -0.080 SA
BRANCH   2   3
HETATM    3  C   UNL     1      26.459  43.808  51.609  1.00  0.00     0.197 A 
HETATM    4  N   UNL     1      27.401  43.991  52.609  1.00  0.00    -0.271 N 
HETATM    5  C   UNL     1      27.588  44.959  53.638  1.00  0.00     0.054 A 
HETATM    6  C   UNL     1      28.266  42.917  52.434  1.00  0.00     0.159 A 
HETATM    7  C   UNL     1      28.656  44.730  54.541  1.00  0.00    -0.003 A 
HETATM    8  C   UNL     1      26.794  46.103  53.773  1.00  0.00     0.031 A 
HETATM    9  C   UNL     1      29.532  43.540  54.378  1.00  0.00    -0.046 A 
HETATM   10  C   UNL     1      28.870  45.655  55.578  1.00  0.00     0.014 A 
HETATM   11  C   UNL     1      30.645  43.282  55.354  1.00  0.00     0.049 C 
HETATM   12  C   UNL     1      29.321  42.705  53.347  1.00  0.00     0.060 A 
HETATM   13  C   UNL     1      28.062  46.784  55.712  1.00  0.00     0.001 A 
HETATM   14  C   UNL     1      27.032  47.009  54.809  1.00  0.00     0.002 A 
HETATM   15  N   UNL     1      27.923  42.222  51.372  1.00  0.00    -0.129 NA
HETATM   16  N   UNL     1      26.792  42.782  50.854  1.00  0.00    -0.122 NA
ENDBRANCH   2   3
ENDBRANCH   1   2
BRANCH   1  17
HETATM   17  C   UNL     1      25.295  47.262  50.437  1.00  0.00     0.227 C 
HETATM   18  N   UNL     1      24.120  47.893  50.118  1.00  0.00    -0.360 N 
HETATM   19  H   UNL     1      24.134  48.871  50.388  1.00  0.00     0.162 HD
HETATM   20  O   UNL     1      26.138  47.885  51.085  1.00  0.00    -0.273 OA
BRANCH  18  21
HETATM   21  C   UNL     1      23.167  47.488  49.097  1.00  0.00     0.127 C 
BRANCH  21  22
HETATM   22  C   UNL     1      22.686  48.669  48.255  1.00  0.00     0.058 C 
BRANCH  22  23
HETATM   23  C   UNL     1      21.286  48.433  47.743  1.00  0.00    -0.054 A 
HETATM   24  C   UNL     1      20.364  49.491  47.701  1.00  0.00     0.046 A 
HETATM   25  C   UNL     1      19.044  49.278  47.289  1.00  0.00     0.102 A 
HETATM   26  C   UNL     1      18.641  47.993  46.879  1.00  0.00     0.101 A 
HETATM   27  C   UNL     1      19.564  46.943  46.908  1.00  0.00     0.040 A 
HETATM   28  C   UNL     1      20.875  47.159  47.343  1.00  0.00     0.010 A 
BRANCH  25  29
HETATM   29  O   UNL     1      18.089  50.264  47.239  1.00  0.00    -0.353 OA
HETATM   30  C   UNL     1      18.383  51.479  47.917  1.00  0.00     0.210 C 
ENDBRANCH  25  29
BRANCH  26  31
HETATM   31  O   UNL     1      17.333  47.868  46.482  1.00  0.00    -0.353 OA
HETATM   32  C   UNL     1      16.989  46.741  45.690  1.00  0.00     0.210 C 
ENDBRANCH  26  31
ENDBRANCH  22  23
ENDBRANCH  21  22
ENDBRANCH  18  21
ENDBRANCH   1  17
TORSDOF 8
ENDMDL
MODEL 9
REMARK VINA RESULT:      -8.2      6.119      9.389
REMARK  8 active torsions:
REMARK  status: ('A' for Active; 'I' for Inactive)
REMARK    1  A    between atoms: C_12  and  S_13 
REMARK    2  A    between atoms: S_13  and  C_14 
REMARK    3  A    between atoms: C_14  and  C_15 
REMARK       I    between atoms: C_15  and  N_16 
REMARK    4  A    between atoms: N_16  and  C_17 
REMARK    5  A    between atoms: C_17  and  C_18 
REMARK    6  A    between atoms: C_18  and  C_19 
REMARK    7  A    between atoms: C_21  and  O_22 
REMARK    8  A    between atoms: C_24  and  O_25 
ROOT
HETATM    1  C   UNL     1      23.797  42.018  49.108  1.00  0.00     0.185 C 
ENDROOT
BRANCH   1   2
HETATM    2  S   UNL     1      25.321  41.794  50.073  1.00  0.00    -0.080 SA
BRANCH   2   3
HETATM    3  C   UNL     1      25.156  43.060  51.242  1.00  0.00     0.197 A 
HETATM    4  N   UNL     1      26.112  43.503  52.142  1.00  0.00    -0.271 N 
HETATM    5  C   UNL     1      27.418  43.062  52.508  1.00  0.00     0.054 A 
HETATM    6  C   UNL     1      25.518  44.619  52.718  1.00  0.00     0.159 A 
HETATM    7  C   UNL     1      28.127  43.869  53.432  1.00  0.00    -0.003 A 
HETATM    8  C   UNL     1      27.998  41.886  52.020  1.00  0.00     0.031 A 
HETATM    9  C   UNL     1      27.499  45.096  53.990  1.00  0.00    -0.046 A 
HETATM   10  C   UNL     1      29.421  43.476  53.813  1.00  0.00     0.014 A 
HETATM   11  C   UNL     1      28.263  45.968  54.946  1.00  0.00     0.049 C 
HETATM   12  C   UNL     1      26.243  45.411  53.634  1.00  0.00     0.060 A 
HETATM   13  C   UNL     1      29.997  42.311  53.307  1.00  0.00     0.001 A 
HETATM   14  C   UNL     1      29.284  41.516  52.419  1.00  0.00     0.002 A 
HETATM   15  N   UNL     1      24.289  44.764  52.272  1.00  0.00    -0.129 NA
HETATM   16  N   UNL     1      24.063  43.786  51.349  1.00  0.00    -0.122 NA
ENDBRANCH   2   3
ENDBRANCH   1   2
BRANCH   1  17
HETATM   17  C   UNL     1      24.071  42.931  47.927  1.00  0.00     0.227 C 
HETATM   18  N   UNL     1      24.211  42.392  46.674  1.00  0.00    -0.360 N 
HETATM   19  H   UNL     1      24.467  43.097  45.990  1.00  0.00     0.162 HD
HETATM   20  O   UNL     1      24.148  44.155  48.052  1.00  0.00    -0.273 OA
BRANCH  18  21
HETATM   21  C   UNL     1      24.500  41.004  46.354  1.00  0.00     0.127 C 
BRANCH  21  22
HETATM   22  C   UNL     1      25.946  40.804  45.900  1.00  0.00     0.058 C 
BRANCH  22  23
HETATM   23  C   UNL     1      26.788  40.234  47.015  1.00  0.00    -0.054 A 
HETATM   24  C   UNL     1      26.380  39.065  47.679  1.00  0.00     0.046 A 
HETATM   25  C   UNL     1      27.113  38.557  48.756  1.00  0.00     0.102 A 
HETATM   26  C   UNL     1      28.296  39.205  49.161  1.00  0.00     0.101 A 
HETATM   27  C   UNL     1      28.709  40.360  48.490  1.00  0.00     0.040 A 
HETATM   28  C   UNL     1      27.958  40.875  47.430  1.00  0.00     0.010 A 
BRANCH  25  29
HETATM   29  O   UNL     1      26.763  37.429  49.458  1.00  0.00    -0.353 OA
HETATM   30  C   UNL     1      26.574  36.237  48.705  1.00  0.00     0.210 C 
ENDBRANCH  25  29
BRANCH  26  31
HETATM   31  O   UNL     1      28.963  38.639  50.219  1.00  0.00    -0.353 OA
HETATM   32  C   UNL     1      30.175  37.954  49.944  1.00  0.00     0.210 C 
ENDBRANCH  26  31
ENDBRANCH  22  23
ENDBRANCH  21  22
ENDBRANCH  18  21
ENDBRANCH   1  17
TORSDOF 8
ENDMDL
MODEL 10
REMARK VINA RESULT:      -7.9      4.454     10.210
REMARK  8 active torsions:
REMARK  status: ('A' for Active; 'I' for Inactive)
REMARK    1  A    between atoms: C_12  and  S_13 
REMARK    2  A    between atoms: S_13  and  C_14 
REMARK    3  A    between atoms: C_14  and  C_15 
REMARK       I    between atoms: C_15  and  N_16 
REMARK    4  A    between atoms: N_16  and  C_17 
REMARK    5  A    between atoms: C_17  and  C_18 
REMARK    6  A    between atoms: C_18  and  C_19 
REMARK    7  A    between atoms: C_21  and  O_22 
REMARK    8  A    between atoms: C_24  and  O_25 
ROOT
HETATM    1  C   UNL     1      25.874  45.320  51.764  1.00  0.00     0.185 C 
ENDROOT
BRANCH   1   2
HETATM    2  S   UNL     1      26.731  45.187  50.167  1.00  0.00    -0.080 SA
BRANCH   2   3
HETATM    3  C   UNL     1      26.498  43.508  49.810  1.00  0.00     0.197 A 
HETATM    4  N   UNL     1      25.437  42.933  49.129  1.00  0.00    -0.271 N 
HETATM    5  C   UNL     1      24.198  43.419  48.618  1.00  0.00     0.054 A 
HETATM    6  C   UNL     1      25.827  41.606  48.989  1.00  0.00     0.159 A 
HETATM    7  C   UNL     1      23.410  42.503  47.879  1.00  0.00    -0.003 A 
HETATM    8  C   UNL     1      23.736  44.722  48.832  1.00  0.00     0.031 A 
HETATM    9  C   UNL     1      23.874  41.104  47.685  1.00  0.00    -0.046 A 
HETATM   10  C   UNL     1      22.185  42.944  47.348  1.00  0.00     0.014 A 
HETATM   11  C   UNL     1      23.052  40.141  46.874  1.00  0.00     0.049 C 
HETATM   12  C   UNL     1      25.029  40.711  48.246  1.00  0.00     0.060 A 
HETATM   13  C   UNL     1      21.742  44.250  47.554  1.00  0.00     0.001 A 
HETATM   14  C   UNL     1      22.512  45.133  48.299  1.00  0.00     0.002 A 
HETATM   15  N   UNL     1      26.965  41.396  49.615  1.00  0.00    -0.129 NA
HETATM   16  N   UNL     1      27.383  42.588  50.131  1.00  0.00    -0.122 NA
ENDBRANCH   2   3
ENDBRANCH   1   2
BRANCH   1  17
HETATM   17  C   UNL     1      25.462  46.762  52.001  1.00  0.00     0.227 C 
HETATM   18  N   UNL     1      25.770  47.364  53.194  1.00  0.00    -0.360 N 
HETATM   19  H   UNL     1      25.373  48.296  53.256  1.00  0.00     0.162 HD
HETATM   20  O   UNL     1      24.877  47.425  51.142  1.00  0.00    -0.273 OA
BRANCH  18  21
HETATM   21  C   UNL     1      26.126  46.698  54.436  1.00  0.00     0.127 C 
BRANCH  21  22
HETATM   22  C   UNL     1      27.388  47.287  55.066  1.00  0.00     0.058 C 
BRANCH  22  23
HETATM   23  C   UNL     1      28.419  46.213  55.315  1.00  0.00    -0.054 A 
HETATM   24  C   UNL     1      28.456  45.071  54.498  1.00  0.00     0.046 A 
HETATM   25  C   UNL     1      29.363  44.036  54.751  1.00  0.00     0.102 A 
HETATM   26  C   UNL     1      30.274  44.153  55.818  1.00  0.00     0.101 A 
HETATM   27  C   UNL     1      30.245  45.297  56.622  1.00  0.00     0.040 A 
HETATM   28  C   UNL     1      29.320  46.316  56.377  1.00  0.00     0.010 A 
BRANCH  25  29
HETATM   29  O   UNL     1      29.443  42.888  54.001  1.00  0.00    -0.353 OA
HETATM   30  C   UNL     1      28.215  42.255  53.663  1.00  0.00     0.210 C 
ENDBRANCH  25  29
BRANCH  26  31
HETATM   31  O   UNL     1      31.136  43.100  55.994  1.00  0.00    -0.353 OA
HETATM   32  C   UNL     1      31.934  43.091  57.168  1.00  0.00     0.210 C 
ENDBRANCH  26  31
ENDBRANCH  22  23
ENDBRANCH  21  22
ENDBRANCH  18  21
ENDBRANCH   1  17
TORSDOF 8
ENDMDL
