MODEL 1
REMARK VINA RESULT:      -9.0      0.000      0.000
REMARK  10 active torsions:
REMARK  status: ('A' for Active; 'I' for Inactive)
REMARK    1  A    between atoms: C_2  and  N_3 
REMARK    2  A    between atoms: N_3  and  C_5 
REMARK    3  A    between atoms: N_3  and  C_34 
REMARK    4  A    between atoms: C_5  and  C_6 
REMARK    5  A    between atoms: N_7  and  C_8 
REMARK    6  A    between atoms: C_12  and  N_13 
REMARK    7  A    between atoms: C_16  and  C_17 
REMARK       I    between atoms: C_17  and  N_18 
REMARK    8  A    between atoms: N_18  and  N_19 
REMARK    9  A    between atoms: C_20  and  C_21 
REMARK   10  A    between atoms: C_23  and  C_24 
ROOT
HETATM    1  C   UNL     1      28.337  45.010  54.857  1.00  0.00     0.096 A 
HETATM    2  N   UNL     1      29.410  45.435  55.638  1.00  0.00    -0.215 N 
HETATM    3  N   UNL     1      29.386  46.792  55.708  1.00  0.00     0.012 NA
HETATM    4  N   UNL     1      28.302  47.244  55.099  1.00  0.00    -0.152 NA
HETATM    5  C   UNL     1      27.637  46.175  54.574  1.00  0.00     0.170 A 
ENDROOT
BRANCH   5   6
HETATM    6  C   UNL     1      26.380  46.279  53.845  1.00  0.00     0.293 C 
HETATM    7  N   UNL     1      26.472  46.964  52.647  1.00  0.00    -0.242 N 
HETATM    8  H   UNL     1      27.364  47.347  52.339  1.00  0.00     0.192 HD
HETATM    9  O   UNL     1      25.350  45.807  54.324  1.00  0.00    -0.264 OA
BRANCH   7  10
HETATM   10  N   UNL     1      25.352  47.116  51.884  1.00  0.00    -0.181 NA
HETATM   11  C   UNL     1      25.346  46.523  50.733  1.00  0.00     0.175 C 
BRANCH  11  12
HETATM   12  C   UNL     1      24.201  46.626  49.876  1.00  0.00     0.095 A 
HETATM   13  O   UNL     1      23.524  47.810  49.842  1.00  0.00    -0.309 OA
HETATM   14  C   UNL     1      22.478  47.667  48.969  1.00  0.00     0.086 A 
HETATM   15  C   UNL     1      22.498  46.389  48.442  1.00  0.00     0.041 A 
HETATM   16  C   UNL     1      23.599  45.721  49.026  1.00  0.00     0.041 A 
BRANCH  14  17
HETATM   17  C   UNL     1      21.609  48.827  48.792  1.00  0.00    -0.002 A 
HETATM   18  C   UNL     1      22.131  50.129  48.725  1.00  0.00     0.015 A 
HETATM   19  C   UNL     1      21.290  51.236  48.565  1.00  0.00     0.020 A 
HETATM   20  C   UNL     1      19.914  51.050  48.470  1.00  0.00     0.011 A 
HETATM   21 BR   UNL     1      18.776  52.543  48.257  1.00  0.00    -0.051 Br
HETATM   22  C   UNL     1      19.372  49.770  48.532  1.00  0.00     0.020 A 
HETATM   23  C   UNL     1      20.217  48.666  48.693  1.00  0.00     0.015 A 
ENDBRANCH  14  17
ENDBRANCH  11  12
ENDBRANCH   7  10
ENDBRANCH   5   6
BRANCH   1  24
HETATM   24  C   UNL     1      28.108  43.623  54.383  1.00  0.00     0.296 C 
BRANCH  24  25
HETATM   25  N   UNL     1      28.336  43.376  52.900  1.00  0.00    -0.066 N 
HETATM   26  H   UNL     1      28.788  44.225  52.529  1.00  0.00     0.280 HD
BRANCH  25  27
HETATM   27  C   UNL     1      27.010  43.209  52.167  1.00  0.00     0.231 C 
HETATM   28  C   UNL     1      27.186  43.361  50.666  1.00  0.00     0.034 C 
ENDBRANCH  25  27
BRANCH  25  29
HETATM   29  C   UNL     1      29.256  42.191  52.644  1.00  0.00     0.231 C 
HETATM   30  C   UNL     1      28.650  40.903  53.178  1.00  0.00     0.034 C 
ENDBRANCH  25  29
ENDBRANCH  24  25
ENDBRANCH   1  24
BRANCH   2  31
HETATM   31  C   UNL     1      30.367  44.653  56.324  1.00  0.00     0.225 A 
HETATM   32  N   UNL     1      30.856  43.547  55.753  1.00  0.00    -0.081 NA
HETATM   33  O   UNL     1      31.737  43.041  56.714  1.00  0.00    -0.103 OA
HETATM   34  N   UNL     1      31.741  43.831  57.855  1.00  0.00    -0.083 NA
HETATM   35  C   UNL     1      30.891  44.828  57.615  1.00  0.00     0.201 A 
BRANCH  35  36
HETATM   36  N   UNL     1      30.615  45.818  58.478  1.00  0.00    -0.379 N 
HETATM   37  H   UNL     1      31.287  46.566  58.634  1.00  0.00     0.158 HD
HETATM   38  H   UNL     1      29.836  45.803  59.134  1.00  0.00     0.158 HD
ENDBRANCH  35  36
ENDBRANCH   2  31
TORSDOF 10
ENDMDL
MODEL 2
REMARK VINA RESULT:      -8.9      3.022      5.140
REMARK  10 active torsions:
REMARK  status: ('A' for Active; 'I' for Inactive)
REMARK    1  A    between atoms: C_2  and  N_3 
REMARK    2  A    between atoms: N_3  and  C_5 
REMARK    3  A    between atoms: N_3  and  C_34 
REMARK    4  A    between atoms: C_5  and  C_6 
REMARK    5  A    between atoms: N_7  and  C_8 
REMARK    6  A    between atoms: C_12  and  N_13 
REMARK    7  A    between atoms: C_16  and  C_17 
REMARK       I    between atoms: C_17  and  N_18 
REMARK    8  A    between atoms: N_18  and  N_19 
REMARK    9  A    between atoms: C_20  and  C_21 
REMARK   10  A    between atoms: C_23  and  C_24 
ROOT
HETATM    1  C   UNL     1      27.241  43.288  50.633  1.00  0.00     0.096 A 
HETATM    2  N   UNL     1      27.156  41.944  50.278  1.00  0.00    -0.215 N 
HETATM    3  N   UNL     1      26.147  41.794  49.380  1.00  0.00     0.012 NA
HETATM    4  N   UNL     1      25.656  42.982  49.070  1.00  0.00    -0.152 NA
HETATM    5  C   UNL     1      26.310  43.917  49.817  1.00  0.00     0.170 A 
ENDROOT
BRANCH   5   6
HETATM    6  C   UNL     1      26.052  45.349  49.733  1.00  0.00     0.293 C 
HETATM    7  N   UNL     1      24.779  45.721  50.123  1.00  0.00    -0.242 N 
HETATM    8  H   UNL     1      24.109  45.020  50.436  1.00  0.00     0.192 HD
HETATM    9  O   UNL     1      26.923  46.107  49.311  1.00  0.00    -0.264 OA
BRANCH   7  10
HETATM   10  N   UNL     1      24.435  47.040  50.086  1.00  0.00    -0.181 NA
HETATM   11  C   UNL     1      23.626  47.404  49.141  1.00  0.00     0.175 C 
BRANCH  11  12
HETATM   12  C   UNL     1      23.208  48.772  49.040  1.00  0.00     0.095 A 
HETATM   13  O   UNL     1      21.885  49.058  49.213  1.00  0.00    -0.309 OA
HETATM   14  C   UNL     1      21.728  50.410  49.066  1.00  0.00     0.086 A 
HETATM   15  C   UNL     1      22.958  50.985  48.807  1.00  0.00     0.041 A 
HETATM   16  C   UNL     1      23.906  49.935  48.786  1.00  0.00     0.041 A 
BRANCH  14  17
HETATM   17  C   UNL     1      20.370  50.932  49.202  1.00  0.00    -0.002 A 
HETATM   18  C   UNL     1      19.441  50.334  50.068  1.00  0.00     0.015 A 
HETATM   19  C   UNL     1      18.139  50.834  50.185  1.00  0.00     0.020 A 
HETATM   20  C   UNL     1      17.754  51.940  49.433  1.00  0.00     0.011 A 
HETATM   21 BR   UNL     1      15.996  52.615  49.587  1.00  0.00    -0.051 Br
HETATM   22  C   UNL     1      18.657  52.550  48.568  1.00  0.00     0.020 A 
HETATM   23  C   UNL     1      19.957  52.046  48.454  1.00  0.00     0.015 A 
ENDBRANCH  14  17
ENDBRANCH  11  12
ENDBRANCH   7  10
ENDBRANCH   5   6
BRANCH   1  24
HETATM   24  C   UNL     1      28.083  43.845  51.720  1.00  0.00     0.296 C 
BRANCH  24  25
HETATM   25  N   UNL     1      27.610  43.578  53.139  1.00  0.00    -0.066 N 
HETATM   26  H   UNL     1      27.600  42.553  53.255  1.00  0.00     0.280 HD
BRANCH  25  27
HETATM   27  C   UNL     1      26.181  44.071  53.338  1.00  0.00     0.231 C 
HETATM   28  C   UNL     1      26.156  45.442  53.990  1.00  0.00     0.034 C 
ENDBRANCH  25  27
BRANCH  25  29
HETATM   29  C   UNL     1      28.544  44.170  54.185  1.00  0.00     0.231 C 
HETATM   30  C   UNL     1      29.817  43.348  54.306  1.00  0.00     0.034 C 
ENDBRANCH  25  29
ENDBRANCH  24  25
ENDBRANCH   1  24
BRANCH   2  31
HETATM   31  C   UNL     1      27.977  40.868  50.691  1.00  0.00     0.225 A 
HETATM   32  N   UNL     1      28.463  40.842  51.935  1.00  0.00    -0.081 NA
HETATM   33  O   UNL     1      29.226  39.670  51.966  1.00  0.00    -0.103 OA
HETATM   34  N   UNL     1      29.209  39.029  50.736  1.00  0.00    -0.083 NA
HETATM   35  C   UNL     1      28.438  39.772  49.944  1.00  0.00     0.201 A 
BRANCH  35  36
HETATM   36  N   UNL     1      28.163  39.486  48.662  1.00  0.00    -0.379 N 
HETATM   37  H   UNL     1      28.173  38.522  48.337  1.00  0.00     0.158 HD
HETATM   38  H   UNL     1      28.100  40.183  47.923  1.00  0.00     0.158 HD
ENDBRANCH  35  36
ENDBRANCH   2  31
TORSDOF 10
ENDMDL
MODEL 3
REMARK VINA RESULT:      -8.9      5.362     11.704
REMARK  10 active torsions:
REMARK  status: ('A' for Active; 'I' for Inactive)
REMARK    1  A    between atoms: C_2  and  N_3 
REMARK    2  A    between atoms: N_3  and  C_5 
REMARK    3  A    between atoms: N_3  and  C_34 
REMARK    4  A    between atoms: C_5  and  C_6 
REMARK    5  A    between atoms: N_7  and  C_8 
REMARK    6  A    between atoms: C_12  and  N_13 
REMARK    7  A    between atoms: C_16  and  C_17 
REMARK       I    between atoms: C_17  and  N_18 
REMARK    8  A    between atoms: N_18  and  N_19 
REMARK    9  A    between atoms: C_20  and  C_21 
REMARK   10  A    between atoms: C_23  and  C_24 
ROOT
HETATM    1  C   UNL     1      20.278  49.160  49.134  1.00  0.00     0.096 A 
HETATM    2  N   UNL     1      19.844  50.483  49.096  1.00  0.00    -0.215 N 
HETATM    3  N   UNL     1      20.931  51.294  49.007  1.00  0.00     0.012 NA
HETATM    4  N   UNL     1      22.021  50.555  48.885  1.00  0.00    -0.152 NA
HETATM    5  C   UNL     1      21.652  49.244  48.953  1.00  0.00     0.170 A 
ENDROOT
BRANCH   5   6
HETATM    6  C   UNL     1      22.585  48.131  48.836  1.00  0.00     0.293 C 
HETATM    7  N   UNL     1      23.418  47.970  49.927  1.00  0.00    -0.242 N 
HETATM    8  H   UNL     1      23.352  48.600  50.725  1.00  0.00     0.192 HD
HETATM    9  O   UNL     1      22.604  47.450  47.813  1.00  0.00    -0.264 OA
BRANCH   7  10
HETATM   10  N   UNL     1      24.328  46.954  49.921  1.00  0.00    -0.181 NA
HETATM   11  C   UNL     1      24.893  46.671  51.052  1.00  0.00     0.175 C 
BRANCH  11  12
HETATM   12  C   UNL     1      25.853  45.609  51.131  1.00  0.00     0.095 A 
HETATM   13  O   UNL     1      26.635  45.527  52.246  1.00  0.00    -0.309 OA
HETATM   14  C   UNL     1      27.469  44.451  52.091  1.00  0.00     0.086 A 
HETATM   15  C   UNL     1      27.208  43.845  50.876  1.00  0.00     0.041 A 
HETATM   16  C   UNL     1      26.176  44.590  50.259  1.00  0.00     0.041 A 
BRANCH  14  17
HETATM   17  C   UNL     1      28.407  44.187  53.179  1.00  0.00    -0.002 A 
HETATM   18  C   UNL     1      28.368  44.924  54.374  1.00  0.00     0.015 A 
HETATM   19  C   UNL     1      29.278  44.671  55.407  1.00  0.00     0.020 A 
HETATM   20  C   UNL     1      30.238  43.676  55.254  1.00  0.00     0.011 A 
HETATM   21 BR   UNL     1      31.469  43.334  56.646  1.00  0.00    -0.051 Br
HETATM   22  C   UNL     1      30.296  42.931  54.080  1.00  0.00     0.020 A 
HETATM   23  C   UNL     1      29.385  43.188  53.049  1.00  0.00     0.015 A 
ENDBRANCH  14  17
ENDBRANCH  11  12
ENDBRANCH   7  10
ENDBRANCH   5   6
BRANCH   1  24
HETATM   24  C   UNL     1      19.426  47.977  49.413  1.00  0.00     0.296 C 
BRANCH  24  25
HETATM   25  N   UNL     1      18.524  47.518  48.279  1.00  0.00    -0.066 N 
HETATM   26  H   UNL     1      18.419  48.325  47.645  1.00  0.00     0.280 HD
BRANCH  25  27
HETATM   27  C   UNL     1      17.135  47.166  48.798  1.00  0.00     0.231 C 
HETATM   28  C   UNL     1      16.055  47.928  48.049  1.00  0.00     0.034 C 
ENDBRANCH  25  27
BRANCH  25  29
HETATM   29  C   UNL     1      19.124  46.363  47.490  1.00  0.00     0.231 C 
HETATM   30  C   UNL     1      19.722  45.320  48.421  1.00  0.00     0.034 C 
ENDBRANCH  25  29
ENDBRANCH  24  25
ENDBRANCH   1  24
BRANCH   2  31
HETATM   31  C   UNL     1      18.519  50.978  49.088  1.00  0.00     0.225 A 
HETATM   32  N   UNL     1      17.887  51.206  50.243  1.00  0.00    -0.081 NA
HETATM   33  O   UNL     1      16.625  51.658  49.844  1.00  0.00    -0.103 OA
HETATM   34  N   UNL     1      16.510  51.665  48.461  1.00  0.00    -0.083 NA
HETATM   35  C   UNL     1      17.682  51.241  47.992  1.00  0.00     0.201 A 
BRANCH  35  36
HETATM   36  N   UNL     1      17.978  51.111  46.690  1.00  0.00    -0.379 N 
HETATM   37  H   UNL     1      18.940  50.959  46.395  1.00  0.00     0.158 HD
HETATM   38  H   UNL     1      17.329  51.317  45.933  1.00  0.00     0.158 HD
ENDBRANCH  35  36
ENDBRANCH   2  31
TORSDOF 10
ENDMDL
MODEL 4
REMARK VINA RESULT:      -8.8      5.100     11.170
REMARK  10 active torsions:
REMARK  status: ('A' for Active; 'I' for Inactive)
REMARK    1  A    between atoms: C_2  and  N_3 
REMARK    2  A    between atoms: N_3  and  C_5 
REMARK    3  A    between atoms: N_3  and  C_34 
REMARK    4  A    between atoms: C_5  and  C_6 
REMARK    5  A    between atoms: N_7  and  C_8 
REMARK    6  A    between atoms: C_12  and  N_13 
REMARK    7  A    between atoms: C_16  and  C_17 
REMARK       I    between atoms: C_17  and  N_18 
REMARK    8  A    between atoms: N_18  and  N_19 
REMARK    9  A    between atoms: C_20  and  C_21 
REMARK   10  A    between atoms: C_23  and  C_24 
ROOT
HETATM    1  C   UNL     1      21.261  46.589  48.395  1.00  0.00     0.096 A 
HETATM    2  N   UNL     1      19.874  46.477  48.447  1.00  0.00    -0.215 N 
HETATM    3  N   UNL     1      19.548  45.168  48.611  1.00  0.00     0.012 NA
HETATM    4  N   UNL     1      20.653  44.458  48.765  1.00  0.00    -0.152 NA
HETATM    5  C   UNL     1      21.718  45.301  48.644  1.00  0.00     0.170 A 
ENDROOT
BRANCH   5   6
HETATM    6  C   UNL     1      23.106  44.880  48.775  1.00  0.00     0.293 C 
HETATM    7  N   UNL     1      23.585  44.898  50.072  1.00  0.00    -0.242 N 
HETATM    8  H   UNL     1      22.984  45.189  50.841  1.00  0.00     0.192 HD
HETATM    9  O   UNL     1      23.755  44.578  47.776  1.00  0.00    -0.264 OA
BRANCH   7  10
HETATM   10  N   UNL     1      24.874  44.520  50.307  1.00  0.00    -0.181 NA
HETATM   11  C   UNL     1      25.175  44.201  51.526  1.00  0.00     0.175 C 
BRANCH  11  12
HETATM   12  C   UNL     1      26.507  43.782  51.853  1.00  0.00     0.095 A 
HETATM   13  O   UNL     1      27.035  44.181  53.046  1.00  0.00    -0.309 OA
HETATM   14  C   UNL     1      28.303  43.671  53.131  1.00  0.00     0.086 A 
HETATM   15  C   UNL     1      28.577  42.939  51.991  1.00  0.00     0.041 A 
HETATM   16  C   UNL     1      27.427  43.014  51.170  1.00  0.00     0.041 A 
BRANCH  14  17
HETATM   17  C   UNL     1      29.060  43.992  54.339  1.00  0.00    -0.002 A 
HETATM   18  C   UNL     1      28.748  45.117  55.119  1.00  0.00     0.015 A 
HETATM   19  C   UNL     1      29.485  45.423  56.269  1.00  0.00     0.020 A 
HETATM   20  C   UNL     1      30.543  44.604  56.650  1.00  0.00     0.011 A 
HETATM   21 BR   UNL     1      31.540  45.016  58.201  1.00  0.00    -0.051 Br
HETATM   22  C   UNL     1      30.870  43.482  55.894  1.00  0.00     0.020 A 
HETATM   23  C   UNL     1      30.132  43.181  54.744  1.00  0.00     0.015 A 
ENDBRANCH  14  17
ENDBRANCH  11  12
ENDBRANCH   7  10
ENDBRANCH   5   6
BRANCH   1  24
HETATM   24  C   UNL     1      22.019  47.815  48.044  1.00  0.00     0.296 C 
BRANCH  24  25
HETATM   25  N   UNL     1      22.468  48.682  49.209  1.00  0.00    -0.066 N 
HETATM   26  H   UNL     1      22.389  48.098  50.055  1.00  0.00     0.280 HD
BRANCH  25  27
HETATM   27  C   UNL     1      21.535  49.873  49.392  1.00  0.00     0.231 C 
HETATM   28  C   UNL     1      21.182  50.508  48.058  1.00  0.00     0.034 C 
ENDBRANCH  25  27
BRANCH  25  29
HETATM   29  C   UNL     1      23.914  49.135  49.072  1.00  0.00     0.231 C 
HETATM   30  C   UNL     1      24.871  48.068  49.579  1.00  0.00     0.034 C 
ENDBRANCH  25  29
ENDBRANCH  24  25
ENDBRANCH   1  24
BRANCH   2  31
HETATM   31  C   UNL     1      18.904  47.506  48.406  1.00  0.00     0.225 A 
HETATM   32  N   UNL     1      18.444  47.940  47.229  1.00  0.00    -0.081 NA
HETATM   33  O   UNL     1      17.539  48.947  47.579  1.00  0.00    -0.103 OA
HETATM   34  N   UNL     1      17.492  49.122  48.955  1.00  0.00    -0.083 NA
HETATM   35  C   UNL     1      18.339  48.231  49.468  1.00  0.00     0.201 A 
BRANCH  35  36
HETATM   36  N   UNL     1      18.579  48.076  50.779  1.00  0.00    -0.379 N 
HETATM   37  H   UNL     1      17.984  48.530  51.467  1.00  0.00     0.158 HD
HETATM   38  H   UNL     1      19.427  47.660  51.159  1.00  0.00     0.158 HD
ENDBRANCH  35  36
ENDBRANCH   2  31
TORSDOF 10
ENDMDL
MODEL 5
REMARK VINA RESULT:      -8.8      2.645      4.756
REMARK  10 active torsions:
REMARK  status: ('A' for Active; 'I' for Inactive)
REMARK    1  A    between atoms: C_2  and  N_3 
REMARK    2  A    between atoms: N_3  and  C_5 
REMARK    3  A    between atoms: N_3  and  C_34 
REMARK    4  A    between atoms: C_5  and  C_6 
REMARK    5  A    between atoms: N_7  and  C_8 
REMARK    6  A    between atoms: C_12  and  N_13 
REMARK    7  A    between atoms: C_16  and  C_17 
REMARK       I    between atoms: C_17  and  N_18 
REMARK    8  A    between atoms: N_18  and  N_19 
REMARK    9  A    between atoms: C_20  and  C_21 
REMARK   10  A    between atoms: C_23  and  C_24 
ROOT
HETATM    1  C   UNL     1      26.902  44.706  51.680  1.00  0.00     0.096 A 
HETATM    2  N   UNL     1      27.459  43.472  51.351  1.00  0.00    -0.215 N 
HETATM    3  N   UNL     1      27.451  43.337  49.999  1.00  0.00     0.012 NA
HETATM    4  N   UNL     1      27.012  44.458  49.450  1.00  0.00    -0.152 NA
HETATM    5  C   UNL     1      26.675  45.316  50.454  1.00  0.00     0.170 A 
ENDROOT
BRANCH   5   6
HETATM    6  C   UNL     1      26.169  46.665  50.234  1.00  0.00     0.293 C 
HETATM    7  N   UNL     1      24.798  46.787  50.364  1.00  0.00    -0.242 N 
HETATM    8  H   UNL     1      24.228  45.975  50.596  1.00  0.00     0.192 HD
HETATM    9  O   UNL     1      26.943  47.570  49.927  1.00  0.00    -0.264 OA
BRANCH   7  10
HETATM   10  N   UNL     1      24.222  48.009  50.182  1.00  0.00    -0.181 NA
HETATM   11  C   UNL     1      23.638  48.213  49.043  1.00  0.00     0.175 C 
BRANCH  11  12
HETATM   12  C   UNL     1      22.999  49.469  48.778  1.00  0.00     0.095 A 
HETATM   13  O   UNL     1      21.682  49.606  49.107  1.00  0.00    -0.309 OA
HETATM   14  C   UNL     1      21.295  50.872  48.757  1.00  0.00     0.086 A 
HETATM   15  C   UNL     1      22.373  51.543  48.211  1.00  0.00     0.041 A 
HETATM   16  C   UNL     1      23.463  50.642  48.221  1.00  0.00     0.041 A 
BRANCH  14  17
HETATM   17  C   UNL     1      19.901  51.228  49.017  1.00  0.00    -0.002 A 
HETATM   18  C   UNL     1      19.086  50.435  49.841  1.00  0.00     0.015 A 
HETATM   19  C   UNL     1      17.750  50.778  50.076  1.00  0.00     0.020 A 
HETATM   20  C   UNL     1      17.215  51.919  49.487  1.00  0.00     0.011 A 
HETATM   21 BR   UNL     1      15.410  52.381  49.800  1.00  0.00    -0.051 Br
HETATM   22  C   UNL     1      18.003  52.721  48.667  1.00  0.00     0.020 A 
HETATM   23  C   UNL     1      19.339  52.374  48.434  1.00  0.00     0.015 A 
ENDBRANCH  14  17
ENDBRANCH  11  12
ENDBRANCH   7  10
ENDBRANCH   5   6
BRANCH   1  24
HETATM   24  C   UNL     1      26.559  45.163  53.049  1.00  0.00     0.296 C 
BRANCH  24  25
HETATM   25  N   UNL     1      27.149  46.497  53.478  1.00  0.00    -0.066 N 
HETATM   26  H   UNL     1      27.755  46.810  52.704  1.00  0.00     0.280 HD
BRANCH  25  27
HETATM   27  C   UNL     1      28.035  46.329  54.707  1.00  0.00     0.231 C 
HETATM   28  C   UNL     1      27.948  44.918  55.262  1.00  0.00     0.034 C 
ENDBRANCH  25  27
BRANCH  25  29
HETATM   29  C   UNL     1      26.082  47.556  53.712  1.00  0.00     0.231 C 
HETATM   30  C   UNL     1      26.146  48.090  55.134  1.00  0.00     0.034 C 
ENDBRANCH  25  29
ENDBRANCH  24  25
ENDBRANCH   1  24
BRANCH   2  31
HETATM   31  C   UNL     1      28.015  42.497  52.211  1.00  0.00     0.225 A 
HETATM   32  N   UNL     1      29.083  42.799  52.957  1.00  0.00    -0.081 NA
HETATM   33  O   UNL     1      29.352  41.610  53.643  1.00  0.00    -0.103 OA
HETATM   34  N   UNL     1      28.464  40.609  53.278  1.00  0.00    -0.083 NA
HETATM   35  C   UNL     1      27.637  41.156  52.389  1.00  0.00     0.201 A 
BRANCH  35  36
HETATM   36  N   UNL     1      26.622  40.511  51.795  1.00  0.00    -0.379 N 
HETATM   37  H   UNL     1      25.809  41.025  51.465  1.00  0.00     0.158 HD
HETATM   38  H   UNL     1      26.517  39.498  51.787  1.00  0.00     0.158 HD
ENDBRANCH  35  36
ENDBRANCH   2  31
TORSDOF 10
ENDMDL
MODEL 6
REMARK VINA RESULT:      -8.7      5.657     11.798
REMARK  10 active torsions:
REMARK  status: ('A' for Active; 'I' for Inactive)
REMARK    1  A    between atoms: C_2  and  N_3 
REMARK    2  A    between atoms: N_3  and  C_5 
REMARK    3  A    between atoms: N_3  and  C_34 
REMARK    4  A    between atoms: C_5  and  C_6 
REMARK    5  A    between atoms: N_7  and  C_8 
REMARK    6  A    between atoms: C_12  and  N_13 
REMARK    7  A    between atoms: C_16  and  C_17 
REMARK       I    between atoms: C_17  and  N_18 
REMARK    8  A    between atoms: N_18  and  N_19 
REMARK    9  A    between atoms: C_20  and  C_21 
REMARK   10  A    between atoms: C_23  and  C_24 
ROOT
HETATM    1  C   UNL     1      19.322  46.433  47.909  1.00  0.00     0.096 A 
HETATM    2  N   UNL     1      17.972  46.150  47.719  1.00  0.00    -0.215 N 
HETATM    3  N   UNL     1      17.825  44.808  47.562  1.00  0.00     0.012 NA
HETATM    4  N   UNL     1      18.995  44.216  47.742  1.00  0.00    -0.152 NA
HETATM    5  C   UNL     1      19.929  45.185  47.962  1.00  0.00     0.170 A 
ENDROOT
BRANCH   5   6
HETATM    6  C   UNL     1      21.336  44.912  48.224  1.00  0.00     0.293 C 
HETATM    7  N   UNL     1      21.630  44.665  49.552  1.00  0.00    -0.242 N 
HETATM    8  H   UNL     1      20.893  44.683  50.256  1.00  0.00     0.192 HD
HETATM    9  O   UNL     1      22.151  44.946  47.304  1.00  0.00    -0.264 OA
BRANCH   7  10
HETATM   10  N   UNL     1      22.919  44.395  49.906  1.00  0.00    -0.181 NA
HETATM   11  C   UNL     1      23.178  43.182  50.280  1.00  0.00     0.175 C 
BRANCH  11  12
HETATM   12  C   UNL     1      24.512  42.816  50.658  1.00  0.00     0.095 A 
HETATM   13  O   UNL     1      25.122  43.529  51.648  1.00  0.00    -0.309 OA
HETATM   14  C   UNL     1      26.375  43.007  51.827  1.00  0.00     0.086 A 
HETATM   15  C   UNL     1      26.558  41.953  50.951  1.00  0.00     0.041 A 
HETATM   16  C   UNL     1      25.365  41.834  50.199  1.00  0.00     0.041 A 
BRANCH  14  17
HETATM   17  C   UNL     1      27.211  43.639  52.845  1.00  0.00    -0.002 A 
HETATM   18  C   UNL     1      28.412  43.051  53.273  1.00  0.00     0.015 A 
HETATM   19  C   UNL     1      29.201  43.659  54.256  1.00  0.00     0.020 A 
HETATM   20  C   UNL     1      28.794  44.862  54.823  1.00  0.00     0.011 A 
HETATM   21 BR   UNL     1      29.856  45.683  56.153  1.00  0.00    -0.051 Br
HETATM   22  C   UNL     1      27.608  45.465  54.415  1.00  0.00     0.020 A 
HETATM   23  C   UNL     1      26.821  44.854  53.432  1.00  0.00     0.015 A 
ENDBRANCH  14  17
ENDBRANCH  11  12
ENDBRANCH   7  10
ENDBRANCH   5   6
BRANCH   1  24
HETATM   24  C   UNL     1      19.928  47.787  47.936  1.00  0.00     0.296 C 
BRANCH  24  25
HETATM   25  N   UNL     1      20.367  48.298  49.299  1.00  0.00    -0.066 N 
HETATM   26  H   UNL     1      20.441  47.471  49.911  1.00  0.00     0.280 HD
BRANCH  25  27
HETATM   27  C   UNL     1      19.310  49.215  49.903  1.00  0.00     0.231 C 
HETATM   28  C   UNL     1      18.661  48.583  51.122  1.00  0.00     0.034 C 
ENDBRANCH  25  27
BRANCH  25  29
HETATM   29  C   UNL     1      21.725  48.984  49.252  1.00  0.00     0.231 C 
HETATM   30  C   UNL     1      22.656  48.284  48.275  1.00  0.00     0.034 C 
ENDBRANCH  25  29
ENDBRANCH  24  25
ENDBRANCH   1  24
BRANCH   2  31
HETATM   31  C   UNL     1      16.873  47.041  47.733  1.00  0.00     0.225 A 
HETATM   32  N   UNL     1      16.289  47.358  48.892  1.00  0.00    -0.081 NA
HETATM   33  O   UNL     1      15.255  48.221  48.515  1.00  0.00    -0.103 OA
HETATM   34  N   UNL     1      15.216  48.385  47.138  1.00  0.00    -0.083 NA
HETATM   35  C   UNL     1      16.216  47.651  46.652  1.00  0.00     0.201 A 
BRANCH  35  36
HETATM   36  N   UNL     1      16.520  47.546  45.350  1.00  0.00    -0.379 N 
HETATM   37  H   UNL     1      17.436  47.212  45.061  1.00  0.00     0.158 HD
HETATM   38  H   UNL     1      15.954  47.937  44.598  1.00  0.00     0.158 HD
ENDBRANCH  35  36
ENDBRANCH   2  31
TORSDOF 10
ENDMDL
MODEL 7
REMARK VINA RESULT:      -8.2     13.866     16.730
REMARK  10 active torsions:
REMARK  status: ('A' for Active; 'I' for Inactive)
REMARK    1  A    between atoms: C_2  and  N_3 
REMARK    2  A    between atoms: N_3  and  C_5 
REMARK    3  A    between atoms: N_3  and  C_34 
REMARK    4  A    between atoms: C_5  and  C_6 
REMARK    5  A    between atoms: N_7  and  C_8 
REMARK    6  A    between atoms: C_12  and  N_13 
REMARK    7  A    between atoms: C_16  and  C_17 
REMARK       I    between atoms: C_17  and  N_18 
REMARK    8  A    between atoms: N_18  and  N_19 
REMARK    9  A    between atoms: C_20  and  C_21 
REMARK   10  A    between atoms: C_23  and  C_24 
ROOT
HETATM    1  C   UNL     1      29.629  51.005  40.222  1.00  0.00     0.096 A 
HETATM    2  N   UNL     1      28.261  51.180  40.027  1.00  0.00    -0.215 N 
HETATM    3  N   UNL     1      27.886  52.353  40.604  1.00  0.00     0.012 NA
HETATM    4  N   UNL     1      28.957  52.977  41.064  1.00  0.00    -0.152 NA
HETATM    5  C   UNL     1      30.040  52.179  40.840  1.00  0.00     0.170 A 
ENDROOT
BRANCH   5   6
HETATM    6  C   UNL     1      31.405  52.544  41.195  1.00  0.00     0.293 C 
HETATM    7  N   UNL     1      31.952  51.780  42.209  1.00  0.00    -0.242 N 
HETATM    8  H   UNL     1      31.410  51.035  42.644  1.00  0.00     0.192 HD
HETATM    9  O   UNL     1      31.959  53.484  40.628  1.00  0.00    -0.264 OA
BRANCH   7  10
HETATM   10  N   UNL     1      33.228  52.036  42.618  1.00  0.00    -0.181 NA
HETATM   11  C   UNL     1      34.144  51.213  42.218  1.00  0.00     0.175 C 
BRANCH  11  12
HETATM   12  C   UNL     1      35.512  51.420  42.595  1.00  0.00     0.095 A 
HETATM   13  O   UNL     1      35.860  52.629  43.123  1.00  0.00    -0.309 OA
HETATM   14  C   UNL     1      37.202  52.593  43.397  1.00  0.00     0.086 A 
HETATM   15  C   UNL     1      37.704  51.353  43.048  1.00  0.00     0.041 A 
HETATM   16  C   UNL     1      36.622  50.603  42.531  1.00  0.00     0.041 A 
BRANCH  14  17
HETATM   17  C   UNL     1      37.788  53.805  43.964  1.00  0.00    -0.002 A 
HETATM   18  C   UNL     1      37.517  54.200  45.283  1.00  0.00     0.015 A 
HETATM   19  C   UNL     1      38.075  55.368  45.815  1.00  0.00     0.020 A 
HETATM   20  C   UNL     1      38.912  56.153  45.030  1.00  0.00     0.011 A 
HETATM   21 BR   UNL     1      39.665  57.732  45.745  1.00  0.00    -0.051 Br
HETATM   22  C   UNL     1      39.198  55.782  43.720  1.00  0.00     0.020 A 
HETATM   23  C   UNL     1      38.637  54.614  43.191  1.00  0.00     0.015 A 
ENDBRANCH  14  17
ENDBRANCH  11  12
ENDBRANCH   7  10
ENDBRANCH   5   6
BRANCH   1  24
HETATM   24  C   UNL     1      30.397  49.775  39.912  1.00  0.00     0.296 C 
BRANCH  24  25
HETATM   25  N   UNL     1      30.172  48.592  40.840  1.00  0.00    -0.066 N 
HETATM   26  H   UNL     1      29.321  48.804  41.382  1.00  0.00     0.280 HD
BRANCH  25  27
HETATM   27  C   UNL     1      31.320  48.454  41.833  1.00  0.00     0.231 C 
HETATM   28  C   UNL     1      32.539  47.822  41.184  1.00  0.00     0.034 C 
ENDBRANCH  25  27
BRANCH  25  29
HETATM   29  C   UNL     1      29.946  47.292  40.080  1.00  0.00     0.231 C 
HETATM   30  C   UNL     1      29.775  47.553  38.593  1.00  0.00     0.034 C 
ENDBRANCH  25  29
ENDBRANCH  24  25
ENDBRANCH   1  24
BRANCH   2  31
HETATM   31  C   UNL     1      27.359  50.358  39.313  1.00  0.00     0.225 A 
HETATM   32  N   UNL     1      27.148  50.577  38.012  1.00  0.00    -0.081 NA
HETATM   33  O   UNL     1      26.203  49.605  37.664  1.00  0.00    -0.103 OA
HETATM   34  N   UNL     1      25.841  48.842  38.764  1.00  0.00    -0.083 NA
HETATM   35  C   UNL     1      26.554  49.309  39.788  1.00  0.00     0.201 A 
BRANCH  35  36
HETATM   36  N   UNL     1      26.496  48.829  41.039  1.00  0.00    -0.379 N 
HETATM   37  H   UNL     1      26.565  49.458  41.835  1.00  0.00     0.158 HD
HETATM   38  H   UNL     1      26.552  47.839  41.273  1.00  0.00     0.158 HD
ENDBRANCH  35  36
ENDBRANCH   2  31
TORSDOF 10
ENDMDL
MODEL 8
REMARK VINA RESULT:      -8.2      4.331      7.487
REMARK  10 active torsions:
REMARK  status: ('A' for Active; 'I' for Inactive)
REMARK    1  A    between atoms: C_2  and  N_3 
REMARK    2  A    between atoms: N_3  and  C_5 
REMARK    3  A    between atoms: N_3  and  C_34 
REMARK    4  A    between atoms: C_5  and  C_6 
REMARK    5  A    between atoms: N_7  and  C_8 
REMARK    6  A    between atoms: C_12  and  N_13 
REMARK    7  A    between atoms: C_16  and  C_17 
REMARK       I    between atoms: C_17  and  N_18 
REMARK    8  A    between atoms: N_18  and  N_19 
REMARK    9  A    between atoms: C_20  and  C_21 
REMARK   10  A    between atoms: C_23  and  C_24 
ROOT
HETATM    1  C   UNL     1      23.873  46.749  49.176  1.00  0.00     0.096 A 
HETATM    2  N   UNL     1      25.110  46.955  49.781  1.00  0.00    -0.215 N 
HETATM    3  N   UNL     1      25.300  48.292  49.941  1.00  0.00     0.012 NA
HETATM    4  N   UNL     1      24.209  48.937  49.562  1.00  0.00    -0.152 NA
HETATM    5  C   UNL     1      23.316  48.019  49.095  1.00  0.00     0.170 A 
ENDROOT
BRANCH   5   6
HETATM    6  C   UNL     1      21.985  48.355  48.606  1.00  0.00     0.293 C 
HETATM    7  N   UNL     1      21.053  48.577  49.603  1.00  0.00    -0.242 N 
HETATM    8  H   UNL     1      21.318  48.501  50.584  1.00  0.00     0.192 HD
HETATM    9  O   UNL     1      21.763  48.390  47.398  1.00  0.00    -0.264 OA
BRANCH   7  10
HETATM   10  N   UNL     1      19.775  48.902  49.254  1.00  0.00    -0.181 NA
HETATM   11  C   UNL     1      19.330  50.045  49.671  1.00  0.00     0.175 C 
BRANCH  11  12
HETATM   12  C   UNL     1      18.000  50.464  49.338  1.00  0.00     0.095 A 
HETATM   13  O   UNL     1      17.512  51.594  49.926  1.00  0.00    -0.309 OA
HETATM   14  C   UNL     1      16.237  51.787  49.464  1.00  0.00     0.086 A 
HETATM   15  C   UNL     1      15.919  50.780  48.573  1.00  0.00     0.041 A 
HETATM   16  C   UNL     1      17.047  49.930  48.496  1.00  0.00     0.041 A 
BRANCH  14  17
HETATM   17  C   UNL     1      15.520  52.950  49.983  1.00  0.00    -0.002 A 
HETATM   18  C   UNL     1      16.076  54.238  49.925  1.00  0.00     0.015 A 
HETATM   19  C   UNL     1      15.387  55.344  50.434  1.00  0.00     0.020 A 
HETATM   20  C   UNL     1      14.131  55.172  51.007  1.00  0.00     0.011 A 
HETATM   21 BR   UNL     1      13.200  56.664  51.698  1.00  0.00    -0.051 Br
HETATM   22  C   UNL     1      13.558  53.906  51.076  1.00  0.00     0.020 A 
HETATM   23  C   UNL     1      14.252  52.802  50.567  1.00  0.00     0.015 A 
ENDBRANCH  14  17
ENDBRANCH  11  12
ENDBRANCH   7  10
ENDBRANCH   5   6
BRANCH   1  24
HETATM   24  C   UNL     1      23.365  45.453  48.662  1.00  0.00     0.296 C 
BRANCH  24  25
HETATM   25  N   UNL     1      22.269  44.790  49.481  1.00  0.00    -0.066 N 
HETATM   26  H   UNL     1      22.154  45.362  50.331  1.00  0.00     0.280 HD
BRANCH  25  27
HETATM   27  C   UNL     1      22.691  43.395  49.926  1.00  0.00     0.231 C 
HETATM   28  C   UNL     1      24.003  42.982  49.280  1.00  0.00     0.034 C 
ENDBRANCH  25  27
BRANCH  25  29
HETATM   29  C   UNL     1      20.938  44.751  48.745  1.00  0.00     0.231 C 
HETATM   30  C   UNL     1      21.134  44.951  47.251  1.00  0.00     0.034 C 
ENDBRANCH  25  29
ENDBRANCH  24  25
ENDBRANCH   1  24
BRANCH   2  31
HETATM   31  C   UNL     1      26.041  45.993  50.237  1.00  0.00     0.225 A 
HETATM   32  N   UNL     1      27.031  45.593  49.434  1.00  0.00    -0.081 NA
HETATM   33  O   UNL     1      27.717  44.646  50.202  1.00  0.00    -0.103 OA
HETATM   34  N   UNL     1      27.112  44.472  51.439  1.00  0.00    -0.083 NA
HETATM   35  C   UNL     1      26.072  45.304  51.461  1.00  0.00     0.201 A 
BRANCH  35  36
HETATM   36  N   UNL     1      25.228  45.440  52.494  1.00  0.00    -0.379 N 
HETATM   37  H   UNL     1      24.993  46.365  52.847  1.00  0.00     0.158 HD
HETATM   38  H   UNL     1      24.914  44.669  53.081  1.00  0.00     0.158 HD
ENDBRANCH  35  36
ENDBRANCH   2  31
TORSDOF 10
ENDMDL
MODEL 9
REMARK VINA RESULT:      -7.9      4.404      7.439
REMARK  10 active torsions:
REMARK  status: ('A' for Active; 'I' for Inactive)
REMARK    1  A    between atoms: C_2  and  N_3 
REMARK    2  A    between atoms: N_3  and  C_5 
REMARK    3  A    between atoms: N_3  and  C_34 
REMARK    4  A    between atoms: C_5  and  C_6 
REMARK    5  A    between atoms: N_7  and  C_8 
REMARK    6  A    between atoms: C_12  and  N_13 
REMARK    7  A    between atoms: C_16  and  C_17 
REMARK       I    between atoms: C_17  and  N_18 
REMARK    8  A    between atoms: N_18  and  N_19 
REMARK    9  A    between atoms: C_20  and  C_21 
REMARK   10  A    between atoms: C_23  and  C_24 
ROOT
HETATM    1  C   UNL     1      23.915  46.379  49.351  1.00  0.00     0.096 A 
HETATM    2  N   UNL     1      24.438  45.102  49.545  1.00  0.00    -0.215 N 
HETATM    3  N   UNL     1      23.537  44.190  49.093  1.00  0.00     0.012 NA
HETATM    4  N   UNL     1      22.519  44.821  48.533  1.00  0.00    -0.152 NA
HETATM    5  C   UNL     1      22.725  46.161  48.670  1.00  0.00     0.170 A 
ENDROOT
BRANCH   5   6
HETATM    6  C   UNL     1      21.819  47.180  48.155  1.00  0.00     0.293 C 
HETATM    7  N   UNL     1      21.027  47.776  49.119  1.00  0.00    -0.242 N 
HETATM    8  H   UNL     1      21.102  47.495  50.095  1.00  0.00     0.192 HD
HETATM    9  O   UNL     1      21.784  47.420  46.950  1.00  0.00    -0.264 OA
BRANCH   7  10
HETATM   10  N   UNL     1      20.144  48.745  48.743  1.00  0.00    -0.181 NA
HETATM   11  C   UNL     1      19.957  49.718  49.579  1.00  0.00     0.175 C 
BRANCH  11  12
HETATM   12  C   UNL     1      19.053  50.782  49.253  1.00  0.00     0.095 A 
HETATM   13  O   UNL     1      18.399  50.730  48.056  1.00  0.00    -0.309 OA
HETATM   14  C   UNL     1      17.606  51.844  47.967  1.00  0.00     0.086 A 
HETATM   15  C   UNL     1      17.753  52.600  49.114  1.00  0.00     0.041 A 
HETATM   16  C   UNL     1      18.683  51.921  49.936  1.00  0.00     0.041 A 
BRANCH  14  17
HETATM   17  C   UNL     1      16.819  51.992  46.744  1.00  0.00    -0.002 A 
HETATM   18  C   UNL     1      17.412  52.398  45.538  1.00  0.00     0.015 A 
HETATM   19  C   UNL     1      16.649  52.547  44.374  1.00  0.00     0.020 A 
HETATM   20  C   UNL     1      15.282  52.291  44.407  1.00  0.00     0.011 A 
HETATM   21 BR   UNL     1      14.249  52.495  42.838  1.00  0.00    -0.051 Br
HETATM   22  C   UNL     1      14.672  51.886  45.590  1.00  0.00     0.020 A 
HETATM   23  C   UNL     1      15.438  51.739  46.752  1.00  0.00     0.015 A 
ENDBRANCH  14  17
ENDBRANCH  11  12
ENDBRANCH   7  10
ENDBRANCH   5   6
BRANCH   1  24
HETATM   24  C   UNL     1      24.497  47.640  49.871  1.00  0.00     0.296 C 
BRANCH  24  25
HETATM   25  N   UNL     1      25.563  48.294  49.006  1.00  0.00    -0.066 N 
HETATM   26  H   UNL     1      25.748  47.642  48.229  1.00  0.00     0.280 HD
BRANCH  25  27
HETATM   27  C   UNL     1      26.866  48.459  49.779  1.00  0.00     0.231 C 
HETATM   28  C   UNL     1      27.831  49.375  49.047  1.00  0.00     0.034 C 
ENDBRANCH  25  27
BRANCH  25  29
HETATM   29  C   UNL     1      25.101  49.621  48.420  1.00  0.00     0.231 C 
HETATM   30  C   UNL     1      23.772  50.050  49.021  1.00  0.00     0.034 C 
ENDBRANCH  25  29
ENDBRANCH  24  25
ENDBRANCH   1  24
BRANCH   2  31
HETATM   31  C   UNL     1      25.703  44.734  50.061  1.00  0.00     0.225 A 
HETATM   32  N   UNL     1      26.815  45.091  49.411  1.00  0.00    -0.081 NA
HETATM   33  O   UNL     1      27.840  44.546  50.190  1.00  0.00    -0.103 OA
HETATM   34  N   UNL     1      27.329  43.848  51.275  1.00  0.00    -0.083 NA
HETATM   35  C   UNL     1      26.004  43.962  51.194  1.00  0.00     0.201 A 
BRANCH  35  36
HETATM   36  N   UNL     1      25.139  43.427  52.069  1.00  0.00    -0.379 N 
HETATM   37  H   UNL     1      25.475  42.846  52.834  1.00  0.00     0.158 HD
HETATM   38  H   UNL     1      24.129  43.416  51.939  1.00  0.00     0.158 HD
ENDBRANCH  35  36
ENDBRANCH   2  31
TORSDOF 10
ENDMDL
MODEL 10
REMARK VINA RESULT:      -7.9     13.947     17.209
REMARK  10 active torsions:
REMARK  status: ('A' for Active; 'I' for Inactive)
REMARK    1  A    between atoms: C_2  and  N_3 
REMARK    2  A    between atoms: N_3  and  C_5 
REMARK    3  A    between atoms: N_3  and  C_34 
REMARK    4  A    between atoms: C_5  and  C_6 
REMARK    5  A    between atoms: N_7  and  C_8 
REMARK    6  A    between atoms: C_12  and  N_13 
REMARK    7  A    between atoms: C_16  and  C_17 
REMARK       I    between atoms: C_17  and  N_18 
REMARK    8  A    between atoms: N_18  and  N_19 
REMARK    9  A    between atoms: C_20  and  C_21 
REMARK   10  A    between atoms: C_23  and  C_24 
ROOT
HETATM    1  C   UNL     1      30.785  51.055  41.446  1.00  0.00     0.096 A 
HETATM    2  N   UNL     1      29.995  51.781  40.558  1.00  0.00    -0.215 N 
HETATM    3  N   UNL     1      30.339  53.093  40.641  1.00  0.00     0.012 NA
HETATM    4  N   UNL     1      31.370  53.224  41.459  1.00  0.00    -0.152 NA
HETATM    5  C   UNL     1      31.669  51.993  41.963  1.00  0.00     0.170 A 
ENDROOT
BRANCH   5   6
HETATM    6  C   UNL     1      32.766  51.738  42.887  1.00  0.00     0.293 C 
HETATM    7  N   UNL     1      34.020  52.008  42.371  1.00  0.00    -0.242 N 
HETATM    8  H   UNL     1      34.122  52.355  41.419  1.00  0.00     0.192 HD
HETATM    9  O   UNL     1      32.534  51.287  44.007  1.00  0.00    -0.264 OA
BRANCH   7  10
HETATM   10  N   UNL     1      35.116  51.805  43.156  1.00  0.00    -0.181 NA
HETATM   11  C   UNL     1      36.245  51.626  42.545  1.00  0.00     0.175 C 
BRANCH  11  12
HETATM   12  C   UNL     1      37.446  51.418  43.299  1.00  0.00     0.095 A 
HETATM   13  O   UNL     1      38.011  50.176  43.284  1.00  0.00    -0.309 OA
HETATM   14  C   UNL     1      39.130  50.218  44.072  1.00  0.00     0.086 A 
HETATM   15  C   UNL     1      39.279  51.493  44.583  1.00  0.00     0.041 A 
HETATM   16  C   UNL     1      38.197  52.261  44.091  1.00  0.00     0.041 A 
BRANCH  14  17
HETATM   17  C   UNL     1      39.888  48.975  44.203  1.00  0.00    -0.002 A 
HETATM   18  C   UNL     1      41.154  48.825  43.616  1.00  0.00     0.015 A 
HETATM   19  C   UNL     1      41.868  47.628  43.739  1.00  0.00     0.020 A 
HETATM   20  C   UNL     1      41.320  46.566  44.450  1.00  0.00     0.011 A 
HETATM   21 BR   UNL     1      42.280  44.947  44.614  1.00  0.00    -0.051 Br
HETATM   22  C   UNL     1      40.066  46.690  45.042  1.00  0.00     0.020 A 
HETATM   23  C   UNL     1      39.355  47.889  44.917  1.00  0.00     0.015 A 
ENDBRANCH  14  17
ENDBRANCH  11  12
ENDBRANCH   7  10
ENDBRANCH   5   6
BRANCH   1  24
HETATM   24  C   UNL     1      30.603  49.625  41.796  1.00  0.00     0.296 C 
BRANCH  24  25
HETATM   25  N   UNL     1      30.417  48.668  40.629  1.00  0.00    -0.066 N 
HETATM   26  H   UNL     1      30.120  49.242  39.826  1.00  0.00     0.280 HD
BRANCH  25  27
HETATM   27  C   UNL     1      29.297  47.674  40.914  1.00  0.00     0.231 C 
HETATM   28  C   UNL     1      28.416  47.469  39.694  1.00  0.00     0.034 C 
ENDBRANCH  25  27
BRANCH  25  29
HETATM   29  C   UNL     1      31.705  47.949  40.256  1.00  0.00     0.231 C 
HETATM   30  C   UNL     1      32.628  47.824  41.457  1.00  0.00     0.034 C 
ENDBRANCH  25  29
ENDBRANCH  24  25
ENDBRANCH   1  24
BRANCH   2  31
HETATM   31  C   UNL     1      29.023  51.304  39.647  1.00  0.00     0.225 A 
HETATM   32  N   UNL     1      29.391  50.928  38.419  1.00  0.00    -0.081 NA
HETATM   33  O   UNL     1      28.187  50.545  37.818  1.00  0.00    -0.103 OA
HETATM   34  N   UNL     1      27.116  50.725  38.681  1.00  0.00    -0.083 NA
HETATM   35  C   UNL     1      27.633  51.198  39.814  1.00  0.00     0.201 A 
BRANCH  35  36
HETATM   36  N   UNL     1      26.918  51.499  40.909  1.00  0.00    -0.379 N 
HETATM   37  H   UNL     1      26.357  52.347  40.939  1.00  0.00     0.158 HD
HETATM   38  H   UNL     1      27.016  51.022  41.804  1.00  0.00     0.158 HD
ENDBRANCH  35  36
ENDBRANCH   2  31
TORSDOF 10
ENDMDL
