MODEL 1
REMARK VINA RESULT:      -9.1      0.000      0.000
REMARK  3 active torsions:
REMARK  status: ('A' for Active; 'I' for Inactive)
REMARK    1  A    between atoms: C_4  and  C_5 
REMARK    2  A    between atoms: C_11  and  C_12 
REMARK    3  A    between atoms: C_21  and  N_22 
ROOT
HETATM    1  C   UNL     1      27.146  44.035  54.327  1.00  0.00     0.098 C 
HETATM    2  N   UNL     1      26.118  43.669  55.121  1.00  0.00    -0.172 NA
HETATM    3  N   UNL     1      25.023  43.827  54.361  1.00  0.00    -0.256 N 
HETATM    4  H   UNL     1      24.112  43.669  54.776  1.00  0.00     0.191 HD
HETATM    5  C   UNL     1      25.311  44.278  53.119  1.00  0.00     0.175 C 
HETATM    6  C   UNL     1      26.680  44.315  53.007  1.00  0.00     0.036 C 
HETATM    7  C   UNL     1      27.289  44.749  51.710  1.00  0.00     0.077 C 
HETATM    8  C   UNL     1      26.224  45.556  50.920  1.00  0.00     0.076 C 
HETATM    9  C   UNL     1      26.698  46.419  49.886  1.00  0.00     0.100 C 
HETATM   10  N   UNL     1      27.094  47.096  49.033  1.00  0.00    -0.192 NA
HETATM   11  C   UNL     1      24.892  45.476  51.188  1.00  0.00     0.140 C 
HETATM   12  O   UNL     1      24.403  44.684  52.241  1.00  0.00    -0.279 OA
ENDROOT
BRANCH   7  13
HETATM   13  C   UNL     1      27.849  43.607  50.792  1.00  0.00     0.003 C 
HETATM   14  C   UNL     1      26.879  43.088  49.705  1.00  0.00     0.032 C 
HETATM   15  C   UNL     1      26.060  41.906  50.112  1.00  0.00    -0.030 C 
HETATM   16  C   UNL     1      26.389  41.104  51.130  1.00  0.00    -0.031 C 
HETATM   17  C   UNL     1      27.614  41.289  51.967  1.00  0.00     0.027 C 
HETATM   18  C   UNL     1      28.525  42.439  51.538  1.00  0.00     0.009 C 
ENDBRANCH   7  13
BRANCH  11  19
HETATM   19  N   UNL     1      23.892  46.129  50.504  1.00  0.00    -0.282 NA
HETATM   20  H   UNL     1      24.123  47.063  50.172  1.00  0.00     0.126 HD
HETATM   21  H   UNL     1      23.469  45.543  49.790  1.00  0.00     0.126 HD
ENDBRANCH  11  19
BRANCH   1  22
HETATM   22  C   UNL     1      28.496  44.118  54.891  1.00  0.00    -0.005 A 
HETATM   23  C   UNL     1      28.906  45.289  55.549  1.00  0.00     0.014 A 
HETATM   24  C   UNL     1      30.182  45.387  56.107  1.00  0.00     0.001 A 
HETATM   25  C   UNL     1      31.070  44.319  56.001  1.00  0.00     0.000 A 
HETATM   26  C   UNL     1      30.687  43.161  55.328  1.00  0.00     0.001 A 
HETATM   27  C   UNL     1      29.409  43.063  54.769  1.00  0.00     0.014 A 
ENDBRANCH   1  22
TORSDOF 3
ENDMDL
MODEL 2
REMARK VINA RESULT:      -8.9     12.852     14.357
REMARK  3 active torsions:
REMARK  status: ('A' for Active; 'I' for Inactive)
REMARK    1  A    between atoms: C_4  and  C_5 
REMARK    2  A    between atoms: C_11  and  C_12 
REMARK    3  A    between atoms: C_21  and  N_22 
ROOT
HETATM    1  C   UNL     1      32.438  49.161  41.492  1.00  0.00     0.098 C 
HETATM    2  N   UNL     1      33.136  48.013  41.359  1.00  0.00    -0.172 NA
HETATM    3  N   UNL     1      32.392  47.250  40.544  1.00  0.00    -0.256 N 
HETATM    4  H   UNL     1      32.694  46.302  40.349  1.00  0.00     0.191 HD
HETATM    5  C   UNL     1      31.251  47.863  40.153  1.00  0.00     0.175 C 
HETATM    6  C   UNL     1      31.290  49.146  40.643  1.00  0.00     0.036 C 
HETATM    7  C   UNL     1      30.157  50.074  40.332  1.00  0.00     0.077 C 
HETATM    8  C   UNL     1      28.924  49.219  39.934  1.00  0.00     0.076 C 
HETATM    9  C   UNL     1      27.645  49.845  40.021  1.00  0.00     0.100 C 
HETATM   10  N   UNL     1      26.614  50.373  40.072  1.00  0.00    -0.192 NA
HETATM   11  C   UNL     1      29.027  47.923  39.531  1.00  0.00     0.140 C 
HETATM   12  O   UNL     1      30.267  47.262  39.497  1.00  0.00    -0.279 OA
ENDROOT
BRANCH   7  13
HETATM   13  C   UNL     1      30.423  51.139  39.211  1.00  0.00     0.003 C 
HETATM   14  C   UNL     1      31.638  50.857  38.298  1.00  0.00     0.032 C 
HETATM   15  C   UNL     1      32.916  51.494  38.742  1.00  0.00    -0.030 C 
HETATM   16  C   UNL     1      32.961  52.528  39.589  1.00  0.00    -0.031 C 
HETATM   17  C   UNL     1      31.746  53.172  40.174  1.00  0.00     0.027 C 
HETATM   18  C   UNL     1      30.412  52.606  39.685  1.00  0.00     0.009 C 
ENDBRANCH   7  13
BRANCH  11  19
HETATM   19  N   UNL     1      27.984  47.121  39.127  1.00  0.00    -0.282 NA
HETATM   20  H   UNL     1      27.317  46.866  39.852  1.00  0.00     0.126 HD
HETATM   21  H   UNL     1      27.542  47.464  38.278  1.00  0.00     0.126 HD
ENDBRANCH  11  19
BRANCH   1  22
HETATM   22  C   UNL     1      32.899  50.178  42.441  1.00  0.00    -0.005 A 
HETATM   23  C   UNL     1      32.020  50.671  43.417  1.00  0.00     0.014 A 
HETATM   24  C   UNL     1      32.440  51.629  44.341  1.00  0.00     0.001 A 
HETATM   25  C   UNL     1      33.744  52.118  44.290  1.00  0.00     0.000 A 
HETATM   26  C   UNL     1      34.620  51.657  43.310  1.00  0.00     0.001 A 
HETATM   27  C   UNL     1      34.199  50.698  42.385  1.00  0.00     0.014 A 
ENDBRANCH   1  22
TORSDOF 3
ENDMDL
MODEL 3
REMARK VINA RESULT:      -8.8      2.520      5.834
REMARK  3 active torsions:
REMARK  status: ('A' for Active; 'I' for Inactive)
REMARK    1  A    between atoms: C_4  and  C_5 
REMARK    2  A    between atoms: C_11  and  C_12 
REMARK    3  A    between atoms: C_21  and  N_22 
ROOT
HETATM    1  C   UNL     1      25.728  43.972  50.266  1.00  0.00     0.098 C 
HETATM    2  N   UNL     1      24.979  43.148  49.504  1.00  0.00    -0.172 NA
HETATM    3  N   UNL     1      25.367  41.911  49.848  1.00  0.00    -0.256 N 
HETATM    4  H   UNL     1      24.977  41.119  49.351  1.00  0.00     0.191 HD
HETATM    5  C   UNL     1      26.331  41.913  50.797  1.00  0.00     0.175 C 
HETATM    6  C   UNL     1      26.516  43.217  51.187  1.00  0.00     0.036 C 
HETATM    7  C   UNL     1      27.513  43.517  52.263  1.00  0.00     0.077 C 
HETATM    8  C   UNL     1      28.499  42.321  52.357  1.00  0.00     0.076 C 
HETATM    9  C   UNL     1      29.757  42.566  52.985  1.00  0.00     0.100 C 
HETATM   10  N   UNL     1      30.765  42.771  53.521  1.00  0.00    -0.192 NA
HETATM   11  C   UNL     1      28.211  41.088  51.858  1.00  0.00     0.140 C 
HETATM   12  O   UNL     1      27.007  40.837  51.178  1.00  0.00    -0.279 OA
ENDROOT
BRANCH   7  13
HETATM   13  C   UNL     1      26.926  43.807  53.689  1.00  0.00     0.003 C 
HETATM   14  C   UNL     1      25.453  44.275  53.721  1.00  0.00     0.032 C 
HETATM   15  C   UNL     1      25.267  45.758  53.707  1.00  0.00    -0.030 C 
HETATM   16  C   UNL     1      26.233  46.619  54.045  1.00  0.00    -0.031 C 
HETATM   17  C   UNL     1      27.598  46.199  54.487  1.00  0.00     0.027 C 
HETATM   18  C   UNL     1      27.810  44.689  54.594  1.00  0.00     0.009 C 
ENDBRANCH   7  13
BRANCH  11  19
HETATM   19  N   UNL     1      29.019  39.978  51.941  1.00  0.00    -0.282 NA
HETATM   20  H   UNL     1      30.008  40.161  52.094  1.00  0.00     0.126 HD
HETATM   21  H   UNL     1      28.640  39.273  52.569  1.00  0.00     0.126 HD
ENDBRANCH  11  19
BRANCH   1  22
HETATM   22  C   UNL     1      25.660  45.419  50.043  1.00  0.00    -0.005 A 
HETATM   23  C   UNL     1      24.419  46.073  50.079  1.00  0.00     0.014 A 
HETATM   24  C   UNL     1      24.331  47.453  49.885  1.00  0.00     0.001 A 
HETATM   25  C   UNL     1      25.484  48.194  49.637  1.00  0.00     0.000 A 
HETATM   26  C   UNL     1      26.720  47.555  49.572  1.00  0.00     0.001 A 
HETATM   27  C   UNL     1      26.808  46.173  49.767  1.00  0.00     0.014 A 
ENDBRANCH   1  22
TORSDOF 3
ENDMDL
MODEL 4
REMARK VINA RESULT:      -8.6     12.183     15.238
REMARK  3 active torsions:
REMARK  status: ('A' for Active; 'I' for Inactive)
REMARK    1  A    between atoms: C_4  and  C_5 
REMARK    2  A    between atoms: C_11  and  C_12 
REMARK    3  A    between atoms: C_21  and  N_22 
ROOT
HETATM    1  C   UNL     1      31.866  51.119  39.375  1.00  0.00     0.098 C 
HETATM    2  N   UNL     1      32.786  51.288  38.403  1.00  0.00    -0.172 NA
HETATM    3  N   UNL     1      33.965  51.315  39.043  1.00  0.00    -0.256 N 
HETATM    4  H   UNL     1      34.808  51.498  38.512  1.00  0.00     0.191 HD
HETATM    5  C   UNL     1      33.834  51.169  40.382  1.00  0.00     0.175 C 
HETATM    6  C   UNL     1      32.507  50.920  40.636  1.00  0.00     0.036 C 
HETATM    7  C   UNL     1      32.072  50.681  42.049  1.00  0.00     0.077 C 
HETATM    8  C   UNL     1      33.152  51.273  42.995  1.00  0.00     0.076 C 
HETATM    9  C   UNL     1      32.757  51.550  44.338  1.00  0.00     0.100 C 
HETATM   10  N   UNL     1      32.430  51.746  45.433  1.00  0.00    -0.192 NA
HETATM   11  C   UNL     1      34.422  51.540  42.585  1.00  0.00     0.140 C 
HETATM   12  O   UNL     1      34.820  51.338  41.253  1.00  0.00    -0.279 OA
ENDROOT
BRANCH   7  13
HETATM   13  C   UNL     1      31.807  49.187  42.449  1.00  0.00     0.003 C 
HETATM   14  C   UNL     1      32.554  48.128  41.606  1.00  0.00     0.032 C 
HETATM   15  C   UNL     1      31.786  47.604  40.436  1.00  0.00    -0.030 C 
HETATM   16  C   UNL     1      30.456  47.702  40.332  1.00  0.00    -0.031 C 
HETATM   17  C   UNL     1      29.589  48.332  41.373  1.00  0.00     0.027 C 
HETATM   18  C   UNL     1      30.322  48.811  42.626  1.00  0.00     0.009 C 
ENDBRANCH   7  13
BRANCH  11  19
HETATM   19  N   UNL     1      35.438  52.026  43.377  1.00  0.00    -0.282 NA
HETATM   20  H   UNL     1      35.729  51.422  44.141  1.00  0.00     0.126 HD
HETATM   21  H   UNL     1      36.216  52.382  42.828  1.00  0.00     0.126 HD
ENDBRANCH  11  19
BRANCH   1  22
HETATM   22  C   UNL     1      30.442  51.186  39.039  1.00  0.00    -0.005 A 
HETATM   23  C   UNL     1      29.709  52.345  39.337  1.00  0.00     0.014 A 
HETATM   24  C   UNL     1      28.354  52.440  39.013  1.00  0.00     0.001 A 
HETATM   25  C   UNL     1      27.711  51.367  38.398  1.00  0.00     0.000 A 
HETATM   26  C   UNL     1      28.419  50.200  38.120  1.00  0.00     0.001 A 
HETATM   27  C   UNL     1      29.776  50.106  38.444  1.00  0.00     0.014 A 
ENDBRANCH   1  22
TORSDOF 3
ENDMDL
MODEL 5
REMARK VINA RESULT:      -8.4     12.610     15.264
REMARK  3 active torsions:
REMARK  status: ('A' for Active; 'I' for Inactive)
REMARK    1  A    between atoms: C_4  and  C_5 
REMARK    2  A    between atoms: C_11  and  C_12 
REMARK    3  A    between atoms: C_21  and  N_22 
ROOT
HETATM    1  C   UNL     1      31.938  49.989  42.221  1.00  0.00     0.098 C 
HETATM    2  N   UNL     1      31.742  50.273  43.525  1.00  0.00    -0.172 NA
HETATM    3  N   UNL     1      32.755  51.089  43.857  1.00  0.00    -0.256 N 
HETATM    4  H   UNL     1      32.850  51.386  44.821  1.00  0.00     0.191 HD
HETATM    5  C   UNL     1      33.586  51.335  42.819  1.00  0.00     0.175 C 
HETATM    6  C   UNL     1      33.037  50.743  41.707  1.00  0.00     0.036 C 
HETATM    7  C   UNL     1      33.736  50.884  40.391  1.00  0.00     0.077 C 
HETATM    8  C   UNL     1      35.218  51.255  40.667  1.00  0.00     0.076 C 
HETATM    9  C   UNL     1      36.153  51.014  39.616  1.00  0.00     0.100 C 
HETATM   10  N   UNL     1      36.898  50.838  38.744  1.00  0.00    -0.192 NA
HETATM   11  C   UNL     1      35.639  51.772  41.853  1.00  0.00     0.140 C 
HETATM   12  O   UNL     1      34.752  51.959  42.926  1.00  0.00    -0.279 OA
ENDROOT
BRANCH   7  13
HETATM   13  C   UNL     1      33.126  51.930  39.392  1.00  0.00     0.003 C 
HETATM   14  C   UNL     1      32.253  53.033  40.032  1.00  0.00     0.032 C 
HETATM   15  C   UNL     1      30.791  52.724  40.081  1.00  0.00    -0.030 C 
HETATM   16  C   UNL     1      30.212  51.802  39.305  1.00  0.00    -0.031 C 
HETATM   17  C   UNL     1      30.954  50.988  38.294  1.00  0.00     0.027 C 
HETATM   18  C   UNL     1      32.438  51.325  38.151  1.00  0.00     0.009 C 
ENDBRANCH   7  13
BRANCH  11  19
HETATM   19  N   UNL     1      36.926  52.158  42.151  1.00  0.00    -0.282 NA
HETATM   20  H   UNL     1      37.389  52.731  41.448  1.00  0.00     0.126 HD
HETATM   21  H   UNL     1      37.005  52.537  43.092  1.00  0.00     0.126 HD
ENDBRANCH  11  19
BRANCH   1  22
HETATM   22  C   UNL     1      31.082  48.998  41.564  1.00  0.00    -0.005 A 
HETATM   23  C   UNL     1      29.716  48.937  41.880  1.00  0.00     0.014 A 
HETATM   24  C   UNL     1      28.877  48.011  41.256  1.00  0.00     0.001 A 
HETATM   25  C   UNL     1      29.399  47.123  40.318  1.00  0.00     0.000 A 
HETATM   26  C   UNL     1      30.758  47.154  40.013  1.00  0.00     0.001 A 
HETATM   27  C   UNL     1      31.598  48.082  40.638  1.00  0.00     0.014 A 
ENDBRANCH   1  22
TORSDOF 3
ENDMDL
MODEL 6
REMARK VINA RESULT:      -8.2      9.072     12.974
REMARK  3 active torsions:
REMARK  status: ('A' for Active; 'I' for Inactive)
REMARK    1  A    between atoms: C_4  and  C_5 
REMARK    2  A    between atoms: C_11  and  C_12 
REMARK    3  A    between atoms: C_21  and  N_22 
ROOT
HETATM    1  C   UNL     1      16.615  49.426  47.071  1.00  0.00     0.098 C 
HETATM    2  N   UNL     1      15.445  48.784  47.268  1.00  0.00    -0.172 NA
HETATM    3  N   UNL     1      15.773  47.662  47.927  1.00  0.00    -0.256 N 
HETATM    4  H   UNL     1      15.049  46.983  48.130  1.00  0.00     0.191 HD
HETATM    5  C   UNL     1      17.103  47.563  48.157  1.00  0.00     0.175 C 
HETATM    6  C   UNL     1      17.678  48.735  47.729  1.00  0.00     0.036 C 
HETATM    7  C   UNL     1      19.155  48.919  47.894  1.00  0.00     0.077 C 
HETATM    8  C   UNL     1      19.802  47.518  48.060  1.00  0.00     0.076 C 
HETATM    9  C   UNL     1      21.201  47.414  47.798  1.00  0.00     0.100 C 
HETATM   10  N   UNL     1      22.343  47.349  47.606  1.00  0.00    -0.192 NA
HETATM   11  C   UNL     1      19.090  46.417  48.425  1.00  0.00     0.140 C 
HETATM   12  O   UNL     1      17.701  46.477  48.627  1.00  0.00    -0.279 OA
ENDROOT
BRANCH   7  13
HETATM   13  C   UNL     1      19.609  49.836  49.083  1.00  0.00     0.003 C 
HETATM   14  C   UNL     1      18.520  50.157  50.132  1.00  0.00     0.032 C 
HETATM   15  C   UNL     1      17.764  51.422  49.882  1.00  0.00    -0.030 C 
HETATM   16  C   UNL     1      18.219  52.401  49.092  1.00  0.00    -0.031 C 
HETATM   17  C   UNL     1      19.533  52.349  48.383  1.00  0.00     0.027 C 
HETATM   18  C   UNL     1      20.378  51.108  48.672  1.00  0.00     0.009 C 
ENDBRANCH   7  13
BRANCH  11  19
HETATM   19  N   UNL     1      19.605  45.157  48.629  1.00  0.00    -0.282 NA
HETATM   20  H   UNL     1      20.458  45.112  49.183  1.00  0.00     0.126 HD
HETATM   21  H   UNL     1      18.894  44.496  48.934  1.00  0.00     0.126 HD
ENDBRANCH  11  19
BRANCH   1  22
HETATM   22  C   UNL     1      16.643  50.637  46.247  1.00  0.00    -0.005 A 
HETATM   23  C   UNL     1      15.700  51.653  46.468  1.00  0.00     0.014 A 
HETATM   24  C   UNL     1      15.714  52.822  45.706  1.00  0.00     0.001 A 
HETATM   25  C   UNL     1      16.665  52.984  44.700  1.00  0.00     0.000 A 
HETATM   26  C   UNL     1      17.590  51.972  44.451  1.00  0.00     0.001 A 
HETATM   27  C   UNL     1      17.575  50.802  45.215  1.00  0.00     0.014 A 
ENDBRANCH   1  22
TORSDOF 3
ENDMDL
MODEL 7
REMARK VINA RESULT:      -8.0      8.261     12.275
REMARK  3 active torsions:
REMARK  status: ('A' for Active; 'I' for Inactive)
REMARK    1  A    between atoms: C_4  and  C_5 
REMARK    2  A    between atoms: C_11  and  C_12 
REMARK    3  A    between atoms: C_21  and  N_22 
ROOT
HETATM    1  C   UNL     1      18.236  48.728  47.034  1.00  0.00     0.098 C 
HETATM    2  N   UNL     1      17.631  47.554  47.313  1.00  0.00    -0.172 NA
HETATM    3  N   UNL     1      18.532  46.863  48.028  1.00  0.00    -0.256 N 
HETATM    4  H   UNL     1      18.317  45.911  48.300  1.00  0.00     0.191 HD
HETATM    5  C   UNL     1      19.684  47.547  48.215  1.00  0.00     0.175 C 
HETATM    6  C   UNL     1      19.500  48.805  47.693  1.00  0.00     0.036 C 
HETATM    7  C   UNL     1      20.614  49.801  47.792  1.00  0.00     0.077 C 
HETATM    8  C   UNL     1      21.938  49.024  48.022  1.00  0.00     0.076 C 
HETATM    9  C   UNL     1      23.153  49.708  47.715  1.00  0.00     0.100 C 
HETATM   10  N   UNL     1      24.133  50.284  47.487  1.00  0.00    -0.192 NA
HETATM   11  C   UNL     1      21.971  47.743  48.481  1.00  0.00     0.140 C 
HETATM   12  O   UNL     1      20.789  47.025  48.730  1.00  0.00    -0.279 OA
ENDROOT
BRANCH   7  13
HETATM   13  C   UNL     1      20.465  50.897  48.905  1.00  0.00     0.003 C 
HETATM   14  C   UNL     1      19.805  50.427  50.221  1.00  0.00     0.032 C 
HETATM   15  C   UNL     1      18.326  50.633  50.287  1.00  0.00    -0.030 C 
HETATM   16  C   UNL     1      17.672  51.494  49.499  1.00  0.00    -0.031 C 
HETATM   17  C   UNL     1      18.342  52.354  48.477  1.00  0.00     0.027 C 
HETATM   18  C   UNL     1      19.866  52.236  48.428  1.00  0.00     0.009 C 
ENDBRANCH   7  13
BRANCH  11  19
HETATM   19  N   UNL     1      23.106  47.011  48.744  1.00  0.00    -0.282 NA
HETATM   20  H   UNL     1      23.958  47.342  48.297  1.00  0.00     0.126 HD
HETATM   21  H   UNL     1      23.221  46.825  49.737  1.00  0.00     0.126 HD
ENDBRANCH  11  19
BRANCH   1  22
HETATM   22  C   UNL     1      17.578  49.680  46.135  1.00  0.00    -0.005 A 
HETATM   23  C   UNL     1      18.308  50.274  45.094  1.00  0.00     0.014 A 
HETATM   24  C   UNL     1      17.701  51.173  44.215  1.00  0.00     0.001 A 
HETATM   25  C   UNL     1      16.356  51.501  44.377  1.00  0.00     0.000 A 
HETATM   26  C   UNL     1      15.626  50.939  45.422  1.00  0.00     0.001 A 
HETATM   27  C   UNL     1      16.235  50.039  46.301  1.00  0.00     0.014 A 
ENDBRANCH   1  22
TORSDOF 3
ENDMDL
MODEL 8
REMARK VINA RESULT:      -7.9      2.650      4.480
REMARK  3 active torsions:
REMARK  status: ('A' for Active; 'I' for Inactive)
REMARK    1  A    between atoms: C_4  and  C_5 
REMARK    2  A    between atoms: C_11  and  C_12 
REMARK    3  A    between atoms: C_21  and  N_22 
ROOT
HETATM    1  C   UNL     1      27.715  44.115  52.687  1.00  0.00     0.098 C 
HETATM    2  N   UNL     1      28.838  43.426  52.977  1.00  0.00    -0.172 NA
HETATM    3  N   UNL     1      28.806  42.356  52.167  1.00  0.00    -0.256 N 
HETATM    4  H   UNL     1      29.530  41.653  52.255  1.00  0.00     0.191 HD
HETATM    5  C   UNL     1      27.710  42.336  51.374  1.00  0.00     0.175 C 
HETATM    6  C   UNL     1      27.032  43.512  51.587  1.00  0.00     0.036 C 
HETATM    7  C   UNL     1      25.781  43.779  50.808  1.00  0.00     0.077 C 
HETATM    8  C   UNL     1      25.240  42.422  50.282  1.00  0.00     0.076 C 
HETATM    9  C   UNL     1      23.865  42.376  49.901  1.00  0.00     0.100 C 
HETATM   10  N   UNL     1      22.754  42.359  49.571  1.00  0.00    -0.192 NA
HETATM   11  C   UNL     1      26.014  41.306  50.191  1.00  0.00     0.140 C 
HETATM   12  O   UNL     1      27.352  41.306  50.619  1.00  0.00    -0.279 OA
ENDROOT
BRANCH   7  13
HETATM   13  C   UNL     1      25.915  44.776  49.604  1.00  0.00     0.003 C 
HETATM   14  C   UNL     1      27.030  45.838  49.739  1.00  0.00     0.032 C 
HETATM   15  C   UNL     1      26.589  47.137  50.334  1.00  0.00    -0.030 C 
HETATM   16  C   UNL     1      25.309  47.524  50.375  1.00  0.00    -0.031 C 
HETATM   17  C   UNL     1      24.181  46.714  49.822  1.00  0.00     0.027 C 
HETATM   18  C   UNL     1      24.593  45.414  49.131  1.00  0.00     0.009 C 
ENDBRANCH   7  13
BRANCH  11  19
HETATM   19  N   UNL     1      25.611  40.085  49.699  1.00  0.00    -0.282 NA
HETATM   20  H   UNL     1      26.359  39.447  49.434  1.00  0.00     0.126 HD
HETATM   21  H   UNL     1      24.902  39.651  50.284  1.00  0.00     0.126 HD
ENDBRANCH  11  19
BRANCH   1  22
HETATM   22  C   UNL     1      27.357  45.283  53.496  1.00  0.00    -0.005 A 
HETATM   23  C   UNL     1      28.283  45.807  54.412  1.00  0.00     0.014 A 
HETATM   24  C   UNL     1      27.972  46.928  55.184  1.00  0.00     0.001 A 
HETATM   25  C   UNL     1      26.722  47.530  55.060  1.00  0.00     0.000 A 
HETATM   26  C   UNL     1      25.783  47.006  54.174  1.00  0.00     0.001 A 
HETATM   27  C   UNL     1      26.095  45.883  53.401  1.00  0.00     0.014 A 
ENDBRANCH   1  22
TORSDOF 3
ENDMDL
MODEL 9
REMARK VINA RESULT:      -7.7     15.494     17.181
REMARK  3 active torsions:
REMARK  status: ('A' for Active; 'I' for Inactive)
REMARK    1  A    between atoms: C_4  and  C_5 
REMARK    2  A    between atoms: C_11  and  C_12 
REMARK    3  A    between atoms: C_21  and  N_22 
ROOT
HETATM    1  C   UNL     1      37.361  42.087  65.290  1.00  0.00     0.098 C 
HETATM    2  N   UNL     1      36.159  41.485  65.169  1.00  0.00    -0.172 NA
HETATM    3  N   UNL     1      35.262  42.455  65.406  1.00  0.00    -0.256 N 
HETATM    4  H   UNL     1      34.278  42.216  65.431  1.00  0.00     0.191 HD
HETATM    5  C   UNL     1      35.842  43.647  65.672  1.00  0.00     0.175 C 
HETATM    6  C   UNL     1      37.195  43.491  65.493  1.00  0.00     0.036 C 
HETATM    7  C   UNL     1      38.093  44.673  65.688  1.00  0.00     0.077 C 
HETATM    8  C   UNL     1      37.338  45.717  66.555  1.00  0.00     0.076 C 
HETATM    9  C   UNL     1      38.129  46.701  67.221  1.00  0.00     0.100 C 
HETATM   10  N   UNL     1      38.781  47.510  67.736  1.00  0.00    -0.192 NA
HETATM   11  C   UNL     1      35.986  45.710  66.704  1.00  0.00     0.140 C 
HETATM   12  O   UNL     1      35.189  44.715  66.112  1.00  0.00    -0.279 OA
ENDROOT
BRANCH   7  13
HETATM   13  C   UNL     1      38.612  45.372  64.383  1.00  0.00     0.003 C 
HETATM   14  C   UNL     1      38.199  44.696  63.055  1.00  0.00     0.032 C 
HETATM   15  C   UNL     1      39.188  43.710  62.522  1.00  0.00    -0.030 C 
HETATM   16  C   UNL     1      40.473  43.689  62.894  1.00  0.00    -0.031 C 
HETATM   17  C   UNL     1      41.067  44.652  63.871  1.00  0.00     0.027 C 
HETATM   18  C   UNL     1      40.112  45.730  64.383  1.00  0.00     0.009 C 
ENDBRANCH   7  13
BRANCH  11  19
HETATM   19  N   UNL     1      35.250  46.625  67.422  1.00  0.00    -0.282 NA
HETATM   20  H   UNL     1      34.701  46.245  68.189  1.00  0.00     0.126 HD
HETATM   21  H   UNL     1      35.802  47.437  67.688  1.00  0.00     0.126 HD
ENDBRANCH  11  19
BRANCH   1  22
HETATM   22  C   UNL     1      38.581  41.278  65.231  1.00  0.00    -0.005 A 
HETATM   23  C   UNL     1      38.550  40.014  64.621  1.00  0.00     0.014 A 
HETATM   24  C   UNL     1      39.703  39.230  64.539  1.00  0.00     0.001 A 
HETATM   25  C   UNL     1      40.899  39.695  65.082  1.00  0.00     0.000 A 
HETATM   26  C   UNL     1      40.938  40.936  65.714  1.00  0.00     0.001 A 
HETATM   27  C   UNL     1      39.784  41.721  65.795  1.00  0.00     0.014 A 
ENDBRANCH   1  22
TORSDOF 3
ENDMDL
MODEL 10
REMARK VINA RESULT:      -7.5     15.515     17.423
REMARK  3 active torsions:
REMARK  status: ('A' for Active; 'I' for Inactive)
REMARK    1  A    between atoms: C_4  and  C_5 
REMARK    2  A    between atoms: C_11  and  C_12 
REMARK    3  A    between atoms: C_21  and  N_22 
ROOT
HETATM    1  C   UNL     1      39.291  44.944  64.584  1.00  0.00     0.098 C 
HETATM    2  N   UNL     1      39.724  44.190  63.552  1.00  0.00    -0.172 NA
HETATM    3  N   UNL     1      38.720  43.334  63.305  1.00  0.00    -0.256 N 
HETATM    4  H   UNL     1      38.849  42.619  62.599  1.00  0.00     0.191 HD
HETATM    5  C   UNL     1      37.667  43.513  64.135  1.00  0.00     0.175 C 
HETATM    6  C   UNL     1      37.937  44.620  64.903  1.00  0.00     0.036 C 
HETATM    7  C   UNL     1      36.917  45.077  65.899  1.00  0.00     0.077 C 
HETATM    8  C   UNL     1      35.970  43.885  66.204  1.00  0.00     0.076 C 
HETATM    9  C   UNL     1      35.216  43.948  67.415  1.00  0.00     0.100 C 
HETATM   10  N   UNL     1      34.591  44.024  68.388  1.00  0.00    -0.192 NA
HETATM   11  C   UNL     1      35.854  42.807  65.381  1.00  0.00     0.140 C 
HETATM   12  O   UNL     1      36.630  42.689  64.216  1.00  0.00    -0.279 OA
ENDROOT
BRANCH   7  13
HETATM   13  C   UNL     1      36.055  46.321  65.486  1.00  0.00     0.003 C 
HETATM   14  C   UNL     1      36.552  47.094  64.243  1.00  0.00     0.032 C 
HETATM   15  C   UNL     1      37.462  48.241  64.542  1.00  0.00    -0.030 C 
HETATM   16  C   UNL     1      37.535  48.822  65.744  1.00  0.00    -0.031 C 
HETATM   17  C   UNL     1      36.708  48.403  66.917  1.00  0.00     0.027 C 
HETATM   18  C   UNL     1      35.704  47.285  66.637  1.00  0.00     0.009 C 
ENDBRANCH   7  13
BRANCH  11  19
HETATM   19  N   UNL     1      35.008  41.738  65.568  1.00  0.00    -0.282 NA
HETATM   20  H   UNL     1      35.249  41.114  66.335  1.00  0.00     0.126 HD
HETATM   21  H   UNL     1      34.030  42.018  65.573  1.00  0.00     0.126 HD
ENDBRANCH  11  19
BRANCH   1  22
HETATM   22  C   UNL     1      40.206  45.901  65.210  1.00  0.00    -0.005 A 
HETATM   23  C   UNL     1      41.370  46.299  64.533  1.00  0.00     0.014 A 
HETATM   24  C   UNL     1      42.251  47.220  65.103  1.00  0.00     0.001 A 
HETATM   25  C   UNL     1      41.985  47.745  66.366  1.00  0.00     0.000 A 
HETATM   26  C   UNL     1      40.848  47.340  67.061  1.00  0.00     0.001 A 
HETATM   27  C   UNL     1      39.966  46.417  66.490  1.00  0.00     0.014 A 
ENDBRANCH   1  22
TORSDOF 3
ENDMDL
