MODEL 1
REMARK VINA RESULT:      -9.0      0.000      0.000
REMARK  5 active torsions:
REMARK  status: ('A' for Active; 'I' for Inactive)
REMARK    1  A    between atoms: O_2  and  C_3 
REMARK    2  A    between atoms: C_4  and  N_5 
REMARK    3  A    between atoms: N_5  and  C_6 
REMARK    4  A    between atoms: C_6  and  C_7 
REMARK       I    between atoms: C_7  and  N_8 
REMARK    5  A    between atoms: N_8  and  C_9 
ROOT
HETATM    1  C   UNL     1      26.716  44.895  50.704  1.00  0.00     0.235 C 
HETATM    2  N   UNL     1      26.749  44.449  52.015  1.00  0.00    -0.325 N 
HETATM    3  O   UNL     1      27.640  44.857  49.894  1.00  0.00    -0.272 OA
HETATM    4  H   UNL     1      25.858  44.398  52.484  1.00  0.00     0.169 HD
ENDROOT
BRANCH   1   5
HETATM    5  C   UNL     1      25.348  45.456  50.277  1.00  0.00     0.195 C 
BRANCH   5   6
HETATM    6  N   UNL     1      25.171  46.804  50.835  1.00  0.00    -0.282 NA
HETATM    7  H   UNL     1      24.198  46.940  51.138  1.00  0.00     0.128 HD
BRANCH   6   8
HETATM    8  C   UNL     1      25.460  47.843  49.920  1.00  0.00     0.042 A 
HETATM    9  C   UNL     1      24.408  48.491  49.244  1.00  0.00     0.089 A 
HETATM   10  C   UNL     1      24.649  49.539  48.356  1.00  0.00     0.038 A 
HETATM   11  C   UNL     1      25.961  49.942  48.115  1.00  0.00     0.003 A 
HETATM   12  C   UNL     1      27.018  49.309  48.774  1.00  0.00     0.002 A 
HETATM   13  C   UNL     1      26.768  48.271  49.677  1.00  0.00     0.026 A 
BRANCH   9  14
HETATM   14  O   UNL     1      23.117  48.095  49.501  1.00  0.00    -0.354 OA
HETATM   15  C   UNL     1      22.254  48.510  48.440  1.00  0.00     0.210 C 
ENDBRANCH   9  14
ENDBRANCH   6   8
ENDBRANCH   5   6
ENDBRANCH   1   5
BRANCH   2  16
HETATM   16  C   UNL     1      27.872  43.975  52.748  1.00  0.00     0.045 A 
HETATM   17  C   UNL     1      28.285  44.664  53.936  1.00  0.00     0.001 A 
HETATM   18  C   UNL     1      29.433  44.190  54.628  1.00  0.00    -0.024 A 
HETATM   19  C   UNL     1      27.632  45.796  54.492  1.00  0.00     0.014 A 
HETATM   20  C   UNL     1      29.881  44.833  55.795  1.00  0.00     0.012 A 
HETATM   21  C   UNL     1      30.132  43.073  54.156  1.00  0.00     0.012 A 
HETATM   22  C   UNL     1      29.216  45.943  56.305  1.00  0.00     0.001 A 
HETATM   23  C   UNL     1      28.090  46.424  55.656  1.00  0.00     0.001 A 
HETATM   24  C   UNL     1      29.721  42.412  53.006  1.00  0.00     0.003 A 
HETATM   25  C   UNL     1      28.603  42.862  52.309  1.00  0.00     0.030 A 
ENDBRANCH   2  16
TORSDOF 5
ENDMDL
MODEL 2
REMARK VINA RESULT:      -8.9      1.866      7.621
REMARK  5 active torsions:
REMARK  status: ('A' for Active; 'I' for Inactive)
REMARK    1  A    between atoms: O_2  and  C_3 
REMARK    2  A    between atoms: C_4  and  N_5 
REMARK    3  A    between atoms: N_5  and  C_6 
REMARK    4  A    between atoms: C_6  and  C_7 
REMARK       I    between atoms: C_7  and  N_8 
REMARK    5  A    between atoms: N_8  and  C_9 
ROOT
HETATM    1  C   UNL     1      25.325  46.581  51.941  1.00  0.00     0.235 C 
HETATM    2  N   UNL     1      25.460  46.685  50.566  1.00  0.00    -0.325 N 
HETATM    3  O   UNL     1      25.304  47.510  52.747  1.00  0.00    -0.272 OA
HETATM    4  H   UNL     1      25.286  45.841  50.043  1.00  0.00     0.169 HD
ENDROOT
BRANCH   1   5
HETATM    5  C   UNL     1      25.162  45.134  52.438  1.00  0.00     0.195 C 
BRANCH   5   6
HETATM    6  N   UNL     1      25.492  45.063  53.869  1.00  0.00    -0.282 NA
HETATM    7  H   UNL     1      25.412  45.993  54.300  1.00  0.00     0.128 HD
BRANCH   6   8
HETATM    8  C   UNL     1      26.804  44.606  54.131  1.00  0.00     0.042 A 
HETATM    9  C   UNL     1      27.691  45.413  54.869  1.00  0.00     0.089 A 
HETATM   10  C   UNL     1      28.983  44.985  55.172  1.00  0.00     0.038 A 
HETATM   11  C   UNL     1      29.416  43.742  54.718  1.00  0.00     0.003 A 
HETATM   12  C   UNL     1      28.552  42.929  53.981  1.00  0.00     0.002 A 
HETATM   13  C   UNL     1      27.251  43.355  53.696  1.00  0.00     0.026 A 
BRANCH   9  14
HETATM   14  O   UNL     1      27.248  46.632  55.325  1.00  0.00    -0.354 OA
HETATM   15  C   UNL     1      28.056  47.681  54.789  1.00  0.00     0.210 C 
ENDBRANCH   9  14
ENDBRANCH   6   8
ENDBRANCH   5   6
ENDBRANCH   1   5
BRANCH   2  16
HETATM   16  C   UNL     1      25.730  47.853  49.801  1.00  0.00     0.045 A 
HETATM   17  C   UNL     1      24.645  48.571  49.197  1.00  0.00     0.001 A 
HETATM   18  C   UNL     1      24.946  49.714  48.408  1.00  0.00    -0.024 A 
HETATM   19  C   UNL     1      23.271  48.234  49.326  1.00  0.00     0.014 A 
HETATM   20  C   UNL     1      23.920  50.449  47.792  1.00  0.00     0.012 A 
HETATM   21  C   UNL     1      26.274  50.125  48.237  1.00  0.00     0.012 A 
HETATM   22  C   UNL     1      22.585  50.083  47.937  1.00  0.00     0.001 A 
HETATM   23  C   UNL     1      22.260  48.977  48.706  1.00  0.00     0.001 A 
HETATM   24  C   UNL     1      27.315  49.424  48.830  1.00  0.00     0.003 A 
HETATM   25  C   UNL     1      27.045  48.298  49.602  1.00  0.00     0.030 A 
ENDBRANCH   2  16
TORSDOF 5
ENDMDL
MODEL 3
REMARK VINA RESULT:      -8.7      1.732      3.350
REMARK  5 active torsions:
REMARK  status: ('A' for Active; 'I' for Inactive)
REMARK    1  A    between atoms: O_2  and  C_3 
REMARK    2  A    between atoms: C_4  and  N_5 
REMARK    3  A    between atoms: N_5  and  C_6 
REMARK    4  A    between atoms: C_6  and  C_7 
REMARK       I    between atoms: C_7  and  N_8 
REMARK    5  A    between atoms: N_8  and  C_9 
ROOT
HETATM    1  C   UNL     1      25.325  44.357  52.519  1.00  0.00     0.235 C 
HETATM    2  N   UNL     1      26.561  44.983  52.524  1.00  0.00    -0.325 N 
HETATM    3  O   UNL     1      24.571  44.217  53.481  1.00  0.00    -0.272 OA
HETATM    4  H   UNL     1      26.967  45.159  51.618  1.00  0.00     0.169 HD
ENDROOT
BRANCH   1   5
HETATM    5  C   UNL     1      24.904  43.832  51.135  1.00  0.00     0.195 C 
BRANCH   5   6
HETATM    6  N   UNL     1      25.429  44.721  50.089  1.00  0.00    -0.282 NA
HETATM    7  H   UNL     1      26.272  45.205  50.422  1.00  0.00     0.128 HD
BRANCH   6   8
HETATM    8  C   UNL     1      24.518  45.724  49.683  1.00  0.00     0.042 A 
HETATM    9  C   UNL     1      24.799  47.076  49.961  1.00  0.00     0.089 A 
HETATM   10  C   UNL     1      23.941  48.096  49.552  1.00  0.00     0.038 A 
HETATM   11  C   UNL     1      22.768  47.773  48.872  1.00  0.00     0.003 A 
HETATM   12  C   UNL     1      22.472  46.437  48.590  1.00  0.00     0.002 A 
HETATM   13  C   UNL     1      23.345  45.420  48.986  1.00  0.00     0.026 A 
BRANCH   9  14
HETATM   14  O   UNL     1      25.965  47.385  50.619  1.00  0.00    -0.354 OA
HETATM   15  C   UNL     1      26.767  48.255  49.819  1.00  0.00     0.210 C 
ENDBRANCH   9  14
ENDBRANCH   6   8
ENDBRANCH   5   6
ENDBRANCH   1   5
BRANCH   2  16
HETATM   16  C   UNL     1      27.282  45.481  53.644  1.00  0.00     0.045 A 
HETATM   17  C   UNL     1      28.402  44.742  54.151  1.00  0.00     0.001 A 
HETATM   18  C   UNL     1      29.082  45.245  55.294  1.00  0.00    -0.024 A 
HETATM   19  C   UNL     1      28.900  43.533  53.598  1.00  0.00     0.014 A 
HETATM   20  C   UNL     1      30.182  44.556  55.833  1.00  0.00     0.012 A 
HETATM   21  C   UNL     1      28.665  46.438  55.897  1.00  0.00     0.012 A 
HETATM   22  C   UNL     1      30.637  43.371  55.265  1.00  0.00     0.001 A 
HETATM   23  C   UNL     1      29.998  42.859  54.146  1.00  0.00     0.001 A 
HETATM   24  C   UNL     1      27.581  47.146  55.394  1.00  0.00     0.003 A 
HETATM   25  C   UNL     1      26.896  46.670  54.280  1.00  0.00     0.030 A 
ENDBRANCH   2  16
TORSDOF 5
ENDMDL
MODEL 4
REMARK VINA RESULT:      -8.6      1.518      7.712
REMARK  5 active torsions:
REMARK  status: ('A' for Active; 'I' for Inactive)
REMARK    1  A    between atoms: O_2  and  C_3 
REMARK    2  A    between atoms: C_4  and  N_5 
REMARK    3  A    between atoms: N_5  and  C_6 
REMARK    4  A    between atoms: C_6  and  C_7 
REMARK       I    between atoms: C_7  and  N_8 
REMARK    5  A    between atoms: N_8  and  C_9 
ROOT
HETATM    1  C   UNL     1      25.489  46.620  51.978  1.00  0.00     0.235 C 
HETATM    2  N   UNL     1      25.466  46.717  50.596  1.00  0.00    -0.325 N 
HETATM    3  O   UNL     1      25.587  47.551  52.775  1.00  0.00    -0.272 OA
HETATM    4  H   UNL     1      25.209  45.876  50.102  1.00  0.00     0.169 HD
ENDROOT
BRANCH   1   5
HETATM    5  C   UNL     1      25.344  45.179  52.499  1.00  0.00     0.195 C 
BRANCH   5   6
HETATM    6  N   UNL     1      26.348  44.319  51.857  1.00  0.00    -0.282 NA
HETATM    7  H   UNL     1      25.927  43.420  51.588  1.00  0.00     0.128 HD
BRANCH   6   8
HETATM    8  C   UNL     1      27.454  44.017  52.685  1.00  0.00     0.042 A 
HETATM    9  C   UNL     1      28.282  42.922  52.371  1.00  0.00     0.089 A 
HETATM   10  C   UNL     1      29.399  42.609  53.146  1.00  0.00     0.038 A 
HETATM   11  C   UNL     1      29.691  43.382  54.268  1.00  0.00     0.003 A 
HETATM   12  C   UNL     1      28.879  44.470  54.597  1.00  0.00     0.002 A 
HETATM   13  C   UNL     1      27.771  44.790  53.805  1.00  0.00     0.026 A 
BRANCH   9  14
HETATM   14  O   UNL     1      27.993  42.175  51.255  1.00  0.00    -0.354 OA
HETATM   15  C   UNL     1      28.330  40.804  51.478  1.00  0.00     0.210 C 
ENDBRANCH   9  14
ENDBRANCH   6   8
ENDBRANCH   5   6
ENDBRANCH   1   5
BRANCH   2  16
HETATM   16  C   UNL     1      25.678  47.875  49.798  1.00  0.00     0.045 A 
HETATM   17  C   UNL     1      24.554  48.550  49.217  1.00  0.00     0.001 A 
HETATM   18  C   UNL     1      24.798  49.684  48.395  1.00  0.00    -0.024 A 
HETATM   19  C   UNL     1      23.195  48.180  49.400  1.00  0.00     0.014 A 
HETATM   20  C   UNL     1      23.731  50.378  47.799  1.00  0.00     0.012 A 
HETATM   21  C   UNL     1      26.107  50.126  48.169  1.00  0.00     0.012 A 
HETATM   22  C   UNL     1      22.413  49.980  47.998  1.00  0.00     0.001 A 
HETATM   23  C   UNL     1      22.144  48.883  48.800  1.00  0.00     0.001 A 
HETATM   24  C   UNL     1      27.187  49.465  48.740  1.00  0.00     0.003 A 
HETATM   25  C   UNL     1      26.973  48.349  49.544  1.00  0.00     0.030 A 
ENDBRANCH   2  16
TORSDOF 5
ENDMDL
MODEL 5
REMARK VINA RESULT:      -8.6      1.919      3.070
REMARK  5 active torsions:
REMARK  status: ('A' for Active; 'I' for Inactive)
REMARK    1  A    between atoms: O_2  and  C_3 
REMARK    2  A    between atoms: C_4  and  N_5 
REMARK    3  A    between atoms: N_5  and  C_6 
REMARK    4  A    between atoms: C_6  and  C_7 
REMARK       I    between atoms: C_7  and  N_8 
REMARK    5  A    between atoms: N_8  and  C_9 
ROOT
HETATM    1  C   UNL     1      26.375  45.807  54.193  1.00  0.00     0.235 C 
HETATM    2  N   UNL     1      27.754  45.935  54.136  1.00  0.00    -0.325 N 
HETATM    3  O   UNL     1      25.746  44.861  54.666  1.00  0.00    -0.272 OA
HETATM    4  H   UNL     1      28.098  46.845  53.873  1.00  0.00     0.169 HD
ENDROOT
BRANCH   1   5
HETATM    5  C   UNL     1      25.617  47.015  53.615  1.00  0.00     0.195 C 
BRANCH   5   6
HETATM    6  N   UNL     1      25.969  47.188  52.199  1.00  0.00    -0.282 NA
HETATM    7  H   UNL     1      25.933  48.183  51.941  1.00  0.00     0.128 HD
BRANCH   6   8
HETATM    8  C   UNL     1      25.106  46.507  51.309  1.00  0.00     0.042 A 
HETATM    9  C   UNL     1      24.572  47.186  50.197  1.00  0.00     0.089 A 
HETATM   10  C   UNL     1      23.740  46.542  49.281  1.00  0.00     0.038 A 
HETATM   11  C   UNL     1      23.411  45.203  49.481  1.00  0.00     0.003 A 
HETATM   12  C   UNL     1      23.929  44.513  50.580  1.00  0.00     0.002 A 
HETATM   13  C   UNL     1      24.777  45.160  51.484  1.00  0.00     0.026 A 
BRANCH   9  14
HETATM   14  O   UNL     1      24.914  48.503  50.002  1.00  0.00    -0.354 OA
HETATM   15  C   UNL     1      24.086  49.083  48.992  1.00  0.00     0.210 C 
ENDBRANCH   9  14
ENDBRANCH   6   8
ENDBRANCH   5   6
ENDBRANCH   1   5
BRANCH   2  16
HETATM   16  C   UNL     1      28.735  44.967  54.484  1.00  0.00     0.045 A 
HETATM   17  C   UNL     1      29.410  45.065  55.746  1.00  0.00     0.001 A 
HETATM   18  C   UNL     1      30.412  44.105  56.054  1.00  0.00    -0.024 A 
HETATM   19  C   UNL     1      29.154  46.053  56.734  1.00  0.00     0.014 A 
HETATM   20  C   UNL     1      31.105  44.160  57.275  1.00  0.00     0.012 A 
HETATM   21  C   UNL     1      30.721  43.089  55.142  1.00  0.00     0.012 A 
HETATM   22  C   UNL     1      30.830  45.148  58.215  1.00  0.00     0.001 A 
HETATM   23  C   UNL     1      29.853  46.093  57.947  1.00  0.00     0.001 A 
HETATM   24  C   UNL     1      30.059  43.003  53.924  1.00  0.00     0.003 A 
HETATM   25  C   UNL     1      29.078  43.935  53.599  1.00  0.00     0.030 A 
ENDBRANCH   2  16
TORSDOF 5
ENDMDL
MODEL 6
REMARK VINA RESULT:      -8.5      4.113      5.835
REMARK  5 active torsions:
REMARK  status: ('A' for Active; 'I' for Inactive)
REMARK    1  A    between atoms: O_2  and  C_3 
REMARK    2  A    between atoms: C_4  and  N_5 
REMARK    3  A    between atoms: N_5  and  C_6 
REMARK    4  A    between atoms: C_6  and  C_7 
REMARK       I    between atoms: C_7  and  N_8 
REMARK    5  A    between atoms: N_8  and  C_9 
ROOT
HETATM    1  C   UNL     1      28.562  42.019  53.405  1.00  0.00     0.235 C 
HETATM    2  N   UNL     1      29.318  43.175  53.508  1.00  0.00    -0.325 N 
HETATM    3  O   UNL     1      27.545  41.749  54.043  1.00  0.00    -0.272 OA
HETATM    4  H   UNL     1      30.017  43.307  52.794  1.00  0.00     0.169 HD
ENDROOT
BRANCH   1   5
HETATM    5  C   UNL     1      29.088  41.029  52.351  1.00  0.00     0.195 C 
BRANCH   5   6
HETATM    6  N   UNL     1      27.961  40.290  51.762  1.00  0.00    -0.282 NA
HETATM    7  H   UNL     1      28.105  39.277  51.868  1.00  0.00     0.128 HD
BRANCH   6   8
HETATM    8  C   UNL     1      27.779  40.532  50.381  1.00  0.00     0.042 A 
HETATM    9  C   UNL     1      26.766  41.412  49.954  1.00  0.00     0.089 A 
HETATM   10  C   UNL     1      26.573  41.699  48.603  1.00  0.00     0.038 A 
HETATM   11  C   UNL     1      27.385  41.086  47.651  1.00  0.00     0.003 A 
HETATM   12  C   UNL     1      28.394  40.208  48.055  1.00  0.00     0.002 A 
HETATM   13  C   UNL     1      28.594  39.939  49.413  1.00  0.00     0.026 A 
BRANCH   9  14
HETATM   14  O   UNL     1      25.979  42.021  50.902  1.00  0.00    -0.354 OA
HETATM   15  C   UNL     1      26.227  43.428  50.918  1.00  0.00     0.210 C 
ENDBRANCH   9  14
ENDBRANCH   6   8
ENDBRANCH   5   6
ENDBRANCH   1   5
BRANCH   2  16
HETATM   16  C   UNL     1      29.170  44.234  54.445  1.00  0.00     0.045 A 
HETATM   17  C   UNL     1      29.979  44.251  55.630  1.00  0.00     0.001 A 
HETATM   18  C   UNL     1      29.784  45.302  56.567  1.00  0.00    -0.024 A 
HETATM   19  C   UNL     1      30.978  43.294  55.949  1.00  0.00     0.014 A 
HETATM   20  C   UNL     1      30.548  45.362  57.745  1.00  0.00     0.012 A 
HETATM   21  C   UNL     1      28.827  46.296  56.326  1.00  0.00     0.012 A 
HETATM   22  C   UNL     1      31.514  44.401  58.025  1.00  0.00     0.001 A 
HETATM   23  C   UNL     1      31.732  43.368  57.127  1.00  0.00     0.001 A 
HETATM   24  C   UNL     1      28.052  46.270  55.174  1.00  0.00     0.003 A 
HETATM   25  C   UNL     1      28.221  45.248  54.245  1.00  0.00     0.030 A 
ENDBRANCH   2  16
TORSDOF 5
ENDMDL
MODEL 7
REMARK VINA RESULT:      -8.5      1.456      2.295
REMARK  5 active torsions:
REMARK  status: ('A' for Active; 'I' for Inactive)
REMARK    1  A    between atoms: O_2  and  C_3 
REMARK    2  A    between atoms: C_4  and  N_5 
REMARK    3  A    between atoms: N_5  and  C_6 
REMARK    4  A    between atoms: C_6  and  C_7 
REMARK       I    between atoms: C_7  and  N_8 
REMARK    5  A    between atoms: N_8  and  C_9 
ROOT
HETATM    1  C   UNL     1      25.515  45.029  52.188  1.00  0.00     0.235 C 
HETATM    2  N   UNL     1      26.898  45.102  52.224  1.00  0.00    -0.325 N 
HETATM    3  O   UNL     1      24.821  44.095  52.587  1.00  0.00    -0.272 OA
HETATM    4  H   UNL     1      27.295  46.006  52.015  1.00  0.00     0.169 HD
ENDROOT
BRANCH   1   5
HETATM    5  C   UNL     1      24.844  46.284  51.603  1.00  0.00     0.195 C 
BRANCH   5   6
HETATM    6  N   UNL     1      25.210  46.425  50.186  1.00  0.00    -0.282 NA
HETATM    7  H   UNL     1      26.231  46.370  50.074  1.00  0.00     0.128 HD
BRANCH   6   8
HETATM    8  C   UNL     1      24.805  47.653  49.611  1.00  0.00     0.042 A 
HETATM    9  C   UNL     1      25.770  48.519  49.063  1.00  0.00     0.089 A 
HETATM   10  C   UNL     1      25.408  49.724  48.461  1.00  0.00     0.038 A 
HETATM   11  C   UNL     1      24.064  50.092  48.421  1.00  0.00     0.003 A 
HETATM   12  C   UNL     1      23.093  49.246  48.963  1.00  0.00     0.002 A 
HETATM   13  C   UNL     1      23.461  48.030  49.548  1.00  0.00     0.026 A 
BRANCH   9  14
HETATM   14  O   UNL     1      27.091  48.140  49.095  1.00  0.00    -0.354 OA
HETATM   15  C   UNL     1      27.934  49.294  49.108  1.00  0.00     0.210 C 
ENDBRANCH   9  14
ENDBRANCH   6   8
ENDBRANCH   5   6
ENDBRANCH   1   5
BRANCH   2  16
HETATM   16  C   UNL     1      27.817  44.085  52.603  1.00  0.00     0.045 A 
HETATM   17  C   UNL     1      28.637  44.269  53.766  1.00  0.00     0.001 A 
HETATM   18  C   UNL     1      29.572  43.252  54.101  1.00  0.00    -0.024 A 
HETATM   19  C   UNL     1      28.590  45.396  54.628  1.00  0.00     0.014 A 
HETATM   20  C   UNL     1      30.401  43.385  55.227  1.00  0.00     0.012 A 
HETATM   21  C   UNL     1      29.677  42.100  53.311  1.00  0.00     0.012 A 
HETATM   22  C   UNL     1      30.329  44.508  56.044  1.00  0.00     0.001 A 
HETATM   23  C   UNL     1      29.423  45.513  55.747  1.00  0.00     0.001 A 
HETATM   24  C   UNL     1      28.876  41.933  52.189  1.00  0.00     0.003 A 
HETATM   25  C   UNL     1      27.957  42.918  51.839  1.00  0.00     0.030 A 
ENDBRANCH   2  16
TORSDOF 5
ENDMDL
MODEL 8
REMARK VINA RESULT:      -8.3      3.940      6.947
REMARK  5 active torsions:
REMARK  status: ('A' for Active; 'I' for Inactive)
REMARK    1  A    between atoms: O_2  and  C_3 
REMARK    2  A    between atoms: C_4  and  N_5 
REMARK    3  A    between atoms: N_5  and  C_6 
REMARK    4  A    between atoms: C_6  and  C_7 
REMARK       I    between atoms: C_7  and  N_8 
REMARK    5  A    between atoms: N_8  and  C_9 
ROOT
HETATM    1  C   UNL     1      27.253  43.187  51.497  1.00  0.00     0.235 C 
HETATM    2  N   UNL     1      27.297  43.288  52.878  1.00  0.00    -0.325 N 
HETATM    3  O   UNL     1      27.608  44.043  50.688  1.00  0.00    -0.272 OA
HETATM    4  H   UNL     1      27.129  42.433  53.385  1.00  0.00     0.169 HD
ENDROOT
BRANCH   1   5
HETATM    5  C   UNL     1      26.723  41.833  50.992  1.00  0.00     0.195 C 
BRANCH   5   6
HETATM    6  N   UNL     1      27.765  40.808  51.143  1.00  0.00    -0.282 NA
HETATM    7  H   UNL     1      28.660  41.244  51.403  1.00  0.00     0.128 HD
BRANCH   6   8
HETATM    8  C   UNL     1      28.005  40.060  49.966  1.00  0.00     0.042 A 
HETATM    9  C   UNL     1      28.897  38.972  50.000  1.00  0.00     0.089 A 
HETATM   10  C   UNL     1      29.138  38.193  48.869  1.00  0.00     0.038 A 
HETATM   11  C   UNL     1      28.500  38.510  47.671  1.00  0.00     0.003 A 
HETATM   12  C   UNL     1      27.614  39.588  47.618  1.00  0.00     0.002 A 
HETATM   13  C   UNL     1      27.362  40.354  48.760  1.00  0.00     0.026 A 
BRANCH   9  14
HETATM   14  O   UNL     1      29.511  38.659  51.190  1.00  0.00    -0.354 OA
HETATM   15  C   UNL     1      29.917  37.289  51.189  1.00  0.00     0.210 C 
ENDBRANCH   9  14
ENDBRANCH   6   8
ENDBRANCH   5   6
ENDBRANCH   1   5
BRANCH   2  16
HETATM   16  C   UNL     1      27.632  44.427  53.660  1.00  0.00     0.045 A 
HETATM   17  C   UNL     1      28.767  44.376  54.536  1.00  0.00     0.001 A 
HETATM   18  C   UNL     1      29.058  45.517  55.333  1.00  0.00    -0.024 A 
HETATM   19  C   UNL     1      29.642  43.266  54.675  1.00  0.00     0.014 A 
HETATM   20  C   UNL     1      30.155  45.516  56.210  1.00  0.00     0.012 A 
HETATM   21  C   UNL     1      28.253  46.660  55.251  1.00  0.00     0.012 A 
HETATM   22  C   UNL     1      30.986  44.406  56.322  1.00  0.00     0.001 A 
HETATM   23  C   UNL     1      30.732  43.281  55.553  1.00  0.00     0.001 A 
HETATM   24  C   UNL     1      27.159  46.698  54.396  1.00  0.00     0.003 A 
HETATM   25  C   UNL     1      26.852  45.591  53.611  1.00  0.00     0.030 A 
ENDBRANCH   2  16
TORSDOF 5
ENDMDL
MODEL 9
REMARK VINA RESULT:      -8.2      2.370      3.198
REMARK  5 active torsions:
REMARK  status: ('A' for Active; 'I' for Inactive)
REMARK    1  A    between atoms: O_2  and  C_3 
REMARK    2  A    between atoms: C_4  and  N_5 
REMARK    3  A    between atoms: N_5  and  C_6 
REMARK    4  A    between atoms: C_6  and  C_7 
REMARK       I    between atoms: C_7  and  N_8 
REMARK    5  A    between atoms: N_8  and  C_9 
ROOT
HETATM    1  C   UNL     1      27.768  42.480  51.845  1.00  0.00     0.235 C 
HETATM    2  N   UNL     1      28.482  43.589  52.269  1.00  0.00    -0.325 N 
HETATM    3  O   UNL     1      27.478  41.493  52.519  1.00  0.00    -0.272 OA
HETATM    4  H   UNL     1      28.481  44.377  51.641  1.00  0.00     0.169 HD
ENDROOT
BRANCH   1   5
HETATM    5  C   UNL     1      27.297  42.571  50.382  1.00  0.00     0.195 C 
BRANCH   5   6
HETATM    6  N   UNL     1      25.945  43.146  50.334  1.00  0.00    -0.282 NA
HETATM    7  H   UNL     1      25.494  42.922  49.437  1.00  0.00     0.128 HD
BRANCH   6   8
HETATM    8  C   UNL     1      25.920  44.555  50.459  1.00  0.00     0.042 A 
HETATM    9  C   UNL     1      25.101  45.154  51.435  1.00  0.00     0.089 A 
HETATM   10  C   UNL     1      25.070  46.538  51.609  1.00  0.00     0.038 A 
HETATM   11  C   UNL     1      25.849  47.348  50.786  1.00  0.00     0.003 A 
HETATM   12  C   UNL     1      26.665  46.772  49.810  1.00  0.00     0.002 A 
HETATM   13  C   UNL     1      26.706  45.383  49.653  1.00  0.00     0.026 A 
BRANCH   9  14
HETATM   14  O   UNL     1      24.347  44.345  52.252  1.00  0.00    -0.354 OA
HETATM   15  C   UNL     1      24.944  44.259  53.547  1.00  0.00     0.210 C 
ENDBRANCH   9  14
ENDBRANCH   6   8
ENDBRANCH   5   6
ENDBRANCH   1   5
BRANCH   2  16
HETATM   16  C   UNL     1      29.141  43.778  53.514  1.00  0.00     0.045 A 
HETATM   17  C   UNL     1      28.734  44.850  54.376  1.00  0.00     0.001 A 
HETATM   18  C   UNL     1      29.434  45.039  55.599  1.00  0.00    -0.024 A 
HETATM   19  C   UNL     1      27.669  45.752  54.110  1.00  0.00     0.014 A 
HETATM   20  C   UNL     1      29.077  46.077  56.475  1.00  0.00     0.012 A 
HETATM   21  C   UNL     1      30.490  44.188  55.947  1.00  0.00     0.012 A 
HETATM   22  C   UNL     1      28.030  46.943  56.176  1.00  0.00     0.001 A 
HETATM   23  C   UNL     1      27.325  46.781  54.994  1.00  0.00     0.001 A 
HETATM   24  C   UNL     1      30.874  43.152  55.105  1.00  0.00     0.003 A 
HETATM   25  C   UNL     1      30.206  42.952  53.901  1.00  0.00     0.030 A 
ENDBRANCH   2  16
TORSDOF 5
ENDMDL
MODEL 10
REMARK VINA RESULT:      -8.2      2.800      5.101
REMARK  5 active torsions:
REMARK  status: ('A' for Active; 'I' for Inactive)
REMARK    1  A    between atoms: O_2  and  C_3 
REMARK    2  A    between atoms: C_4  and  N_5 
REMARK    3  A    between atoms: N_5  and  C_6 
REMARK    4  A    between atoms: C_6  and  C_7 
REMARK       I    between atoms: C_7  and  N_8 
REMARK    5  A    between atoms: N_8  and  C_9 
ROOT
HETATM    1  C   UNL     1      25.535  46.216  52.247  1.00  0.00     0.235 C 
HETATM    2  N   UNL     1      26.398  45.353  52.902  1.00  0.00    -0.325 N 
HETATM    3  O   UNL     1      25.438  47.430  52.424  1.00  0.00    -0.272 OA
HETATM    4  H   UNL     1      26.467  44.425  52.515  1.00  0.00     0.169 HD
ENDROOT
BRANCH   1   5
HETATM    5  C   UNL     1      24.660  45.527  51.185  1.00  0.00     0.195 C 
BRANCH   5   6
HETATM    6  N   UNL     1      24.258  44.196  51.664  1.00  0.00    -0.282 NA
HETATM    7  H   UNL     1      24.926  43.854  52.367  1.00  0.00     0.128 HD
BRANCH   6   8
HETATM    8  C   UNL     1      24.202  43.216  50.646  1.00  0.00     0.042 A 
HETATM    9  C   UNL     1      25.291  42.345  50.455  1.00  0.00     0.089 A 
HETATM   10  C   UNL     1      25.262  41.346  49.481  1.00  0.00     0.038 A 
HETATM   11  C   UNL     1      24.140  41.221  48.663  1.00  0.00     0.003 A 
HETATM   12  C   UNL     1      23.052  42.078  48.837  1.00  0.00     0.002 A 
HETATM   13  C   UNL     1      23.079  43.065  49.827  1.00  0.00     0.026 A 
BRANCH   9  14
HETATM   14  O   UNL     1      26.387  42.468  51.275  1.00  0.00    -0.354 OA
HETATM   15  C   UNL     1      27.424  41.582  50.849  1.00  0.00     0.210 C 
ENDBRANCH   9  14
ENDBRANCH   6   8
ENDBRANCH   5   6
ENDBRANCH   1   5
BRANCH   2  16
HETATM   16  C   UNL     1      27.258  45.644  53.997  1.00  0.00     0.045 A 
HETATM   17  C   UNL     1      28.386  44.797  54.256  1.00  0.00     0.001 A 
HETATM   18  C   UNL     1      29.208  45.090  55.378  1.00  0.00    -0.024 A 
HETATM   19  C   UNL     1      28.762  43.675  53.471  1.00  0.00     0.014 A 
HETATM   20  C   UNL     1      30.323  44.288  55.678  1.00  0.00     0.012 A 
HETATM   21  C   UNL     1      28.917  46.185  56.201  1.00  0.00     0.012 A 
HETATM   22  C   UNL     1      30.654  43.193  54.887  1.00  0.00     0.001 A 
HETATM   23  C   UNL     1      29.876  42.887  53.782  1.00  0.00     0.001 A 
HETATM   24  C   UNL     1      27.824  46.999  55.938  1.00  0.00     0.003 A 
HETATM   25  C   UNL     1      27.002  46.729  54.848  1.00  0.00     0.030 A 
ENDBRANCH   2  16
TORSDOF 5
ENDMDL
