MODEL 1
REMARK VINA RESULT:     -10.5      0.000      0.000
REMARK  7 active torsions:
REMARK  status: ('A' for Active; 'I' for Inactive)
REMARK    1  A    between atoms: C_4  and  C_5 
REMARK    2  A    between atoms: C_5  and  N_6 
REMARK    3  A    between atoms: N_10  and  N_11 
REMARK       I    between atoms: N_11  and  C_12 
REMARK    4  A    between atoms: C_12  and  C_13 
REMARK    5  A    between atoms: C_13  and  N_14 
REMARK       I    between atoms: N_14  and  C_15 
REMARK    6  A    between atoms: C_15  and  C_16 
REMARK    7  A    between atoms: C_17  and  O_18 
ROOT
HETATM    1  N   UNL     1      26.886  43.625  52.566  1.00  0.00    -0.307 N 
HETATM    2  C   UNL     1      26.725  44.810  51.872  1.00  0.00     0.280 A 
HETATM    3  O   UNL     1      26.557  45.942  52.277  1.00  0.00    -0.265 OA
HETATM    4  C   UNL     1      26.801  44.436  50.396  1.00  0.00     0.157 A 
HETATM    5  N   UNL     1      26.670  45.191  49.352  1.00  0.00    -0.166 NA
HETATM    6  C   UNL     1      27.039  42.999  50.356  1.00  0.00     0.027 A 
HETATM    7  C   UNL     1      27.075  42.553  51.676  1.00  0.00     0.050 A 
HETATM    8  C   UNL     1      27.184  42.157  49.269  1.00  0.00     0.016 A 
HETATM    9  C   UNL     1      27.378  40.803  49.539  1.00  0.00     0.001 A 
HETATM   10  C   UNL     1      27.419  40.334  50.866  1.00  0.00     0.002 A 
HETATM   11  C   UNL     1      27.266  41.212  51.950  1.00  0.00     0.031 A 
ENDROOT
BRANCH   5  12
HETATM   12  N   UNL     1      26.400  46.515  49.547  1.00  0.00    -0.245 N 
HETATM   13  C   UNL     1      27.338  47.456  49.143  1.00  0.00     0.255 C 
HETATM   14  O   UNL     1      28.450  47.196  48.684  1.00  0.00    -0.270 OA
HETATM   15  H   UNL     1      25.495  46.808  49.936  1.00  0.00     0.192 HD
BRANCH  13  16
HETATM   16  C   UNL     1      26.877  48.898  49.317  1.00  0.00     0.227 C 
BRANCH  16  17
HETATM   17  N   UNL     1      25.435  49.008  49.186  1.00  0.00    -0.348 N 
HETATM   18  C   UNL     1      24.861  49.772  48.199  1.00  0.00     0.254 C 
HETATM   19  O   UNL     1      25.517  50.366  47.353  1.00  0.00    -0.268 OA
HETATM   20  H   UNL     1      24.856  48.602  49.916  1.00  0.00     0.163 HD
BRANCH  18  21
HETATM   21  C   UNL     1      23.382  49.862  48.224  1.00  0.00     0.065 A 
HETATM   22  C   UNL     1      22.550  48.744  48.088  1.00  0.00     0.081 A 
HETATM   23  C   UNL     1      21.167  48.880  48.201  1.00  0.00     0.037 A 
HETATM   24  C   UNL     1      20.606  50.138  48.419  1.00  0.00     0.003 A 
HETATM   25  C   UNL     1      21.426  51.263  48.521  1.00  0.00     0.001 A 
HETATM   26  C   UNL     1      22.811  51.127  48.421  1.00  0.00     0.020 A 
BRANCH  22  27
HETATM   27  O   UNL     1      23.016  47.485  47.826  1.00  0.00    -0.360 OA
HETATM   28  H   UNL     1      23.851  47.558  47.327  1.00  0.00     0.217 HD
ENDBRANCH  22  27
ENDBRANCH  18  21
ENDBRANCH  16  17
ENDBRANCH  13  16
ENDBRANCH   5  12
BRANCH   1  29
HETATM   29  C   UNL     1      26.903  43.532  54.007  1.00  0.00     0.171 C 
BRANCH  29  30
HETATM   30  C   UNL     1      28.256  43.849  54.600  1.00  0.00    -0.040 A 
HETATM   31  C   UNL     1      29.308  42.926  54.502  1.00  0.00     0.009 A 
HETATM   32  C   UNL     1      30.559  43.214  55.049  1.00  0.00     0.001 A 
HETATM   33  C   UNL     1      30.773  44.427  55.701  1.00  0.00     0.000 A 
HETATM   34  C   UNL     1      29.739  45.354  55.802  1.00  0.00     0.001 A 
HETATM   35  C   UNL     1      28.487  45.069  55.252  1.00  0.00     0.009 A 
ENDBRANCH  29  30
ENDBRANCH   1  29
TORSDOF 7
ENDMDL
MODEL 2
REMARK VINA RESULT:      -9.9      2.666      8.234
REMARK  7 active torsions:
REMARK  status: ('A' for Active; 'I' for Inactive)
REMARK    1  A    between atoms: C_4  and  C_5 
REMARK    2  A    between atoms: C_5  and  N_6 
REMARK    3  A    between atoms: N_10  and  N_11 
REMARK       I    between atoms: N_11  and  C_12 
REMARK    4  A    between atoms: C_12  and  C_13 
REMARK    5  A    between atoms: C_13  and  N_14 
REMARK       I    between atoms: N_14  and  C_15 
REMARK    6  A    between atoms: C_15  and  C_16 
REMARK    7  A    between atoms: C_17  and  O_18 
ROOT
HETATM    1  N   UNL     1      24.599  45.699  49.812  1.00  0.00    -0.307 N 
HETATM    2  C   UNL     1      25.554  44.712  49.976  1.00  0.00     0.280 A 
HETATM    3  O   UNL     1      26.558  44.695  50.657  1.00  0.00    -0.265 OA
HETATM    4  C   UNL     1      25.103  43.552  49.095  1.00  0.00     0.157 A 
HETATM    5  N   UNL     1      25.682  42.415  48.879  1.00  0.00    -0.166 NA
HETATM    6  C   UNL     1      23.849  43.974  48.484  1.00  0.00     0.027 A 
HETATM    7  C   UNL     1      23.589  45.267  48.934  1.00  0.00     0.050 A 
HETATM    8  C   UNL     1      23.027  43.302  47.599  1.00  0.00     0.016 A 
HETATM    9  C   UNL     1      21.889  43.974  47.156  1.00  0.00     0.001 A 
HETATM   10  C   UNL     1      21.609  45.281  47.602  1.00  0.00     0.002 A 
HETATM   11  C   UNL     1      22.463  45.940  48.499  1.00  0.00     0.031 A 
ENDROOT
BRANCH   5  12
HETATM   12  N   UNL     1      26.883  42.180  49.486  1.00  0.00    -0.245 N 
HETATM   13  C   UNL     1      26.978  41.140  50.401  1.00  0.00     0.255 C 
HETATM   14  O   UNL     1      26.038  40.442  50.781  1.00  0.00    -0.270 OA
HETATM   15  H   UNL     1      27.711  42.730  49.227  1.00  0.00     0.192 HD
BRANCH  13  16
HETATM   16  C   UNL     1      28.390  40.912  50.928  1.00  0.00     0.227 C 
BRANCH  16  17
HETATM   17  N   UNL     1      28.783  41.965  51.847  1.00  0.00    -0.348 N 
HETATM   18  C   UNL     1      28.764  41.774  53.207  1.00  0.00     0.254 C 
HETATM   19  O   UNL     1      28.461  40.707  53.724  1.00  0.00    -0.268 OA
HETATM   20  H   UNL     1      28.959  42.892  51.466  1.00  0.00     0.163 HD
BRANCH  18  21
HETATM   21  C   UNL     1      29.113  42.954  54.034  1.00  0.00     0.065 A 
HETATM   22  C   UNL     1      28.291  44.084  54.131  1.00  0.00     0.081 A 
HETATM   23  C   UNL     1      28.633  45.130  54.987  1.00  0.00     0.037 A 
HETATM   24  C   UNL     1      29.814  45.066  55.728  1.00  0.00     0.003 A 
HETATM   25  C   UNL     1      30.656  43.960  55.611  1.00  0.00     0.001 A 
HETATM   26  C   UNL     1      30.308  42.906  54.763  1.00  0.00     0.020 A 
BRANCH  22  27
HETATM   27  O   UNL     1      27.144  44.246  53.404  1.00  0.00    -0.360 OA
HETATM   28  H   UNL     1      26.961  45.201  53.316  1.00  0.00     0.217 HD
ENDBRANCH  22  27
ENDBRANCH  18  21
ENDBRANCH  16  17
ENDBRANCH  13  16
ENDBRANCH   5  12
BRANCH   1  29
HETATM   29  C   UNL     1      24.630  46.971  50.495  1.00  0.00     0.171 C 
BRANCH  29  30
HETATM   30  C   UNL     1      25.370  48.036  49.719  1.00  0.00    -0.040 A 
HETATM   31  C   UNL     1      24.666  48.946  48.915  1.00  0.00     0.009 A 
HETATM   32  C   UNL     1      25.344  49.930  48.195  1.00  0.00     0.001 A 
HETATM   33  C   UNL     1      26.733  50.017  48.270  1.00  0.00     0.000 A 
HETATM   34  C   UNL     1      27.444  49.123  49.067  1.00  0.00     0.001 A 
HETATM   35  C   UNL     1      26.766  48.140  49.791  1.00  0.00     0.009 A 
ENDBRANCH  29  30
ENDBRANCH   1  29
TORSDOF 7
ENDMDL
MODEL 3
REMARK VINA RESULT:      -9.8      1.651      2.084
REMARK  7 active torsions:
REMARK  status: ('A' for Active; 'I' for Inactive)
REMARK    1  A    between atoms: C_4  and  C_5 
REMARK    2  A    between atoms: C_5  and  N_6 
REMARK    3  A    between atoms: N_10  and  N_11 
REMARK       I    between atoms: N_11  and  C_12 
REMARK    4  A    between atoms: C_12  and  C_13 
REMARK    5  A    between atoms: C_13  and  N_14 
REMARK       I    between atoms: N_14  and  C_15 
REMARK    6  A    between atoms: C_15  and  C_16 
REMARK    7  A    between atoms: C_17  and  O_18 
ROOT
HETATM    1  N   UNL     1      26.587  43.824  52.577  1.00  0.00    -0.307 N 
HETATM    2  C   UNL     1      26.280  45.013  51.940  1.00  0.00     0.280 A 
HETATM    3  O   UNL     1      26.015  46.104  52.399  1.00  0.00    -0.265 OA
HETATM    4  C   UNL     1      26.336  44.706  50.448  1.00  0.00     0.157 A 
HETATM    5  N   UNL     1      26.088  45.484  49.443  1.00  0.00    -0.166 NA
HETATM    6  C   UNL     1      26.715  43.304  50.338  1.00  0.00     0.027 A 
HETATM    7  C   UNL     1      26.848  42.813  51.635  1.00  0.00     0.050 A 
HETATM    8  C   UNL     1      26.901  42.524  49.211  1.00  0.00     0.016 A 
HETATM    9  C   UNL     1      27.241  41.188  49.415  1.00  0.00     0.001 A 
HETATM   10  C   UNL     1      27.382  40.674  50.719  1.00  0.00     0.002 A 
HETATM   11  C   UNL     1      27.184  41.488  51.844  1.00  0.00     0.031 A 
ENDROOT
BRANCH   5  12
HETATM   12  N   UNL     1      25.693  46.765  49.704  1.00  0.00    -0.245 N 
HETATM   13  C   UNL     1      24.373  47.121  49.464  1.00  0.00     0.255 C 
HETATM   14  O   UNL     1      23.524  46.391  48.953  1.00  0.00    -0.270 OA
HETATM   15  H   UNL     1      26.351  47.435  50.122  1.00  0.00     0.192 HD
BRANCH  13  16
HETATM   16  C   UNL     1      24.031  48.543  49.892  1.00  0.00     0.227 C 
BRANCH  16  17
HETATM   17  N   UNL     1      22.698  48.916  49.457  1.00  0.00    -0.348 N 
HETATM   18  C   UNL     1      22.199  50.178  49.676  1.00  0.00     0.254 C 
HETATM   19  O   UNL     1      22.852  51.068  50.205  1.00  0.00    -0.268 OA
HETATM   20  H   UNL     1      22.092  48.186  49.092  1.00  0.00     0.163 HD
BRANCH  18  21
HETATM   21  C   UNL     1      20.796  50.404  49.253  1.00  0.00     0.065 A 
HETATM   22  C   UNL     1      19.767  49.490  49.512  1.00  0.00     0.081 A 
HETATM   23  C   UNL     1      18.453  49.793  49.161  1.00  0.00     0.037 A 
HETATM   24  C   UNL     1      18.164  50.999  48.521  1.00  0.00     0.003 A 
HETATM   25  C   UNL     1      19.188  51.901  48.229  1.00  0.00     0.001 A 
HETATM   26  C   UNL     1      20.503  51.603  48.591  1.00  0.00     0.020 A 
BRANCH  22  27
HETATM   27  O   UNL     1      19.973  48.268  50.091  1.00  0.00    -0.360 OA
HETATM   28  H   UNL     1      19.154  47.743  50.015  1.00  0.00     0.217 HD
ENDBRANCH  22  27
ENDBRANCH  18  21
ENDBRANCH  16  17
ENDBRANCH  13  16
ENDBRANCH   5  12
BRANCH   1  29
HETATM   29  C   UNL     1      26.670  43.677  54.011  1.00  0.00     0.171 C 
BRANCH  29  30
HETATM   30  C   UNL     1      28.051  43.968  54.552  1.00  0.00    -0.040 A 
HETATM   31  C   UNL     1      29.069  43.008  54.453  1.00  0.00     0.009 A 
HETATM   32  C   UNL     1      30.346  43.272  54.953  1.00  0.00     0.001 A 
HETATM   33  C   UNL     1      30.619  44.498  55.557  1.00  0.00     0.000 A 
HETATM   34  C   UNL     1      29.618  45.462  55.658  1.00  0.00     0.001 A 
HETATM   35  C   UNL     1      28.341  45.200  55.156  1.00  0.00     0.009 A 
ENDBRANCH  29  30
ENDBRANCH   1  29
TORSDOF 7
ENDMDL
MODEL 4
REMARK VINA RESULT:      -9.4      2.152      4.238
REMARK  7 active torsions:
REMARK  status: ('A' for Active; 'I' for Inactive)
REMARK    1  A    between atoms: C_4  and  C_5 
REMARK    2  A    between atoms: C_5  and  N_6 
REMARK    3  A    between atoms: N_10  and  N_11 
REMARK       I    between atoms: N_11  and  C_12 
REMARK    4  A    between atoms: C_12  and  C_13 
REMARK    5  A    between atoms: C_13  and  N_14 
REMARK       I    between atoms: N_14  and  C_15 
REMARK    6  A    between atoms: C_15  and  C_16 
REMARK    7  A    between atoms: C_17  and  O_18 
ROOT
HETATM    1  N   UNL     1      26.221  44.294  53.613  1.00  0.00    -0.307 N 
HETATM    2  C   UNL     1      25.367  44.983  52.771  1.00  0.00     0.280 A 
HETATM    3  O   UNL     1      24.455  44.583  52.078  1.00  0.00    -0.265 OA
HETATM    4  C   UNL     1      25.789  46.445  52.863  1.00  0.00     0.157 A 
HETATM    5  N   UNL     1      25.319  47.474  52.233  1.00  0.00    -0.166 NA
HETATM    6  C   UNL     1      26.888  46.489  53.818  1.00  0.00     0.027 A 
HETATM    7  C   UNL     1      27.119  45.179  54.237  1.00  0.00     0.050 A 
HETATM    8  C   UNL     1      27.633  47.566  54.261  1.00  0.00     0.016 A 
HETATM    9  C   UNL     1      28.654  47.298  55.171  1.00  0.00     0.001 A 
HETATM   10  C   UNL     1      28.901  45.982  55.606  1.00  0.00     0.002 A 
HETATM   11  C   UNL     1      28.131  44.907  55.138  1.00  0.00     0.031 A 
ENDROOT
BRANCH   5  12
HETATM   12  N   UNL     1      24.317  47.271  51.328  1.00  0.00    -0.245 N 
HETATM   13  C   UNL     1      24.462  47.778  50.043  1.00  0.00     0.255 C 
HETATM   14  O   UNL     1      25.400  48.477  49.659  1.00  0.00    -0.270 OA
HETATM   15  H   UNL     1      23.497  46.705  51.580  1.00  0.00     0.192 HD
BRANCH  13  16
HETATM   16  C   UNL     1      23.329  47.396  49.099  1.00  0.00     0.227 C 
BRANCH  16  17
HETATM   17  N   UNL     1      22.153  48.214  49.333  1.00  0.00    -0.348 N 
HETATM   18  C   UNL     1      21.828  49.257  48.499  1.00  0.00     0.254 C 
HETATM   19  O   UNL     1      22.474  49.533  47.497  1.00  0.00    -0.268 OA
HETATM   20  H   UNL     1      21.638  48.075  50.198  1.00  0.00     0.163 HD
BRANCH  18  21
HETATM   21  C   UNL     1      20.647  50.061  48.894  1.00  0.00     0.065 A 
HETATM   22  C   UNL     1      19.671  49.592  49.783  1.00  0.00     0.081 A 
HETATM   23  C   UNL     1      18.625  50.423  50.180  1.00  0.00     0.037 A 
HETATM   24  C   UNL     1      18.531  51.718  49.668  1.00  0.00     0.003 A 
HETATM   25  C   UNL     1      19.479  52.181  48.755  1.00  0.00     0.001 A 
HETATM   26  C   UNL     1      20.534  51.353  48.366  1.00  0.00     0.020 A 
BRANCH  22  27
HETATM   27  O   UNL     1      19.664  48.323  50.294  1.00  0.00    -0.360 OA
HETATM   28  H   UNL     1      18.776  48.134  50.651  1.00  0.00     0.217 HD
ENDBRANCH  22  27
ENDBRANCH  18  21
ENDBRANCH  16  17
ENDBRANCH  13  16
ENDBRANCH   5  12
BRANCH   1  29
HETATM   29  C   UNL     1      26.150  42.871  53.843  1.00  0.00     0.171 C 
BRANCH  29  30
HETATM   30  C   UNL     1      27.050  42.082  52.920  1.00  0.00    -0.040 A 
HETATM   31  C   UNL     1      26.761  41.996  51.549  1.00  0.00     0.009 A 
HETATM   32  C   UNL     1      27.588  41.267  50.693  1.00  0.00     0.001 A 
HETATM   33  C   UNL     1      28.713  40.615  51.197  1.00  0.00     0.000 A 
HETATM   34  C   UNL     1      29.014  40.697  52.554  1.00  0.00     0.001 A 
HETATM   35  C   UNL     1      28.189  41.428  53.411  1.00  0.00     0.009 A 
ENDBRANCH  29  30
ENDBRANCH   1  29
TORSDOF 7
ENDMDL
MODEL 5
REMARK VINA RESULT:      -9.3      2.374      3.483
REMARK  7 active torsions:
REMARK  status: ('A' for Active; 'I' for Inactive)
REMARK    1  A    between atoms: C_4  and  C_5 
REMARK    2  A    between atoms: C_5  and  N_6 
REMARK    3  A    between atoms: N_10  and  N_11 
REMARK       I    between atoms: N_11  and  C_12 
REMARK    4  A    between atoms: C_12  and  C_13 
REMARK    5  A    between atoms: C_13  and  N_14 
REMARK       I    between atoms: N_14  and  C_15 
REMARK    6  A    between atoms: C_15  and  C_16 
REMARK    7  A    between atoms: C_17  and  O_18 
ROOT
HETATM    1  N   UNL     1      25.828  43.641  52.838  1.00  0.00    -0.307 N 
HETATM    2  C   UNL     1      25.050  44.051  51.770  1.00  0.00     0.280 A 
HETATM    3  O   UNL     1      24.139  44.850  51.723  1.00  0.00    -0.265 OA
HETATM    4  C   UNL     1      25.567  43.276  50.563  1.00  0.00     0.157 A 
HETATM    5  N   UNL     1      25.140  43.284  49.341  1.00  0.00    -0.166 NA
HETATM    6  C   UNL     1      26.673  42.461  51.050  1.00  0.00     0.027 A 
HETATM    7  C   UNL     1      26.790  42.705  52.417  1.00  0.00     0.050 A 
HETATM    8  C   UNL     1      27.484  41.573  50.368  1.00  0.00     0.016 A 
HETATM    9  C   UNL     1      28.457  40.906  51.111  1.00  0.00     0.001 A 
HETATM   10  C   UNL     1      28.591  41.141  52.493  1.00  0.00     0.002 A 
HETATM   11  C   UNL     1      27.752  42.046  53.159  1.00  0.00     0.031 A 
ENDROOT
BRANCH   5  12
HETATM   12  N   UNL     1      24.059  44.063  49.044  1.00  0.00    -0.245 N 
HETATM   13  C   UNL     1      22.822  43.456  48.876  1.00  0.00     0.255 C 
HETATM   14  O   UNL     1      22.620  42.242  48.897  1.00  0.00    -0.270 OA
HETATM   15  H   UNL     1      24.153  45.085  49.000  1.00  0.00     0.192 HD
BRANCH  13  16
HETATM   16  C   UNL     1      21.679  44.439  48.653  1.00  0.00     0.227 C 
BRANCH  16  17
HETATM   17  N   UNL     1      22.111  45.806  48.876  1.00  0.00    -0.348 N 
HETATM   18  C   UNL     1      22.117  46.732  47.860  1.00  0.00     0.254 C 
HETATM   19  O   UNL     1      21.722  46.479  46.729  1.00  0.00    -0.268 OA
HETATM   20  H   UNL     1      22.526  46.036  49.775  1.00  0.00     0.163 HD
BRANCH  18  21
HETATM   21  C   UNL     1      22.656  48.069  48.202  1.00  0.00     0.065 A 
HETATM   22  C   UNL     1      23.832  48.248  48.943  1.00  0.00     0.081 A 
HETATM   23  C   UNL     1      24.333  49.529  49.166  1.00  0.00     0.037 A 
HETATM   24  C   UNL     1      23.646  50.641  48.676  1.00  0.00     0.003 A 
HETATM   25  C   UNL     1      22.456  50.474  47.967  1.00  0.00     0.001 A 
HETATM   26  C   UNL     1      21.959  49.190  47.733  1.00  0.00     0.020 A 
BRANCH  22  27
HETATM   27  O   UNL     1      24.538  47.216  49.497  1.00  0.00    -0.360 OA
HETATM   28  H   UNL     1      24.719  47.427  50.432  1.00  0.00     0.217 HD
ENDBRANCH  22  27
ENDBRANCH  18  21
ENDBRANCH  16  17
ENDBRANCH  13  16
ENDBRANCH   5  12
BRANCH   1  29
HETATM   29  C   UNL     1      25.686  44.152  54.181  1.00  0.00     0.171 C 
BRANCH  29  30
HETATM   30  C   UNL     1      26.510  45.395  54.425  1.00  0.00    -0.040 A 
HETATM   31  C   UNL     1      25.952  46.667  54.228  1.00  0.00     0.009 A 
HETATM   32  C   UNL     1      26.709  47.818  54.450  1.00  0.00     0.001 A 
HETATM   33  C   UNL     1      28.033  47.711  54.873  1.00  0.00     0.000 A 
HETATM   34  C   UNL     1      28.598  46.455  55.077  1.00  0.00     0.001 A 
HETATM   35  C   UNL     1      27.841  45.303  54.858  1.00  0.00     0.009 A 
ENDBRANCH  29  30
ENDBRANCH   1  29
TORSDOF 7
ENDMDL
MODEL 6
REMARK VINA RESULT:      -9.2      2.114      4.666
REMARK  7 active torsions:
REMARK  status: ('A' for Active; 'I' for Inactive)
REMARK    1  A    between atoms: C_4  and  C_5 
REMARK    2  A    between atoms: C_5  and  N_6 
REMARK    3  A    between atoms: N_10  and  N_11 
REMARK       I    between atoms: N_11  and  C_12 
REMARK    4  A    between atoms: C_12  and  C_13 
REMARK    5  A    between atoms: C_13  and  N_14 
REMARK       I    between atoms: N_14  and  C_15 
REMARK    6  A    between atoms: C_15  and  C_16 
REMARK    7  A    between atoms: C_17  and  O_18 
ROOT
HETATM    1  N   UNL     1      26.438  42.217  51.723  1.00  0.00    -0.307 N 
HETATM    2  C   UNL     1      25.533  43.130  51.213  1.00  0.00     0.280 A 
HETATM    3  O   UNL     1      24.644  42.985  50.399  1.00  0.00    -0.265 OA
HETATM    4  C   UNL     1      25.854  44.454  51.897  1.00  0.00     0.157 A 
HETATM    5  N   UNL     1      25.310  45.616  51.727  1.00  0.00    -0.166 NA
HETATM    6  C   UNL     1      26.955  44.179  52.811  1.00  0.00     0.027 A 
HETATM    7  C   UNL     1      27.278  42.830  52.669  1.00  0.00     0.050 A 
HETATM    8  C   UNL     1      27.628  45.031  53.666  1.00  0.00     0.016 A 
HETATM    9  C   UNL     1      28.673  44.486  54.411  1.00  0.00     0.001 A 
HETATM   10  C   UNL     1      29.012  43.125  54.282  1.00  0.00     0.002 A 
HETATM   11  C   UNL     1      28.313  42.284  53.404  1.00  0.00     0.031 A 
ENDROOT
BRANCH   5  12
HETATM   12  N   UNL     1      24.318  45.731  50.796  1.00  0.00    -0.245 N 
HETATM   13  C   UNL     1      24.208  46.914  50.077  1.00  0.00     0.255 C 
HETATM   14  O   UNL     1      24.892  47.921  50.261  1.00  0.00    -0.270 OA
HETATM   15  H   UNL     1      23.700  44.935  50.596  1.00  0.00     0.192 HD
BRANCH  13  16
HETATM   16  C   UNL     1      23.132  46.881  48.999  1.00  0.00     0.227 C 
BRANCH  16  17
HETATM   17  N   UNL     1      22.079  47.841  49.278  1.00  0.00    -0.348 N 
HETATM   18  C   UNL     1      21.821  48.889  48.428  1.00  0.00     0.254 C 
HETATM   19  O   UNL     1      22.423  49.055  47.375  1.00  0.00    -0.268 OA
HETATM   20  H   UNL     1      21.613  47.791  50.180  1.00  0.00     0.163 HD
BRANCH  18  21
HETATM   21  C   UNL     1      20.774  49.841  48.869  1.00  0.00     0.065 A 
HETATM   22  C   UNL     1      19.787  49.505  49.806  1.00  0.00     0.081 A 
HETATM   23  C   UNL     1      18.877  50.466  50.242  1.00  0.00     0.037 A 
HETATM   24  C   UNL     1      18.927  51.760  49.722  1.00  0.00     0.003 A 
HETATM   25  C   UNL     1      19.885  52.094  48.763  1.00  0.00     0.001 A 
HETATM   26  C   UNL     1      20.805  51.135  48.335  1.00  0.00     0.020 A 
BRANCH  22  27
HETATM   27  O   UNL     1      19.640  48.249  50.327  1.00  0.00    -0.360 OA
HETATM   28  H   UNL     1      18.739  47.931  50.128  1.00  0.00     0.217 HD
ENDBRANCH  22  27
ENDBRANCH  18  21
ENDBRANCH  16  17
ENDBRANCH  13  16
ENDBRANCH   5  12
BRANCH   1  29
HETATM   29  C   UNL     1      26.466  40.820  51.356  1.00  0.00     0.171 C 
BRANCH  29  30
HETATM   30  C   UNL     1      26.897  40.598  49.925  1.00  0.00    -0.040 A 
HETATM   31  C   UNL     1      25.971  40.165  48.963  1.00  0.00     0.009 A 
HETATM   32  C   UNL     1      26.366  39.956  47.641  1.00  0.00     0.001 A 
HETATM   33  C   UNL     1      27.689  40.178  47.264  1.00  0.00     0.000 A 
HETATM   34  C   UNL     1      28.617  40.612  48.207  1.00  0.00     0.001 A 
HETATM   35  C   UNL     1      28.224  40.824  49.530  1.00  0.00     0.009 A 
ENDBRANCH  29  30
ENDBRANCH   1  29
TORSDOF 7
ENDMDL
MODEL 7
REMARK VINA RESULT:      -9.2      4.013      8.464
REMARK  7 active torsions:
REMARK  status: ('A' for Active; 'I' for Inactive)
REMARK    1  A    between atoms: C_4  and  C_5 
REMARK    2  A    between atoms: C_5  and  N_6 
REMARK    3  A    between atoms: N_10  and  N_11 
REMARK       I    between atoms: N_11  and  C_12 
REMARK    4  A    between atoms: C_12  and  C_13 
REMARK    5  A    between atoms: C_13  and  N_14 
REMARK       I    between atoms: N_14  and  C_15 
REMARK    6  A    between atoms: C_15  and  C_16 
REMARK    7  A    between atoms: C_17  and  O_18 
ROOT
HETATM    1  N   UNL     1      26.975  43.035  52.549  1.00  0.00    -0.307 N 
HETATM    2  C   UNL     1      27.242  41.900  51.804  1.00  0.00     0.280 A 
HETATM    3  O   UNL     1      26.581  41.348  50.949  1.00  0.00    -0.265 OA
HETATM    4  C   UNL     1      28.612  41.417  52.266  1.00  0.00     0.157 A 
HETATM    5  N   UNL     1      29.279  40.372  51.894  1.00  0.00    -0.166 NA
HETATM    6  C   UNL     1      29.060  42.373  53.270  1.00  0.00     0.027 A 
HETATM    7  C   UNL     1      28.047  43.320  53.414  1.00  0.00     0.050 A 
HETATM    8  C   UNL     1      30.229  42.400  54.006  1.00  0.00     0.016 A 
HETATM    9  C   UNL     1      30.376  43.437  54.926  1.00  0.00     0.001 A 
HETATM   10  C   UNL     1      29.364  44.404  55.084  1.00  0.00     0.002 A 
HETATM   11  C   UNL     1      28.186  44.350  54.325  1.00  0.00     0.031 A 
ENDROOT
BRANCH   5  12
HETATM   12  N   UNL     1      28.708  39.537  50.977  1.00  0.00    -0.245 N 
HETATM   13  C   UNL     1      29.407  38.408  50.572  1.00  0.00     0.255 C 
HETATM   14  O   UNL     1      30.554  38.124  50.916  1.00  0.00    -0.270 OA
HETATM   15  H   UNL     1      27.755  39.716  50.636  1.00  0.00     0.192 HD
BRANCH  13  16
HETATM   16  C   UNL     1      28.622  37.504  49.629  1.00  0.00     0.227 C 
BRANCH  16  17
HETATM   17  N   UNL     1      28.745  37.949  48.253  1.00  0.00    -0.348 N 
HETATM   18  C   UNL     1      27.857  38.845  47.707  1.00  0.00     0.254 C 
HETATM   19  O   UNL     1      26.945  39.351  48.348  1.00  0.00    -0.268 OA
HETATM   20  H   UNL     1      29.433  37.491  47.661  1.00  0.00     0.163 HD
BRANCH  18  21
HETATM   21  C   UNL     1      28.048  39.155  46.270  1.00  0.00     0.065 A 
HETATM   22  C   UNL     1      28.068  40.464  45.771  1.00  0.00     0.081 A 
HETATM   23  C   UNL     1      28.331  40.697  44.423  1.00  0.00     0.037 A 
HETATM   24  C   UNL     1      28.545  39.623  43.558  1.00  0.00     0.003 A 
HETATM   25  C   UNL     1      28.493  38.314  44.040  1.00  0.00     0.001 A 
HETATM   26  C   UNL     1      28.241  38.080  45.393  1.00  0.00     0.020 A 
BRANCH  22  27
HETATM   27  O   UNL     1      27.821  41.568  46.540  1.00  0.00    -0.360 OA
HETATM   28  H   UNL     1      28.050  41.361  47.467  1.00  0.00     0.217 HD
ENDBRANCH  22  27
ENDBRANCH  18  21
ENDBRANCH  16  17
ENDBRANCH  13  16
ENDBRANCH   5  12
BRANCH   1  29
HETATM   29  C   UNL     1      25.777  43.828  52.407  1.00  0.00     0.171 C 
BRANCH  29  30
HETATM   30  C   UNL     1      25.992  45.072  51.576  1.00  0.00    -0.040 A 
HETATM   31  C   UNL     1      26.710  45.005  50.372  1.00  0.00     0.009 A 
HETATM   32  C   UNL     1      26.912  46.152  49.601  1.00  0.00     0.001 A 
HETATM   33  C   UNL     1      26.400  47.377  50.025  1.00  0.00     0.000 A 
HETATM   34  C   UNL     1      25.682  47.456  51.216  1.00  0.00     0.001 A 
HETATM   35  C   UNL     1      25.476  46.309  51.987  1.00  0.00     0.009 A 
ENDBRANCH  29  30
ENDBRANCH   1  29
TORSDOF 7
ENDMDL
MODEL 8
REMARK VINA RESULT:      -9.0      2.667      9.952
REMARK  7 active torsions:
REMARK  status: ('A' for Active; 'I' for Inactive)
REMARK    1  A    between atoms: C_4  and  C_5 
REMARK    2  A    between atoms: C_5  and  N_6 
REMARK    3  A    between atoms: N_10  and  N_11 
REMARK       I    between atoms: N_11  and  C_12 
REMARK    4  A    between atoms: C_12  and  C_13 
REMARK    5  A    between atoms: C_13  and  N_14 
REMARK       I    between atoms: N_14  and  C_15 
REMARK    6  A    between atoms: C_15  and  C_16 
REMARK    7  A    between atoms: C_17  and  O_18 
ROOT
HETATM    1  N   UNL     1      21.991  46.995  48.451  1.00  0.00    -0.307 N 
HETATM    2  C   UNL     1      23.081  46.494  49.141  1.00  0.00     0.280 A 
HETATM    3  O   UNL     1      23.378  45.351  49.419  1.00  0.00    -0.265 OA
HETATM    4  C   UNL     1      23.919  47.709  49.524  1.00  0.00     0.157 A 
HETATM    5  N   UNL     1      25.015  47.764  50.210  1.00  0.00    -0.166 NA
HETATM    6  C   UNL     1      23.226  48.867  48.975  1.00  0.00     0.027 A 
HETATM    7  C   UNL     1      22.074  48.395  48.348  1.00  0.00     0.050 A 
HETATM    8  C   UNL     1      23.556  50.208  49.038  1.00  0.00     0.016 A 
HETATM    9  C   UNL     1      22.677  51.106  48.435  1.00  0.00     0.001 A 
HETATM   10  C   UNL     1      21.510  50.647  47.795  1.00  0.00     0.002 A 
HETATM   11  C   UNL     1      21.198  49.280  47.748  1.00  0.00     0.031 A 
ENDROOT
BRANCH   5  12
HETATM   12  N   UNL     1      25.523  46.596  50.704  1.00  0.00    -0.245 N 
HETATM   13  C   UNL     1      25.726  46.481  52.073  1.00  0.00     0.255 C 
HETATM   14  O   UNL     1      25.558  47.384  52.893  1.00  0.00    -0.270 OA
HETATM   15  H   UNL     1      25.698  45.801  50.078  1.00  0.00     0.192 HD
BRANCH  13  16
HETATM   16  C   UNL     1      26.195  45.099  52.511  1.00  0.00     0.227 C 
BRANCH  16  17
HETATM   17  N   UNL     1      27.342  45.190  53.395  1.00  0.00    -0.348 N 
HETATM   18  C   UNL     1      27.856  44.079  54.020  1.00  0.00     0.254 C 
HETATM   19  O   UNL     1      27.414  42.952  53.840  1.00  0.00    -0.268 OA
HETATM   20  H   UNL     1      27.686  46.115  53.639  1.00  0.00     0.163 HD
BRANCH  18  21
HETATM   21  C   UNL     1      28.978  44.321  54.958  1.00  0.00     0.065 A 
HETATM   22  C   UNL     1      29.044  45.447  55.790  1.00  0.00     0.081 A 
HETATM   23  C   UNL     1      30.083  45.581  56.708  1.00  0.00     0.037 A 
HETATM   24  C   UNL     1      31.080  44.607  56.781  1.00  0.00     0.003 A 
HETATM   25  C   UNL     1      31.041  43.500  55.932  1.00  0.00     0.001 A 
HETATM   26  C   UNL     1      29.994  43.358  55.019  1.00  0.00     0.020 A 
BRANCH  22  27
HETATM   27  O   UNL     1      28.135  46.468  55.749  1.00  0.00    -0.360 OA
HETATM   28  H   UNL     1      27.297  46.127  55.382  1.00  0.00     0.217 HD
ENDBRANCH  22  27
ENDBRANCH  18  21
ENDBRANCH  16  17
ENDBRANCH  13  16
ENDBRANCH   5  12
BRANCH   1  29
HETATM   29  C   UNL     1      20.950  46.171  47.883  1.00  0.00     0.171 C 
BRANCH  29  30
HETATM   30  C   UNL     1      21.164  45.884  46.415  1.00  0.00    -0.040 A 
HETATM   31  C   UNL     1      22.258  45.113  45.994  1.00  0.00     0.009 A 
HETATM   32  C   UNL     1      22.461  44.848  44.639  1.00  0.00     0.001 A 
HETATM   33  C   UNL     1      21.573  45.350  43.689  1.00  0.00     0.000 A 
HETATM   34  C   UNL     1      20.480  46.113  44.093  1.00  0.00     0.001 A 
HETATM   35  C   UNL     1      20.275  46.377  45.449  1.00  0.00     0.009 A 
ENDBRANCH  29  30
ENDBRANCH   1  29
TORSDOF 7
ENDMDL
MODEL 9
REMARK VINA RESULT:      -8.9      3.480     10.700
REMARK  7 active torsions:
REMARK  status: ('A' for Active; 'I' for Inactive)
REMARK    1  A    between atoms: C_4  and  C_5 
REMARK    2  A    between atoms: C_5  and  N_6 
REMARK    3  A    between atoms: N_10  and  N_11 
REMARK       I    between atoms: N_11  and  C_12 
REMARK    4  A    between atoms: C_12  and  C_13 
REMARK    5  A    between atoms: C_13  and  N_14 
REMARK       I    between atoms: N_14  and  C_15 
REMARK    6  A    between atoms: C_15  and  C_16 
REMARK    7  A    between atoms: C_17  and  O_18 
ROOT
HETATM    1  N   UNL     1      18.498  48.336  48.784  1.00  0.00    -0.307 N 
HETATM    2  C   UNL     1      19.750  47.789  49.002  1.00  0.00     0.280 A 
HETATM    3  O   UNL     1      20.086  46.633  49.155  1.00  0.00    -0.265 OA
HETATM    4  C   UNL     1      20.717  48.967  49.016  1.00  0.00     0.157 A 
HETATM    5  N   UNL     1      21.995  48.974  49.222  1.00  0.00    -0.166 NA
HETATM    6  C   UNL     1      19.911  50.154  48.767  1.00  0.00     0.027 A 
HETATM    7  C   UNL     1      18.588  49.732  48.642  1.00  0.00     0.050 A 
HETATM    8  C   UNL     1      20.292  51.480  48.683  1.00  0.00     0.016 A 
HETATM    9  C   UNL     1      19.284  52.416  48.459  1.00  0.00     0.001 A 
HETATM   10  C   UNL     1      17.942  52.008  48.327  1.00  0.00     0.002 A 
HETATM   11  C   UNL     1      17.584  50.655  48.420  1.00  0.00     0.031 A 
ENDROOT
BRANCH   5  12
HETATM   12  N   UNL     1      22.609  47.784  49.493  1.00  0.00    -0.245 N 
HETATM   13  C   UNL     1      23.976  47.776  49.735  1.00  0.00     0.255 C 
HETATM   14  O   UNL     1      24.717  48.756  49.651  1.00  0.00    -0.270 OA
HETATM   15  H   UNL     1      22.056  46.921  49.569  1.00  0.00     0.192 HD
BRANCH  13  16
HETATM   16  C   UNL     1      24.523  46.409  50.127  1.00  0.00     0.227 C 
BRANCH  16  17
HETATM   17  N   UNL     1      25.458  46.515  51.233  1.00  0.00    -0.348 N 
HETATM   18  C   UNL     1      25.383  45.676  52.318  1.00  0.00     0.254 C 
HETATM   19  O   UNL     1      24.563  44.771  52.403  1.00  0.00    -0.268 OA
HETATM   20  H   UNL     1      26.098  47.305  51.244  1.00  0.00     0.163 HD
BRANCH  18  21
HETATM   21  C   UNL     1      26.347  45.942  53.413  1.00  0.00     0.065 A 
HETATM   22  C   UNL     1      27.032  44.923  54.087  1.00  0.00     0.081 A 
HETATM   23  C   UNL     1      27.986  45.238  55.053  1.00  0.00     0.037 A 
HETATM   24  C   UNL     1      28.238  46.572  55.374  1.00  0.00     0.003 A 
HETATM   25  C   UNL     1      27.535  47.593  54.732  1.00  0.00     0.001 A 
HETATM   26  C   UNL     1      26.589  47.279  53.755  1.00  0.00     0.020 A 
BRANCH  22  27
HETATM   27  O   UNL     1      26.809  43.591  53.866  1.00  0.00    -0.360 OA
HETATM   28  H   UNL     1      25.879  43.470  53.597  1.00  0.00     0.217 HD
ENDBRANCH  22  27
ENDBRANCH  18  21
ENDBRANCH  16  17
ENDBRANCH  13  16
ENDBRANCH   5  12
BRANCH   1  29
HETATM   29  C   UNL     1      17.287  47.558  48.673  1.00  0.00     0.171 C 
BRANCH  29  30
HETATM   30  C   UNL     1      17.136  46.896  47.323  1.00  0.00    -0.040 A 
HETATM   31  C   UNL     1      17.524  45.560  47.140  1.00  0.00     0.009 A 
HETATM   32  C   UNL     1      17.388  44.945  45.894  1.00  0.00     0.001 A 
HETATM   33  C   UNL     1      16.863  45.658  44.818  1.00  0.00     0.000 A 
HETATM   34  C   UNL     1      16.469  46.984  44.987  1.00  0.00     0.001 A 
HETATM   35  C   UNL     1      16.602  47.599  46.234  1.00  0.00     0.009 A 
ENDBRANCH  29  30
ENDBRANCH   1  29
TORSDOF 7
ENDMDL
MODEL 10
REMARK VINA RESULT:      -8.9      2.814      8.342
REMARK  7 active torsions:
REMARK  status: ('A' for Active; 'I' for Inactive)
REMARK    1  A    between atoms: C_4  and  C_5 
REMARK    2  A    between atoms: C_5  and  N_6 
REMARK    3  A    between atoms: N_10  and  N_11 
REMARK       I    between atoms: N_11  and  C_12 
REMARK    4  A    between atoms: C_12  and  C_13 
REMARK    5  A    between atoms: C_13  and  N_14 
REMARK       I    between atoms: N_14  and  C_15 
REMARK    6  A    between atoms: C_15  and  C_16 
REMARK    7  A    between atoms: C_17  and  O_18 
ROOT
HETATM    1  N   UNL     1      23.460  46.661  49.056  1.00  0.00    -0.307 N 
HETATM    2  C   UNL     1      23.927  45.379  48.826  1.00  0.00     0.280 A 
HETATM    3  O   UNL     1      24.844  44.772  49.340  1.00  0.00    -0.265 OA
HETATM    4  C   UNL     1      23.029  44.803  47.737  1.00  0.00     0.157 A 
HETATM    5  N   UNL     1      23.088  43.649  47.153  1.00  0.00    -0.166 NA
HETATM    6  C   UNL     1      22.052  45.839  47.430  1.00  0.00     0.027 A 
HETATM    7  C   UNL     1      22.351  46.936  48.236  1.00  0.00     0.050 A 
HETATM    8  C   UNL     1      21.017  45.835  46.514  1.00  0.00     0.016 A 
HETATM    9  C   UNL     1      20.250  46.995  46.419  1.00  0.00     0.001 A 
HETATM   10  C   UNL     1      20.536  48.112  47.228  1.00  0.00     0.002 A 
HETATM   11  C   UNL     1      21.596  48.090  48.146  1.00  0.00     0.031 A 
ENDROOT
BRANCH   5  12
HETATM   12  N   UNL     1      24.093  42.798  47.513  1.00  0.00    -0.245 N 
HETATM   13  C   UNL     1      23.775  41.648  48.223  1.00  0.00     0.255 C 
HETATM   14  O   UNL     1      22.651  41.357  48.634  1.00  0.00    -0.270 OA
HETATM   15  H   UNL     1      25.059  42.981  47.214  1.00  0.00     0.192 HD
BRANCH  13  16
HETATM   16  C   UNL     1      24.965  40.729  48.472  1.00  0.00     0.227 C 
BRANCH  16  17
HETATM   17  N   UNL     1      25.685  41.118  49.671  1.00  0.00    -0.348 N 
HETATM   18  C   UNL     1      26.893  41.771  49.602  1.00  0.00     0.254 C 
HETATM   19  O   UNL     1      27.410  42.100  48.543  1.00  0.00    -0.268 OA
HETATM   20  H   UNL     1      25.335  40.789  50.567  1.00  0.00     0.163 HD
BRANCH  18  21
HETATM   21  C   UNL     1      27.561  42.039  50.898  1.00  0.00     0.065 A 
HETATM   22  C   UNL     1      27.621  43.316  51.472  1.00  0.00     0.081 A 
HETATM   23  C   UNL     1      28.192  43.493  52.730  1.00  0.00     0.037 A 
HETATM   24  C   UNL     1      28.735  42.402  53.410  1.00  0.00     0.003 A 
HETATM   25  C   UNL     1      28.711  41.132  52.830  1.00  0.00     0.001 A 
HETATM   26  C   UNL     1      28.128  40.952  51.574  1.00  0.00     0.020 A 
BRANCH  22  27
HETATM   27  O   UNL     1      27.156  44.443  50.853  1.00  0.00    -0.360 OA
HETATM   28  H   UNL     1      27.861  45.118  50.860  1.00  0.00     0.217 HD
ENDBRANCH  22  27
ENDBRANCH  18  21
ENDBRANCH  16  17
ENDBRANCH  13  16
ENDBRANCH   5  12
BRANCH   1  29
HETATM   29  C   UNL     1      24.019  47.556  50.041  1.00  0.00     0.171 C 
BRANCH  29  30
HETATM   30  C   UNL     1      25.189  48.353  49.514  1.00  0.00    -0.040 A 
HETATM   31  C   UNL     1      26.499  48.031  49.901  1.00  0.00     0.009 A 
HETATM   32  C   UNL     1      27.583  48.766  49.417  1.00  0.00     0.001 A 
HETATM   33  C   UNL     1      27.371  49.830  48.542  1.00  0.00     0.000 A 
HETATM   34  C   UNL     1      26.076  50.157  48.147  1.00  0.00     0.001 A 
HETATM   35  C   UNL     1      24.991  49.421  48.627  1.00  0.00     0.009 A 
ENDBRANCH  29  30
ENDBRANCH   1  29
TORSDOF 7
ENDMDL
