MODEL 1
REMARK VINA RESULT:      -9.2      0.000      0.000
REMARK  6 active torsions:
REMARK  status: ('A' for Active; 'I' for Inactive)
REMARK    1  A    between atoms: C_2  and  S_3 
REMARK    2  A    between atoms: C_2  and  C_11 
REMARK    3  A    between atoms: S_3  and  C_4 
REMARK    4  A    between atoms: C_4  and  C_5 
REMARK       I    between atoms: C_11  and  N_12 
REMARK    5  A    between atoms: N_12  and  C_13 
REMARK    6  A    between atoms: C_15  and  C_16 
ROOT
HETATM    1  C   UNL     1      25.875  44.396  53.351  1.00  0.00     0.235 C 
HETATM    2  N   UNL     1      27.153  44.412  52.809  1.00  0.00    -0.326 N 
HETATM    3  O   UNL     1      25.577  43.948  54.456  1.00  0.00    -0.272 OA
HETATM    4  H   UNL     1      27.202  44.663  51.827  1.00  0.00     0.169 HD
ENDROOT
BRANCH   2   5
HETATM    5  C   UNL     1      28.356  43.996  53.419  1.00  0.00     0.035 A 
HETATM    6  C   UNL     1      28.801  44.458  54.661  1.00  0.00     0.042 A 
HETATM    7  C   UNL     1      30.017  44.016  55.209  1.00  0.00    -0.021 A 
HETATM    8  C   UNL     1      30.794  43.106  54.484  1.00  0.00     0.012 A 
HETATM    9  C   UNL     1      30.363  42.642  53.242  1.00  0.00     0.003 A 
HETATM   10  C   UNL     1      29.149  43.086  52.712  1.00  0.00     0.029 A 
BRANCH   7  11
HETATM   11  C   UNL     1      30.473  44.497  56.505  1.00  0.00     0.010 A 
HETATM   12  C   UNL     1      31.407  43.958  57.420  1.00  0.00     0.152 A 
HETATM   13  N   UNL     1      31.543  44.702  58.522  1.00  0.00    -0.187 NA
HETATM   14  N   UNL     1      30.696  45.723  58.317  1.00  0.00    -0.289 N 
HETATM   15  H   UNL     1      30.620  46.438  59.032  1.00  0.00     0.188 HD
HETATM   16  C   UNL     1      30.030  45.645  57.128  1.00  0.00     0.123 A 
ENDBRANCH   7  11
ENDBRANCH   2   5
BRANCH   1  17
HETATM   17  C   UNL     1      24.834  45.109  52.464  1.00  0.00     0.135 C 
HETATM   18  C   UNL     1      24.556  44.298  51.201  1.00  0.00     0.031 C 
BRANCH  17  19
HETATM   19  S   UNL     1      25.400  46.818  52.072  1.00  0.00    -0.150 SA
BRANCH  19  20
HETATM   20  C   UNL     1      24.694  47.005  50.404  1.00  0.00     0.113 C 
BRANCH  20  21
HETATM   21  C   UNL     1      25.364  48.111  49.629  1.00  0.00    -0.049 A 
HETATM   22  C   UNL     1      26.759  48.259  49.666  1.00  0.00     0.008 A 
HETATM   23  C   UNL     1      27.386  49.268  48.933  1.00  0.00     0.001 A 
HETATM   24  C   UNL     1      26.627  50.142  48.160  1.00  0.00     0.000 A 
HETATM   25  C   UNL     1      25.240  50.013  48.124  1.00  0.00     0.001 A 
HETATM   26  C   UNL     1      24.610  49.006  48.857  1.00  0.00     0.008 A 
ENDBRANCH  20  21
ENDBRANCH  19  20
ENDBRANCH  17  19
ENDBRANCH   1  17
TORSDOF 6
ENDMDL
MODEL 2
REMARK VINA RESULT:      -9.0      1.449      2.151
REMARK  6 active torsions:
REMARK  status: ('A' for Active; 'I' for Inactive)
REMARK    1  A    between atoms: C_2  and  S_3 
REMARK    2  A    between atoms: C_2  and  C_11 
REMARK    3  A    between atoms: S_3  and  C_4 
REMARK    4  A    between atoms: C_4  and  C_5 
REMARK       I    between atoms: C_11  and  N_12 
REMARK    5  A    between atoms: N_12  and  C_13 
REMARK    6  A    between atoms: C_15  and  C_16 
ROOT
HETATM    1  C   UNL     1      25.579  44.218  52.495  1.00  0.00     0.235 C 
HETATM    2  N   UNL     1      26.913  44.591  52.586  1.00  0.00    -0.326 N 
HETATM    3  O   UNL     1      24.753  44.307  53.400  1.00  0.00    -0.272 OA
HETATM    4  H   UNL     1      27.496  44.300  51.807  1.00  0.00     0.169 HD
ENDROOT
BRANCH   2   5
HETATM    5  C   UNL     1      27.569  45.198  53.678  1.00  0.00     0.035 A 
HETATM    6  C   UNL     1      28.568  44.574  54.431  1.00  0.00     0.042 A 
HETATM    7  C   UNL     1      29.174  45.227  55.519  1.00  0.00    -0.021 A 
HETATM    8  C   UNL     1      28.752  46.519  55.853  1.00  0.00     0.012 A 
HETATM    9  C   UNL     1      27.752  47.148  55.111  1.00  0.00     0.003 A 
HETATM   10  C   UNL     1      27.164  46.490  54.029  1.00  0.00     0.029 A 
BRANCH   7  11
HETATM   11  C   UNL     1      30.217  44.575  56.296  1.00  0.00     0.010 A 
HETATM   12  C   UNL     1      30.781  44.901  57.552  1.00  0.00     0.152 A 
HETATM   13  N   UNL     1      31.741  44.050  57.927  1.00  0.00    -0.187 NA
HETATM   14  N   UNL     1      31.795  43.173  56.912  1.00  0.00    -0.289 N 
HETATM   15  H   UNL     1      32.465  42.413  56.966  1.00  0.00     0.188 HD
HETATM   16  C   UNL     1      30.907  43.445  55.911  1.00  0.00     0.123 A 
ENDBRANCH   7  11
ENDBRANCH   2   5
BRANCH   1  17
HETATM   17  C   UNL     1      25.174  43.762  51.078  1.00  0.00     0.135 C 
HETATM   18  C   UNL     1      25.667  42.343  50.808  1.00  0.00     0.031 C 
BRANCH  17  19
HETATM   19  S   UNL     1      25.803  44.958  49.825  1.00  0.00    -0.150 SA
BRANCH  19  20
HETATM   20  C   UNL     1      25.015  46.484  50.427  1.00  0.00     0.113 C 
BRANCH  20  21
HETATM   21  C   UNL     1      25.558  47.710  49.737  1.00  0.00    -0.049 A 
HETATM   22  C   UNL     1      26.940  47.947  49.697  1.00  0.00     0.008 A 
HETATM   23  C   UNL     1      27.449  49.069  49.040  1.00  0.00     0.001 A 
HETATM   24  C   UNL     1      26.583  49.968  48.422  1.00  0.00     0.000 A 
HETATM   25  C   UNL     1      25.207  49.750  48.466  1.00  0.00     0.001 A 
HETATM   26  C   UNL     1      24.695  48.629  49.122  1.00  0.00     0.008 A 
ENDBRANCH  20  21
ENDBRANCH  19  20
ENDBRANCH  17  19
ENDBRANCH   1  17
TORSDOF 6
ENDMDL
MODEL 3
REMARK VINA RESULT:      -8.7      3.383      9.231
REMARK  6 active torsions:
REMARK  status: ('A' for Active; 'I' for Inactive)
REMARK    1  A    between atoms: C_2  and  S_3 
REMARK    2  A    between atoms: C_2  and  C_11 
REMARK    3  A    between atoms: S_3  and  C_4 
REMARK    4  A    between atoms: C_4  and  C_5 
REMARK       I    between atoms: C_11  and  N_12 
REMARK    5  A    between atoms: N_12  and  C_13 
REMARK    6  A    between atoms: C_15  and  C_16 
ROOT
HETATM    1  C   UNL     1      25.968  46.699  51.975  1.00  0.00     0.235 C 
HETATM    2  N   UNL     1      26.176  46.826  50.609  1.00  0.00    -0.326 N 
HETATM    3  O   UNL     1      25.522  47.577  52.711  1.00  0.00    -0.272 OA
HETATM    4  H   UNL     1      26.702  46.070  50.181  1.00  0.00     0.169 HD
ENDROOT
BRANCH   2   5
HETATM    5  C   UNL     1      25.865  47.929  49.785  1.00  0.00     0.035 A 
HETATM    6  C   UNL     1      24.562  48.365  49.525  1.00  0.00     0.042 A 
HETATM    7  C   UNL     1      24.316  49.463  48.683  1.00  0.00    -0.021 A 
HETATM    8  C   UNL     1      25.402  50.117  48.090  1.00  0.00     0.012 A 
HETATM    9  C   UNL     1      26.706  49.687  48.339  1.00  0.00     0.003 A 
HETATM   10  C   UNL     1      26.935  48.598  49.183  1.00  0.00     0.029 A 
BRANCH   7  11
HETATM   11  C   UNL     1      22.958  49.915  48.420  1.00  0.00     0.010 A 
HETATM   12  C   UNL     1      21.917  49.335  47.657  1.00  0.00     0.152 A 
HETATM   13  N   UNL     1      20.805  50.075  47.649  1.00  0.00    -0.187 NA
HETATM   14  N   UNL     1      21.129  51.134  48.408  1.00  0.00    -0.289 N 
HETATM   15  H   UNL     1      20.430  51.854  48.555  1.00  0.00     0.188 HD
HETATM   16  C   UNL     1      22.405  51.087  48.889  1.00  0.00     0.123 A 
ENDBRANCH   7  11
ENDBRANCH   2   5
BRANCH   1  17
HETATM   17  C   UNL     1      26.253  45.278  52.501  1.00  0.00     0.135 C 
HETATM   18  C   UNL     1      25.245  44.281  51.933  1.00  0.00     0.031 C 
BRANCH  17  19
HETATM   19  S   UNL     1      26.259  45.274  54.344  1.00  0.00    -0.150 SA
BRANCH  19  20
HETATM   20  C   UNL     1      27.843  46.118  54.652  1.00  0.00     0.113 C 
BRANCH  20  21
HETATM   21  C   UNL     1      28.934  45.148  55.033  1.00  0.00    -0.049 A 
HETATM   22  C   UNL     1      29.824  45.456  56.073  1.00  0.00     0.008 A 
HETATM   23  C   UNL     1      30.821  44.553  56.445  1.00  0.00     0.001 A 
HETATM   24  C   UNL     1      30.944  43.337  55.778  1.00  0.00     0.000 A 
HETATM   25  C   UNL     1      30.074  43.025  54.734  1.00  0.00     0.001 A 
HETATM   26  C   UNL     1      29.075  43.926  54.360  1.00  0.00     0.008 A 
ENDBRANCH  20  21
ENDBRANCH  19  20
ENDBRANCH  17  19
ENDBRANCH   1  17
TORSDOF 6
ENDMDL
MODEL 4
REMARK VINA RESULT:      -8.6      2.778      8.382
REMARK  6 active torsions:
REMARK  status: ('A' for Active; 'I' for Inactive)
REMARK    1  A    between atoms: C_2  and  S_3 
REMARK    2  A    between atoms: C_2  and  C_11 
REMARK    3  A    between atoms: S_3  and  C_4 
REMARK    4  A    between atoms: C_4  and  C_5 
REMARK       I    between atoms: C_11  and  N_12 
REMARK    5  A    between atoms: N_12  and  C_13 
REMARK    6  A    between atoms: C_15  and  C_16 
ROOT
HETATM    1  C   UNL     1      27.498  43.723  52.008  1.00  0.00     0.235 C 
HETATM    2  N   UNL     1      26.512  44.674  52.234  1.00  0.00    -0.326 N 
HETATM    3  O   UNL     1      27.894  43.359  50.904  1.00  0.00    -0.272 OA
HETATM    4  H   UNL     1      26.187  44.739  53.194  1.00  0.00     0.169 HD
ENDROOT
BRANCH   2   5
HETATM    5  C   UNL     1      25.826  45.452  51.278  1.00  0.00     0.035 A 
HETATM    6  C   UNL     1      26.352  46.607  50.690  1.00  0.00     0.042 A 
HETATM    7  C   UNL     1      25.612  47.349  49.753  1.00  0.00    -0.021 A 
HETATM    8  C   UNL     1      24.322  46.921  49.419  1.00  0.00     0.012 A 
HETATM    9  C   UNL     1      23.785  45.774  50.003  1.00  0.00     0.003 A 
HETATM   10  C   UNL     1      24.534  45.044  50.929  1.00  0.00     0.029 A 
BRANCH   7  11
HETATM   11  C   UNL     1      26.167  48.546  49.140  1.00  0.00     0.010 A 
HETATM   12  C   UNL     1      25.559  49.555  48.356  1.00  0.00     0.152 A 
HETATM   13  N   UNL     1      26.422  50.498  47.964  1.00  0.00    -0.187 NA
HETATM   14  N   UNL     1      27.587  50.097  48.498  1.00  0.00    -0.289 N 
HETATM   15  H   UNL     1      28.412  50.664  48.335  1.00  0.00     0.188 HD
HETATM   16  C   UNL     1      27.488  48.934  49.206  1.00  0.00     0.123 A 
ENDBRANCH   7  11
ENDBRANCH   2   5
BRANCH   1  17
HETATM   17  C   UNL     1      28.156  43.215  53.307  1.00  0.00     0.135 C 
HETATM   18  C   UNL     1      27.961  41.708  53.456  1.00  0.00     0.031 C 
BRANCH  17  19
HETATM   19  S   UNL     1      27.494  44.140  54.756  1.00  0.00    -0.150 SA
BRANCH  19  20
HETATM   20  C   UNL     1      28.789  45.407  54.936  1.00  0.00     0.113 C 
BRANCH  20  21
HETATM   21  C   UNL     1      29.777  45.055  56.020  1.00  0.00    -0.049 A 
HETATM   22  C   UNL     1      29.815  45.794  57.212  1.00  0.00     0.008 A 
HETATM   23  C   UNL     1      30.712  45.458  58.227  1.00  0.00     0.001 A 
HETATM   24  C   UNL     1      31.583  44.385  58.060  1.00  0.00     0.000 A 
HETATM   25  C   UNL     1      31.563  43.650  56.876  1.00  0.00     0.001 A 
HETATM   26  C   UNL     1      30.667  43.984  55.858  1.00  0.00     0.008 A 
ENDBRANCH  20  21
ENDBRANCH  19  20
ENDBRANCH  17  19
ENDBRANCH   1  17
TORSDOF 6
ENDMDL
MODEL 5
REMARK VINA RESULT:      -8.5      4.224      9.851
REMARK  6 active torsions:
REMARK  status: ('A' for Active; 'I' for Inactive)
REMARK    1  A    between atoms: C_2  and  S_3 
REMARK    2  A    between atoms: C_2  and  C_11 
REMARK    3  A    between atoms: S_3  and  C_4 
REMARK    4  A    between atoms: C_4  and  C_5 
REMARK       I    between atoms: C_11  and  N_12 
REMARK    5  A    between atoms: N_12  and  C_13 
REMARK    6  A    between atoms: C_15  and  C_16 
ROOT
HETATM    1  C   UNL     1      24.825  46.833  50.426  1.00  0.00     0.235 C 
HETATM    2  N   UNL     1      24.165  47.271  49.286  1.00  0.00    -0.326 N 
HETATM    3  O   UNL     1      25.070  47.520  51.414  1.00  0.00    -0.272 OA
HETATM    4  H   UNL     1      24.190  46.630  48.500  1.00  0.00     0.169 HD
ENDROOT
BRANCH   2   5
HETATM    5  C   UNL     1      23.592  48.540  49.053  1.00  0.00     0.035 A 
HETATM    6  C   UNL     1      22.290  48.886  49.426  1.00  0.00     0.042 A 
HETATM    7  C   UNL     1      21.770  50.163  49.153  1.00  0.00    -0.021 A 
HETATM    8  C   UNL     1      22.575  51.092  48.484  1.00  0.00     0.012 A 
HETATM    9  C   UNL     1      23.874  50.755  48.102  1.00  0.00     0.003 A 
HETATM   10  C   UNL     1      24.379  49.484  48.386  1.00  0.00     0.029 A 
BRANCH   7  11
HETATM   11  C   UNL     1      20.416  50.520  49.547  1.00  0.00     0.010 A 
HETATM   12  C   UNL     1      19.457  49.820  50.317  1.00  0.00     0.152 A 
HETATM   13  N   UNL     1      18.307  50.489  50.448  1.00  0.00    -0.187 NA
HETATM   14  N   UNL     1      18.525  51.623  49.762  1.00  0.00    -0.289 N 
HETATM   15  H   UNL     1      17.780  52.309  49.715  1.00  0.00     0.188 HD
HETATM   16  C   UNL     1      19.769  51.688  49.202  1.00  0.00     0.123 A 
ENDBRANCH   7  11
ENDBRANCH   2   5
BRANCH   1  17
HETATM   17  C   UNL     1      25.145  45.324  50.396  1.00  0.00     0.135 C 
HETATM   18  C   UNL     1      24.205  44.555  51.320  1.00  0.00     0.031 C 
BRANCH  17  19
HETATM   19  S   UNL     1      26.915  45.045  50.829  1.00  0.00    -0.150 SA
BRANCH  19  20
HETATM   20  C   UNL     1      26.739  44.600  52.586  1.00  0.00     0.113 C 
BRANCH  20  21
HETATM   21  C   UNL     1      28.038  44.118  53.179  1.00  0.00    -0.049 A 
HETATM   22  C   UNL     1      28.431  44.534  54.460  1.00  0.00     0.008 A 
HETATM   23  C   UNL     1      29.623  44.074  55.022  1.00  0.00     0.001 A 
HETATM   24  C   UNL     1      30.437  43.197  54.309  1.00  0.00     0.000 A 
HETATM   25  C   UNL     1      30.063  42.785  53.031  1.00  0.00     0.001 A 
HETATM   26  C   UNL     1      28.872  43.245  52.466  1.00  0.00     0.008 A 
ENDBRANCH  20  21
ENDBRANCH  19  20
ENDBRANCH  17  19
ENDBRANCH   1  17
TORSDOF 6
ENDMDL
MODEL 6
REMARK VINA RESULT:      -8.4      1.725      2.322
REMARK  6 active torsions:
REMARK  status: ('A' for Active; 'I' for Inactive)
REMARK    1  A    between atoms: C_2  and  S_3 
REMARK    2  A    between atoms: C_2  and  C_11 
REMARK    3  A    between atoms: S_3  and  C_4 
REMARK    4  A    between atoms: C_4  and  C_5 
REMARK       I    between atoms: C_11  and  N_12 
REMARK    5  A    between atoms: N_12  and  C_13 
REMARK    6  A    between atoms: C_15  and  C_16 
ROOT
HETATM    1  C   UNL     1      26.675  45.232  51.589  1.00  0.00     0.235 C 
HETATM    2  N   UNL     1      27.020  45.060  52.922  1.00  0.00    -0.326 N 
HETATM    3  O   UNL     1      27.357  44.883  50.628  1.00  0.00    -0.272 OA
HETATM    4  H   UNL     1      26.429  45.549  53.587  1.00  0.00     0.169 HD
ENDROOT
BRANCH   2   5
HETATM    5  C   UNL     1      28.157  44.407  53.444  1.00  0.00     0.035 A 
HETATM    6  C   UNL     1      28.749  44.732  54.668  1.00  0.00     0.042 A 
HETATM    7  C   UNL     1      29.891  44.054  55.128  1.00  0.00    -0.021 A 
HETATM    8  C   UNL     1      30.444  43.045  54.331  1.00  0.00     0.012 A 
HETATM    9  C   UNL     1      29.865  42.716  53.105  1.00  0.00     0.003 A 
HETATM   10  C   UNL     1      28.726  43.395  52.665  1.00  0.00     0.029 A 
BRANCH   7  11
HETATM   11  C   UNL     1      30.500  44.392  56.405  1.00  0.00     0.010 A 
HETATM   12  C   UNL     1      31.488  43.727  57.169  1.00  0.00     0.152 A 
HETATM   13  N   UNL     1      31.775  44.361  58.310  1.00  0.00    -0.187 NA
HETATM   14  N   UNL     1      30.973  45.437  58.281  1.00  0.00    -0.289 N 
HETATM   15  H   UNL     1      31.010  46.087  59.059  1.00  0.00     0.188 HD
HETATM   16  C   UNL     1      30.189  45.500  57.165  1.00  0.00     0.123 A 
ENDBRANCH   7  11
ENDBRANCH   2   5
BRANCH   1  17
HETATM   17  C   UNL     1      25.263  45.824  51.401  1.00  0.00     0.135 C 
HETATM   18  C   UNL     1      24.290  44.753  50.916  1.00  0.00     0.031 C 
BRANCH  17  19
HETATM   19  S   UNL     1      25.329  47.264  50.253  1.00  0.00    -0.150 SA
BRANCH  19  20
HETATM   20  C   UNL     1      23.689  47.118  49.476  1.00  0.00     0.113 C 
BRANCH  20  21
HETATM   21  C   UNL     1      23.117  48.464  49.107  1.00  0.00    -0.049 A 
HETATM   22  C   UNL     1      21.728  48.657  49.065  1.00  0.00     0.008 A 
HETATM   23  C   UNL     1      21.195  49.906  48.745  1.00  0.00     0.001 A 
HETATM   24  C   UNL     1      22.042  50.974  48.459  1.00  0.00     0.000 A 
HETATM   25  C   UNL     1      23.424  50.791  48.485  1.00  0.00     0.001 A 
HETATM   26  C   UNL     1      23.960  49.542  48.804  1.00  0.00     0.008 A 
ENDBRANCH  20  21
ENDBRANCH  19  20
ENDBRANCH  17  19
ENDBRANCH   1  17
TORSDOF 6
ENDMDL
MODEL 7
REMARK VINA RESULT:      -8.1      3.284      4.368
REMARK  6 active torsions:
REMARK  status: ('A' for Active; 'I' for Inactive)
REMARK    1  A    between atoms: C_2  and  S_3 
REMARK    2  A    between atoms: C_2  and  C_11 
REMARK    3  A    between atoms: S_3  and  C_4 
REMARK    4  A    between atoms: C_4  and  C_5 
REMARK       I    between atoms: C_11  and  N_12 
REMARK    5  A    between atoms: N_12  and  C_13 
REMARK    6  A    between atoms: C_15  and  C_16 
ROOT
HETATM    1  C   UNL     1      25.342  47.147  51.159  1.00  0.00     0.235 C 
HETATM    2  N   UNL     1      25.273  46.511  52.391  1.00  0.00    -0.326 N 
HETATM    3  O   UNL     1      26.186  47.977  50.834  1.00  0.00    -0.272 OA
HETATM    4  H   UNL     1      24.423  45.980  52.555  1.00  0.00     0.169 HD
ENDROOT
BRANCH   2   5
HETATM    5  C   UNL     1      26.170  46.625  53.474  1.00  0.00     0.035 A 
HETATM    6  C   UNL     1      27.192  45.709  53.740  1.00  0.00     0.042 A 
HETATM    7  C   UNL     1      28.045  45.870  54.845  1.00  0.00    -0.021 A 
HETATM    8  C   UNL     1      27.851  46.965  55.695  1.00  0.00     0.012 A 
HETATM    9  C   UNL     1      26.831  47.883  55.442  1.00  0.00     0.003 A 
HETATM   10  C   UNL     1      25.995  47.713  54.336  1.00  0.00     0.029 A 
BRANCH   7  11
HETATM   11  C   UNL     1      29.110  44.915  55.114  1.00  0.00     0.010 A 
HETATM   12  C   UNL     1      29.388  43.649  54.547  1.00  0.00     0.152 A 
HETATM   13  N   UNL     1      30.467  43.067  55.080  1.00  0.00    -0.187 NA
HETATM   14  N   UNL     1      30.885  43.960  55.991  1.00  0.00    -0.289 N 
HETATM   15  H   UNL     1      31.709  43.739  56.540  1.00  0.00     0.188 HD
HETATM   16  C   UNL     1      30.106  45.079  56.053  1.00  0.00     0.123 A 
ENDBRANCH   7  11
ENDBRANCH   2   5
BRANCH   1  17
HETATM   17  C   UNL     1      24.293  46.630  50.152  1.00  0.00     0.135 C 
HETATM   18  C   UNL     1      24.831  45.424  49.386  1.00  0.00     0.031 C 
BRANCH  17  19
HETATM   19  S   UNL     1      23.779  47.990  49.020  1.00  0.00    -0.150 SA
BRANCH  19  20
HETATM   20  C   UNL     1      21.975  47.745  49.039  1.00  0.00     0.113 C 
BRANCH  20  21
HETATM   21  C   UNL     1      21.228  49.055  49.064  1.00  0.00    -0.049 A 
HETATM   22  C   UNL     1      21.800  50.208  48.505  1.00  0.00     0.008 A 
HETATM   23  C   UNL     1      21.105  51.418  48.506  1.00  0.00     0.001 A 
HETATM   24  C   UNL     1      19.834  51.491  49.070  1.00  0.00     0.000 A 
HETATM   25  C   UNL     1      19.259  50.355  49.640  1.00  0.00     0.001 A 
HETATM   26  C   UNL     1      19.953  49.144  49.640  1.00  0.00     0.008 A 
ENDBRANCH  20  21
ENDBRANCH  19  20
ENDBRANCH  17  19
ENDBRANCH   1  17
TORSDOF 6
ENDMDL
MODEL 8
REMARK VINA RESULT:      -8.0      3.065      5.040
REMARK  6 active torsions:
REMARK  status: ('A' for Active; 'I' for Inactive)
REMARK    1  A    between atoms: C_2  and  S_3 
REMARK    2  A    between atoms: C_2  and  C_11 
REMARK    3  A    between atoms: S_3  and  C_4 
REMARK    4  A    between atoms: C_4  and  C_5 
REMARK       I    between atoms: C_11  and  N_12 
REMARK    5  A    between atoms: N_12  and  C_13 
REMARK    6  A    between atoms: C_15  and  C_16 
ROOT
HETATM    1  C   UNL     1      26.684  44.350  50.409  1.00  0.00     0.235 C 
HETATM    2  N   UNL     1      26.737  43.693  51.631  1.00  0.00    -0.326 N 
HETATM    3  O   UNL     1      27.609  44.978  49.899  1.00  0.00    -0.272 OA
HETATM    4  H   UNL     1      25.843  43.366  51.984  1.00  0.00     0.169 HD
ENDROOT
BRANCH   2   5
HETATM    5  C   UNL     1      27.849  43.551  52.489  1.00  0.00     0.035 A 
HETATM    6  C   UNL     1      28.050  44.321  53.638  1.00  0.00     0.042 A 
HETATM    7  C   UNL     1      29.187  44.141  54.445  1.00  0.00    -0.021 A 
HETATM    8  C   UNL     1      30.134  43.179  54.074  1.00  0.00     0.012 A 
HETATM    9  C   UNL     1      29.945  42.409  52.927  1.00  0.00     0.003 A 
HETATM   10  C   UNL     1      28.807  42.595  52.138  1.00  0.00     0.029 A 
BRANCH   7  11
HETATM   11  C   UNL     1      29.389  44.942  55.643  1.00  0.00     0.010 A 
HETATM   12  C   UNL     1      30.486  45.023  56.532  1.00  0.00     0.152 A 
HETATM   13  N   UNL     1      30.278  45.880  57.536  1.00  0.00    -0.187 NA
HETATM   14  N   UNL     1      29.046  46.354  57.293  1.00  0.00    -0.289 N 
HETATM   15  H   UNL     1      28.657  47.038  57.933  1.00  0.00     0.188 HD
HETATM   16  C   UNL     1      28.471  45.822  56.175  1.00  0.00     0.123 A 
ENDBRANCH   7  11
ENDBRANCH   2   5
BRANCH   1  17
HETATM   17  C   UNL     1      25.351  44.133  49.664  1.00  0.00     0.135 C 
HETATM   18  C   UNL     1      24.507  45.405  49.689  1.00  0.00     0.031 C 
BRANCH  17  19
HETATM   19  S   UNL     1      24.450  42.696  50.384  1.00  0.00    -0.150 SA
BRANCH  19  20
HETATM   20  C   UNL     1      24.703  41.474  49.058  1.00  0.00     0.113 C 
BRANCH  20  21
HETATM   21  C   UNL     1      26.115  40.945  49.040  1.00  0.00    -0.049 A 
HETATM   22  C   UNL     1      26.601  40.182  50.113  1.00  0.00     0.008 A 
HETATM   23  C   UNL     1      27.900  39.673  50.092  1.00  0.00     0.001 A 
HETATM   24  C   UNL     1      28.729  39.924  49.001  1.00  0.00     0.000 A 
HETATM   25  C   UNL     1      28.263  40.691  47.935  1.00  0.00     0.001 A 
HETATM   26  C   UNL     1      26.964  41.202  47.954  1.00  0.00     0.008 A 
ENDBRANCH  20  21
ENDBRANCH  19  20
ENDBRANCH  17  19
ENDBRANCH   1  17
TORSDOF 6
ENDMDL
MODEL 9
REMARK VINA RESULT:      -8.0      3.168      8.884
REMARK  6 active torsions:
REMARK  status: ('A' for Active; 'I' for Inactive)
REMARK    1  A    between atoms: C_2  and  S_3 
REMARK    2  A    between atoms: C_2  and  C_11 
REMARK    3  A    between atoms: S_3  and  C_4 
REMARK    4  A    between atoms: C_4  and  C_5 
REMARK       I    between atoms: C_11  and  N_12 
REMARK    5  A    between atoms: N_12  and  C_13 
REMARK    6  A    between atoms: C_15  and  C_16 
ROOT
HETATM    1  C   UNL     1      27.434  43.532  51.635  1.00  0.00     0.235 C 
HETATM    2  N   UNL     1      26.254  44.213  51.901  1.00  0.00    -0.326 N 
HETATM    3  O   UNL     1      27.658  42.864  50.629  1.00  0.00    -0.272 OA
HETATM    4  H   UNL     1      26.169  44.577  52.845  1.00  0.00     0.169 HD
ENDROOT
BRANCH   2   5
HETATM    5  C   UNL     1      25.122  44.338  51.068  1.00  0.00     0.035 A 
HETATM    6  C   UNL     1      24.755  45.524  50.425  1.00  0.00     0.042 A 
HETATM    7  C   UNL     1      23.606  45.589  49.618  1.00  0.00    -0.021 A 
HETATM    8  C   UNL     1      22.815  44.443  49.474  1.00  0.00     0.012 A 
HETATM    9  C   UNL     1      23.169  43.256  50.116  1.00  0.00     0.003 A 
HETATM   10  C   UNL     1      24.317  43.205  50.909  1.00  0.00     0.029 A 
BRANCH   7  11
HETATM   11  C   UNL     1      23.231  46.825  48.947  1.00  0.00     0.010 A 
HETATM   12  C   UNL     1      22.216  47.097  48.000  1.00  0.00     0.152 A 
HETATM   13  N   UNL     1      22.202  48.374  47.607  1.00  0.00    -0.187 NA
HETATM   14  N   UNL     1      23.209  48.927  48.302  1.00  0.00    -0.289 N 
HETATM   15  H   UNL     1      23.400  49.914  48.171  1.00  0.00     0.188 HD
HETATM   16  C   UNL     1      23.858  48.042  49.114  1.00  0.00     0.123 A 
ENDBRANCH   7  11
ENDBRANCH   2   5
BRANCH   1  17
HETATM   17  C   UNL     1      28.525  43.776  52.698  1.00  0.00     0.135 C 
HETATM   18  C   UNL     1      29.524  42.622  52.719  1.00  0.00     0.031 C 
BRANCH  17  19
HETATM   19  S   UNL     1      27.751  44.045  54.349  1.00  0.00    -0.150 SA
BRANCH  19  20
HETATM   20  C   UNL     1      28.697  45.499  54.903  1.00  0.00     0.113 C 
BRANCH  20  21
HETATM   21  C   UNL     1      29.658  45.158  56.014  1.00  0.00    -0.049 A 
HETATM   22  C   UNL     1      29.634  45.877  57.218  1.00  0.00     0.008 A 
HETATM   23  C   UNL     1      30.506  45.551  58.258  1.00  0.00     0.001 A 
HETATM   24  C   UNL     1      31.415  44.507  58.103  1.00  0.00     0.000 A 
HETATM   25  C   UNL     1      31.456  43.792  56.907  1.00  0.00     0.001 A 
HETATM   26  C   UNL     1      30.585  44.117  55.866  1.00  0.00     0.008 A 
ENDBRANCH  20  21
ENDBRANCH  19  20
ENDBRANCH  17  19
ENDBRANCH   1  17
TORSDOF 6
ENDMDL
MODEL 10
REMARK VINA RESULT:      -8.0      3.531      8.459
REMARK  6 active torsions:
REMARK  status: ('A' for Active; 'I' for Inactive)
REMARK    1  A    between atoms: C_2  and  S_3 
REMARK    2  A    between atoms: C_2  and  C_11 
REMARK    3  A    between atoms: S_3  and  C_4 
REMARK    4  A    between atoms: C_4  and  C_5 
REMARK       I    between atoms: C_11  and  N_12 
REMARK    5  A    between atoms: N_12  and  C_13 
REMARK    6  A    between atoms: C_15  and  C_16 
ROOT
HETATM    1  C   UNL     1      26.997  42.670  50.312  1.00  0.00     0.235 C 
HETATM    2  N   UNL     1      26.267  43.416  51.227  1.00  0.00    -0.326 N 
HETATM    3  O   UNL     1      27.260  43.015  49.163  1.00  0.00    -0.272 OA
HETATM    4  H   UNL     1      25.999  42.921  52.072  1.00  0.00     0.169 HD
ENDROOT
BRANCH   2   5
HETATM    5  C   UNL     1      25.747  44.718  51.063  1.00  0.00     0.035 A 
HETATM    6  C   UNL     1      24.809  45.064  50.085  1.00  0.00     0.042 A 
HETATM    7  C   UNL     1      24.340  46.383  49.961  1.00  0.00    -0.021 A 
HETATM    8  C   UNL     1      24.836  47.362  50.830  1.00  0.00     0.012 A 
HETATM    9  C   UNL     1      25.776  47.028  51.806  1.00  0.00     0.003 A 
HETATM   10  C   UNL     1      26.228  45.712  51.921  1.00  0.00     0.029 A 
BRANCH   7  11
HETATM   11  C   UNL     1      23.360  46.737  48.945  1.00  0.00     0.010 A 
HETATM   12  C   UNL     1      22.945  47.997  48.453  1.00  0.00     0.152 A 
HETATM   13  N   UNL     1      21.999  47.902  47.515  1.00  0.00    -0.187 NA
HETATM   14  N   UNL     1      21.804  46.579  47.400  1.00  0.00    -0.289 N 
HETATM   15  H   UNL     1      21.115  46.249  46.733  1.00  0.00     0.188 HD
HETATM   16  C   UNL     1      22.590  45.840  48.236  1.00  0.00     0.123 A 
ENDBRANCH   7  11
ENDBRANCH   2   5
BRANCH   1  17
HETATM   17  C   UNL     1      27.565  41.367  50.911  1.00  0.00     0.135 C 
HETATM   18  C   UNL     1      26.706  40.171  50.509  1.00  0.00     0.031 C 
BRANCH  17  19
HETATM   19  S   UNL     1      27.711  41.523  52.742  1.00  0.00    -0.150 SA
BRANCH  19  20
HETATM   20  C   UNL     1      29.413  42.160  52.864  1.00  0.00     0.113 C 
BRANCH  20  21
HETATM   21  C   UNL     1      29.548  43.203  53.945  1.00  0.00    -0.049 A 
HETATM   22  C   UNL     1      30.631  43.163  54.836  1.00  0.00     0.008 A 
HETATM   23  C   UNL     1      30.773  44.139  55.824  1.00  0.00     0.001 A 
HETATM   24  C   UNL     1      29.833  45.160  55.936  1.00  0.00     0.000 A 
HETATM   25  C   UNL     1      28.746  45.203  55.064  1.00  0.00     0.001 A 
HETATM   26  C   UNL     1      28.601  44.228  54.075  1.00  0.00     0.008 A 
ENDBRANCH  20  21
ENDBRANCH  19  20
ENDBRANCH  17  19
ENDBRANCH   1  17
TORSDOF 6
ENDMDL
