MODEL 1
REMARK VINA RESULT:      -9.8      0.000      0.000
REMARK  7 active torsions:
REMARK  status: ('A' for Active; 'I' for Inactive)
REMARK    1  A    between atoms: N_3  and  C_4 
REMARK    2  A    between atoms: C_12  and  C_13 
REMARK       I    between atoms: C_13  and  N_14 
REMARK    3  A    between atoms: N_14  and  C_15 
REMARK    4  A    between atoms: C_15  and  C_16 
REMARK    5  A    between atoms: C_17  and  C_18 
REMARK    6  A    between atoms: C_18  and  O_19 
REMARK    7  A    between atoms: O_19  and  C_20 
ROOT
HETATM    1  C   UNL     1      25.473  44.397  51.625  1.00  0.00     0.255 C 
HETATM    2  N   UNL     1      25.445  45.631  51.023  1.00  0.00    -0.346 N 
HETATM    3  O   UNL     1      24.516  43.631  51.620  1.00  0.00    -0.268 OA
HETATM    4  H   UNL     1      26.118  46.321  51.309  1.00  0.00     0.163 HD
ENDROOT
BRANCH   2   5
HETATM    5  C   UNL     1      24.286  46.087  50.298  1.00  0.00     0.217 C 
BRANCH   5   6
HETATM    6  C   UNL     1      24.497  47.430  49.754  1.00  0.00    -0.085 C 
HETATM    7  C   UNL     1      24.674  48.499  49.235  1.00  0.00    -0.078 C 
BRANCH   7   8
HETATM    8  C   UNL     1      24.887  49.765  48.517  1.00  0.00     0.269 C 
BRANCH   8   9
HETATM    9  O   UNL     1      23.966  49.823  47.426  1.00  0.00    -0.337 OA
BRANCH   9  10
HETATM   10  C   UNL     1      22.677  49.957  47.852  1.00  0.00     0.103 A 
HETATM   11  C   UNL     1      21.767  48.935  47.649  1.00  0.00     0.109 A 
HETATM   12  C   UNL     1      20.428  49.089  47.966  1.00  0.00    -0.019 A 
HETATM   13  O   UNL     1      22.070  47.709  47.117  1.00  0.00    -0.337 OA
HETATM   14  C   UNL     1      19.674  47.879  47.570  1.00  0.00     0.079 C 
HETATM   15  C   UNL     1      19.954  50.274  48.506  1.00  0.00     0.010 A 
HETATM   16  C   UNL     1      20.840  46.936  47.194  1.00  0.00     0.065 C 
HETATM   17  C   UNL     1      20.614  46.295  45.823  1.00  0.00     0.046 C 
HETATM   18  C   UNL     1      21.037  45.845  48.254  1.00  0.00     0.046 C 
HETATM   19  C   UNL     1      20.859  51.317  48.716  1.00  0.00     0.003 A 
HETATM   20  C   UNL     1      22.214  51.165  48.379  1.00  0.00     0.040 A 
ENDBRANCH   9  10
ENDBRANCH   8   9
ENDBRANCH   7   8
ENDBRANCH   5   6
ENDBRANCH   2   5
BRANCH   1  21
HETATM   21  C   UNL     1      26.724  44.028  52.268  1.00  0.00     0.075 C 
HETATM   22  C   UNL     1      27.050  43.843  53.613  1.00  0.00     0.050 C 
HETATM   23  C   UNL     1      26.188  43.760  54.822  1.00  0.00     0.071 C 
HETATM   24  N   UNL     1      28.448  43.793  53.650  1.00  0.00    -0.238 N 
HETATM   25  N   UNL     1      28.949  43.539  52.413  1.00  0.00    -0.179 NA
HETATM   26  C   UNL     1      27.942  43.820  51.590  1.00  0.00     0.158 C 
BRANCH  24  27
HETATM   27  C   UNL     1      29.356  44.028  54.728  1.00  0.00     0.058 A 
HETATM   28  C   UNL     1      29.258  45.226  55.454  1.00  0.00     0.031 A 
HETATM   29  C   UNL     1      30.101  45.465  56.542  1.00  0.00     0.002 A 
HETATM   30  C   UNL     1      31.037  44.507  56.925  1.00  0.00     0.000 A 
HETATM   31  C   UNL     1      31.124  43.305  56.227  1.00  0.00     0.002 A 
HETATM   32  C   UNL     1      30.283  43.060  55.137  1.00  0.00     0.031 A 
ENDBRANCH  24  27
ENDBRANCH   1  21
TORSDOF 7
ENDMDL
MODEL 2
REMARK VINA RESULT:      -9.6      2.577     10.661
REMARK  7 active torsions:
REMARK  status: ('A' for Active; 'I' for Inactive)
REMARK    1  A    between atoms: N_3  and  C_4 
REMARK    2  A    between atoms: C_12  and  C_13 
REMARK       I    between atoms: C_13  and  N_14 
REMARK    3  A    between atoms: N_14  and  C_15 
REMARK    4  A    between atoms: C_15  and  C_16 
REMARK    5  A    between atoms: C_17  and  C_18 
REMARK    6  A    between atoms: C_18  and  O_19 
REMARK    7  A    between atoms: O_19  and  C_20 
ROOT
HETATM    1  C   UNL     1      24.058  47.746  49.410  1.00  0.00     0.255 C 
HETATM    2  N   UNL     1      23.995  46.477  49.933  1.00  0.00    -0.346 N 
HETATM    3  O   UNL     1      25.103  48.381  49.325  1.00  0.00    -0.268 OA
HETATM    4  H   UNL     1      23.106  46.134  50.255  1.00  0.00     0.163 HD
ENDROOT
BRANCH   2   5
HETATM    5  C   UNL     1      25.180  45.788  50.376  1.00  0.00     0.217 C 
BRANCH   5   6
HETATM    6  C   UNL     1      25.638  46.303  51.668  1.00  0.00    -0.085 C 
HETATM    7  C   UNL     1      25.947  46.698  52.761  1.00  0.00    -0.078 C 
BRANCH   7   8
HETATM    8  C   UNL     1      26.248  47.141  54.131  1.00  0.00     0.269 C 
BRANCH   8   9
HETATM    9  O   UNL     1      26.361  45.984  54.961  1.00  0.00    -0.337 OA
BRANCH   9  10
HETATM   10  C   UNL     1      27.661  45.692  55.257  1.00  0.00     0.103 A 
HETATM   11  C   UNL     1      28.263  44.572  54.714  1.00  0.00     0.109 A 
HETATM   12  C   UNL     1      29.541  44.189  55.087  1.00  0.00    -0.019 A 
HETATM   13  O   UNL     1      27.684  43.737  53.794  1.00  0.00    -0.337 OA
HETATM   14  C   UNL     1      29.901  42.919  54.418  1.00  0.00     0.079 C 
HETATM   15  C   UNL     1      30.263  44.921  56.015  1.00  0.00     0.010 A 
HETATM   16  C   UNL     1      28.716  42.775  53.437  1.00  0.00     0.065 C 
HETATM   17  C   UNL     1      28.091  41.380  53.523  1.00  0.00     0.046 C 
HETATM   18  C   UNL     1      29.148  43.066  51.995  1.00  0.00     0.046 C 
HETATM   19  C   UNL     1      29.669  46.055  56.575  1.00  0.00     0.003 A 
HETATM   20  C   UNL     1      28.367  46.433  56.208  1.00  0.00     0.040 A 
ENDBRANCH   9  10
ENDBRANCH   8   9
ENDBRANCH   7   8
ENDBRANCH   5   6
ENDBRANCH   2   5
BRANCH   1  21
HETATM   21  C   UNL     1      22.801  48.305  48.938  1.00  0.00     0.075 C 
HETATM   22  C   UNL     1      22.346  49.623  48.871  1.00  0.00     0.050 C 
HETATM   23  C   UNL     1      23.061  50.912  49.068  1.00  0.00     0.071 C 
HETATM   24  N   UNL     1      20.974  49.526  48.615  1.00  0.00    -0.238 N 
HETATM   25  N   UNL     1      20.663  48.293  48.139  1.00  0.00    -0.179 NA
HETATM   26  C   UNL     1      21.713  47.544  48.466  1.00  0.00     0.158 C 
BRANCH  24  27
HETATM   27  C   UNL     1      19.920  50.465  48.840  1.00  0.00     0.058 A 
HETATM   28  C   UNL     1      18.996  50.221  49.869  1.00  0.00     0.031 A 
HETATM   29  C   UNL     1      17.983  51.142  50.144  1.00  0.00     0.002 A 
HETATM   30  C   UNL     1      17.890  52.320  49.407  1.00  0.00     0.000 A 
HETATM   31  C   UNL     1      18.817  52.583  48.401  1.00  0.00     0.002 A 
HETATM   32  C   UNL     1      19.834  51.665  48.121  1.00  0.00     0.031 A 
ENDBRANCH  24  27
ENDBRANCH   1  21
TORSDOF 7
ENDMDL
MODEL 3
REMARK VINA RESULT:      -9.5      1.862      2.858
REMARK  7 active torsions:
REMARK  status: ('A' for Active; 'I' for Inactive)
REMARK    1  A    between atoms: N_3  and  C_4 
REMARK    2  A    between atoms: C_12  and  C_13 
REMARK       I    between atoms: C_13  and  N_14 
REMARK    3  A    between atoms: N_14  and  C_15 
REMARK    4  A    between atoms: C_15  and  C_16 
REMARK    5  A    between atoms: C_17  and  C_18 
REMARK    6  A    between atoms: C_18  and  O_19 
REMARK    7  A    between atoms: O_19  and  C_20 
ROOT
HETATM    1  C   UNL     1      25.689  44.332  53.221  1.00  0.00     0.255 C 
HETATM    2  N   UNL     1      25.744  44.115  51.866  1.00  0.00    -0.346 N 
HETATM    3  O   UNL     1      24.686  44.114  53.891  1.00  0.00    -0.268 OA
HETATM    4  H   UNL     1      26.457  44.583  51.333  1.00  0.00     0.163 HD
ENDROOT
BRANCH   2   5
HETATM    5  C   UNL     1      24.623  43.565  51.148  1.00  0.00     0.217 C 
BRANCH   5   6
HETATM    6  C   UNL     1      24.052  44.549  50.226  1.00  0.00    -0.085 C 
HETATM    7  C   UNL     1      23.657  45.367  49.439  1.00  0.00    -0.078 C 
BRANCH   7   8
HETATM    8  C   UNL     1      23.259  46.372  48.441  1.00  0.00     0.269 C 
BRANCH   8   9
HETATM    9  O   UNL     1      22.211  47.166  48.999  1.00  0.00    -0.337 OA
BRANCH   9  10
HETATM   10  C   UNL     1      22.454  48.502  48.863  1.00  0.00     0.103 A 
HETATM   11  C   UNL     1      21.402  49.395  48.776  1.00  0.00     0.109 A 
HETATM   12  C   UNL     1      21.618  50.739  48.523  1.00  0.00    -0.019 A 
HETATM   13  O   UNL     1      20.079  49.065  48.909  1.00  0.00    -0.337 OA
HETATM   14  C   UNL     1      20.322  51.443  48.400  1.00  0.00     0.079 C 
HETATM   15  C   UNL     1      22.900  51.238  48.353  1.00  0.00     0.010 A 
HETATM   16  C   UNL     1      19.355  50.326  48.853  1.00  0.00     0.065 C 
HETATM   17  C   UNL     1      18.205  50.150  47.858  1.00  0.00     0.046 C 
HETATM   18  C   UNL     1      18.795  50.608  50.253  1.00  0.00     0.046 C 
HETATM   19  C   UNL     1      23.974  50.348  48.437  1.00  0.00     0.003 A 
HETATM   20  C   UNL     1      23.753  48.982  48.677  1.00  0.00     0.040 A 
ENDBRANCH   9  10
ENDBRANCH   8   9
ENDBRANCH   7   8
ENDBRANCH   5   6
ENDBRANCH   2   5
BRANCH   1  21
HETATM   21  C   UNL     1      26.909  44.829  53.839  1.00  0.00     0.075 C 
HETATM   22  C   UNL     1      28.066  44.169  54.256  1.00  0.00     0.050 C 
HETATM   23  C   UNL     1      28.528  42.774  54.028  1.00  0.00     0.071 C 
HETATM   24  N   UNL     1      28.761  45.100  55.036  1.00  0.00    -0.238 N 
HETATM   25  N   UNL     1      28.312  46.358  54.789  1.00  0.00    -0.179 NA
HETATM   26  C   UNL     1      27.136  46.173  54.196  1.00  0.00     0.158 C 
BRANCH  24  27
HETATM   27  C   UNL     1      29.760  44.907  56.038  1.00  0.00     0.058 A 
HETATM   28  C   UNL     1      29.754  45.731  57.176  1.00  0.00     0.031 A 
HETATM   29  C   UNL     1      30.690  45.538  58.195  1.00  0.00     0.002 A 
HETATM   30  C   UNL     1      31.629  44.513  58.098  1.00  0.00     0.000 A 
HETATM   31  C   UNL     1      31.627  43.675  56.985  1.00  0.00     0.002 A 
HETATM   32  C   UNL     1      30.693  43.864  55.961  1.00  0.00     0.031 A 
ENDBRANCH  24  27
ENDBRANCH   1  21
TORSDOF 7
ENDMDL
MODEL 4
REMARK VINA RESULT:      -9.0      1.452      2.908
REMARK  7 active torsions:
REMARK  status: ('A' for Active; 'I' for Inactive)
REMARK    1  A    between atoms: N_3  and  C_4 
REMARK    2  A    between atoms: C_12  and  C_13 
REMARK       I    between atoms: C_13  and  N_14 
REMARK    3  A    between atoms: N_14  and  C_15 
REMARK    4  A    between atoms: C_15  and  C_16 
REMARK    5  A    between atoms: C_17  and  C_18 
REMARK    6  A    between atoms: C_18  and  O_19 
REMARK    7  A    between atoms: O_19  and  C_20 
ROOT
HETATM    1  C   UNL     1      24.837  43.929  51.143  1.00  0.00     0.255 C 
HETATM    2  N   UNL     1      25.066  44.358  49.858  1.00  0.00    -0.346 N 
HETATM    3  O   UNL     1      23.945  43.141  51.433  1.00  0.00    -0.268 OA
HETATM    4  H   UNL     1      25.586  45.208  49.721  1.00  0.00     0.163 HD
ENDROOT
BRANCH   2   5
HETATM    5  C   UNL     1      24.288  43.863  48.752  1.00  0.00     0.217 C 
BRANCH   5   6
HETATM    6  C   UNL     1      23.182  44.769  48.436  1.00  0.00    -0.085 C 
HETATM    7  C   UNL     1      22.294  45.556  48.242  1.00  0.00    -0.078 C 
BRANCH   7   8
HETATM    8  C   UNL     1      21.239  46.567  48.075  1.00  0.00     0.269 C 
BRANCH   8   9
HETATM    9  O   UNL     1      21.714  47.566  47.170  1.00  0.00    -0.337 OA
BRANCH   9  10
HETATM   10  C   UNL     1      22.013  48.734  47.809  1.00  0.00     0.103 A 
HETATM   11  C   UNL     1      21.046  49.711  47.959  1.00  0.00     0.109 A 
HETATM   12  C   UNL     1      21.352  50.949  48.499  1.00  0.00    -0.019 A 
HETATM   13  O   UNL     1      19.733  49.580  47.592  1.00  0.00    -0.337 OA
HETATM   14  C   UNL     1      20.158  51.823  48.465  1.00  0.00     0.079 C 
HETATM   15  C   UNL     1      22.640  51.250  48.914  1.00  0.00     0.010 A 
HETATM   16  C   UNL     1      19.080  50.802  48.034  1.00  0.00     0.065 C 
HETATM   17  C   UNL     1      18.254  51.332  46.859  1.00  0.00     0.046 C 
HETATM   18  C   UNL     1      18.155  50.443  49.203  1.00  0.00     0.046 C 
HETATM   19  C   UNL     1      23.629  50.273  48.768  1.00  0.00     0.003 A 
HETATM   20  C   UNL     1      23.321  49.024  48.205  1.00  0.00     0.040 A 
ENDBRANCH   9  10
ENDBRANCH   8   9
ENDBRANCH   7   8
ENDBRANCH   5   6
ENDBRANCH   2   5
BRANCH   1  21
HETATM   21  C   UNL     1      25.734  44.454  52.161  1.00  0.00     0.075 C 
HETATM   22  C   UNL     1      27.126  44.429  52.265  1.00  0.00     0.050 C 
HETATM   23  C   UNL     1      28.170  44.043  51.279  1.00  0.00     0.071 C 
HETATM   24  N   UNL     1      27.404  44.816  53.581  1.00  0.00    -0.238 N 
HETATM   25  N   UNL     1      26.330  45.437  54.133  1.00  0.00    -0.179 NA
HETATM   26  C   UNL     1      25.315  45.094  53.345  1.00  0.00     0.158 C 
BRANCH  24  27
HETATM   27  C   UNL     1      28.562  44.593  54.387  1.00  0.00     0.058 A 
HETATM   28  C   UNL     1      28.965  45.587  55.293  1.00  0.00     0.031 A 
HETATM   29  C   UNL     1      30.067  45.381  56.127  1.00  0.00     0.002 A 
HETATM   30  C   UNL     1      30.766  44.177  56.077  1.00  0.00     0.000 A 
HETATM   31  C   UNL     1      30.358  43.175  55.200  1.00  0.00     0.002 A 
HETATM   32  C   UNL     1      29.257  43.376  54.362  1.00  0.00     0.031 A 
ENDBRANCH  24  27
ENDBRANCH   1  21
TORSDOF 7
ENDMDL
MODEL 5
REMARK VINA RESULT:      -8.9      2.925     11.248
REMARK  7 active torsions:
REMARK  status: ('A' for Active; 'I' for Inactive)
REMARK    1  A    between atoms: N_3  and  C_4 
REMARK    2  A    between atoms: C_12  and  C_13 
REMARK       I    between atoms: C_13  and  N_14 
REMARK    3  A    between atoms: N_14  and  C_15 
REMARK    4  A    between atoms: C_15  and  C_16 
REMARK    5  A    between atoms: C_17  and  C_18 
REMARK    6  A    between atoms: C_18  and  O_19 
REMARK    7  A    between atoms: O_19  and  C_20 
ROOT
HETATM    1  C   UNL     1      23.315  48.560  49.173  1.00  0.00     0.255 C 
HETATM    2  N   UNL     1      23.587  47.779  50.270  1.00  0.00    -0.346 N 
HETATM    3  O   UNL     1      24.087  48.675  48.228  1.00  0.00    -0.268 OA
HETATM    4  H   UNL     1      23.084  47.955  51.122  1.00  0.00     0.163 HD
ENDROOT
BRANCH   2   5
HETATM    5  C   UNL     1      24.796  46.999  50.354  1.00  0.00     0.217 C 
BRANCH   5   6
HETATM    6  C   UNL     1      25.393  47.093  51.688  1.00  0.00    -0.085 C 
HETATM    7  C   UNL     1      25.811  47.160  52.813  1.00  0.00    -0.078 C 
BRANCH   7   8
HETATM    8  C   UNL     1      26.237  47.222  54.220  1.00  0.00     0.269 C 
BRANCH   8   9
HETATM    9  O   UNL     1      26.376  45.885  54.705  1.00  0.00    -0.337 OA
BRANCH   9  10
HETATM   10  C   UNL     1      27.661  45.603  55.066  1.00  0.00     0.103 A 
HETATM   11  C   UNL     1      28.273  44.448  54.614  1.00  0.00     0.109 A 
HETATM   12  C   UNL     1      29.532  44.080  55.057  1.00  0.00    -0.019 A 
HETATM   13  O   UNL     1      27.721  43.562  53.726  1.00  0.00    -0.337 OA
HETATM   14  C   UNL     1      29.906  42.769  54.481  1.00  0.00     0.079 C 
HETATM   15  C   UNL     1      30.227  44.863  55.966  1.00  0.00     0.010 A 
HETATM   16  C   UNL     1      28.756  42.574  53.467  1.00  0.00     0.065 C 
HETATM   17  C   UNL     1      28.117  41.191  53.614  1.00  0.00     0.046 C 
HETATM   18  C   UNL     1      29.244  42.773  52.027  1.00  0.00     0.046 C 
HETATM   19  C   UNL     1      29.622  46.032  56.433  1.00  0.00     0.003 A 
HETATM   20  C   UNL     1      28.338  46.396  55.996  1.00  0.00     0.040 A 
ENDBRANCH   9  10
ENDBRANCH   8   9
ENDBRANCH   7   8
ENDBRANCH   5   6
ENDBRANCH   2   5
BRANCH   1  21
HETATM   21  C   UNL     1      22.032  49.246  49.180  1.00  0.00     0.075 C 
HETATM   22  C   UNL     1      20.758  48.821  48.802  1.00  0.00     0.050 C 
HETATM   23  C   UNL     1      20.244  47.469  48.459  1.00  0.00     0.071 C 
HETATM   24  N   UNL     1      19.983  49.985  48.745  1.00  0.00    -0.238 N 
HETATM   25  N   UNL     1      20.583  50.992  49.431  1.00  0.00    -0.179 NA
HETATM   26  C   UNL     1      21.845  50.590  49.560  1.00  0.00     0.158 C 
BRANCH  24  27
HETATM   27  C   UNL     1      18.765  50.254  48.049  1.00  0.00     0.058 A 
HETATM   28  C   UNL     1      18.823  50.695  46.716  1.00  0.00     0.031 A 
HETATM   29  C   UNL     1      17.649  50.923  45.994  1.00  0.00     0.002 A 
HETATM   30  C   UNL     1      16.408  50.699  46.587  1.00  0.00     0.000 A 
HETATM   31  C   UNL     1      16.341  50.237  47.900  1.00  0.00     0.002 A 
HETATM   32  C   UNL     1      17.513  50.008  48.628  1.00  0.00     0.031 A 
ENDBRANCH  24  27
ENDBRANCH   1  21
TORSDOF 7
ENDMDL
MODEL 6
REMARK VINA RESULT:      -8.8      1.605      2.964
REMARK  7 active torsions:
REMARK  status: ('A' for Active; 'I' for Inactive)
REMARK    1  A    between atoms: N_3  and  C_4 
REMARK    2  A    between atoms: C_12  and  C_13 
REMARK       I    between atoms: C_13  and  N_14 
REMARK    3  A    between atoms: N_14  and  C_15 
REMARK    4  A    between atoms: C_15  and  C_16 
REMARK    5  A    between atoms: C_17  and  C_18 
REMARK    6  A    between atoms: C_18  and  O_19 
REMARK    7  A    between atoms: O_19  and  C_20 
ROOT
HETATM    1  C   UNL     1      25.522  45.034  52.536  1.00  0.00     0.255 C 
HETATM    2  N   UNL     1      25.400  45.748  51.370  1.00  0.00    -0.346 N 
HETATM    3  O   UNL     1      24.745  44.141  52.855  1.00  0.00    -0.268 OA
HETATM    4  H   UNL     1      25.858  46.641  51.303  1.00  0.00     0.163 HD
ENDROOT
BRANCH   2   5
HETATM    5  C   UNL     1      24.362  45.455  50.415  1.00  0.00     0.217 C 
BRANCH   5   6
HETATM    6  C   UNL     1      23.960  46.660  49.686  1.00  0.00    -0.085 C 
HETATM    7  C   UNL     1      23.555  47.636  49.113  1.00  0.00    -0.078 C 
BRANCH   7   8
HETATM    8  C   UNL     1      22.977  48.815  48.450  1.00  0.00     0.269 C 
BRANCH   8   9
HETATM    9  O   UNL     1      22.175  48.366  47.355  1.00  0.00    -0.337 OA
BRANCH   9  10
HETATM   10  C   UNL     1      20.901  48.071  47.742  1.00  0.00     0.103 A 
HETATM   11  C   UNL     1      19.952  49.074  47.832  1.00  0.00     0.109 A 
HETATM   12  C   UNL     1      18.685  48.823  48.331  1.00  0.00    -0.019 A 
HETATM   13  O   UNL     1      20.152  50.379  47.467  1.00  0.00    -0.337 OA
HETATM   14  C   UNL     1      17.909  50.082  48.392  1.00  0.00     0.079 C 
HETATM   15  C   UNL     1      18.321  47.554  48.753  1.00  0.00     0.010 A 
HETATM   16  C   UNL     1      18.862  51.032  47.632  1.00  0.00     0.065 C 
HETATM   17  C   UNL     1      19.100  52.323  48.419  1.00  0.00     0.046 C 
HETATM   18  C   UNL     1      18.323  51.364  46.236  1.00  0.00     0.046 C 
HETATM   19  C   UNL     1      19.269  46.530  48.671  1.00  0.00     0.003 A 
HETATM   20  C   UNL     1      20.559  46.789  48.179  1.00  0.00     0.040 A 
ENDBRANCH   9  10
ENDBRANCH   8   9
ENDBRANCH   7   8
ENDBRANCH   5   6
ENDBRANCH   2   5
BRANCH   1  21
HETATM   21  C   UNL     1      26.650  45.383  53.385  1.00  0.00     0.075 C 
HETATM   22  C   UNL     1      27.900  44.784  53.550  1.00  0.00     0.050 C 
HETATM   23  C   UNL     1      28.577  43.713  52.771  1.00  0.00     0.071 C 
HETATM   24  N   UNL     1      28.442  45.371  54.698  1.00  0.00    -0.238 N 
HETATM   25  N   UNL     1      27.797  46.530  54.991  1.00  0.00    -0.179 NA
HETATM   26  C   UNL     1      26.662  46.453  54.301  1.00  0.00     0.158 C 
BRANCH  24  27
HETATM   27  C   UNL     1      29.466  44.908  55.581  1.00  0.00     0.058 A 
HETATM   28  C   UNL     1      29.717  45.618  56.767  1.00  0.00     0.031 A 
HETATM   29  C   UNL     1      30.680  45.165  57.672  1.00  0.00     0.002 A 
HETATM   30  C   UNL     1      31.387  43.994  57.413  1.00  0.00     0.000 A 
HETATM   31  C   UNL     1      31.127  43.269  56.253  1.00  0.00     0.002 A 
HETATM   32  C   UNL     1      30.165  43.718  55.342  1.00  0.00     0.031 A 
ENDBRANCH  24  27
ENDBRANCH   1  21
TORSDOF 7
ENDMDL
MODEL 7
REMARK VINA RESULT:      -8.6      2.099      3.788
REMARK  7 active torsions:
REMARK  status: ('A' for Active; 'I' for Inactive)
REMARK    1  A    between atoms: N_3  and  C_4 
REMARK    2  A    between atoms: C_12  and  C_13 
REMARK       I    between atoms: C_13  and  N_14 
REMARK    3  A    between atoms: N_14  and  C_15 
REMARK    4  A    between atoms: C_15  and  C_16 
REMARK    5  A    between atoms: C_17  and  C_18 
REMARK    6  A    between atoms: C_18  and  O_19 
REMARK    7  A    between atoms: O_19  and  C_20 
ROOT
HETATM    1  C   UNL     1      24.685  42.681  49.098  1.00  0.00     0.255 C 
HETATM    2  N   UNL     1      23.768  43.652  48.780  1.00  0.00    -0.346 N 
HETATM    3  O   UNL     1      24.525  41.497  48.824  1.00  0.00    -0.268 OA
HETATM    4  H   UNL     1      23.798  44.524  49.280  1.00  0.00     0.163 HD
ENDROOT
BRANCH   2   5
HETATM    5  C   UNL     1      22.564  43.338  48.053  1.00  0.00     0.217 C 
BRANCH   5   6
HETATM    6  C   UNL     1      21.714  44.521  47.903  1.00  0.00    -0.085 C 
HETATM    7  C   UNL     1      21.073  45.534  47.817  1.00  0.00    -0.078 C 
BRANCH   7   8
HETATM    8  C   UNL     1      20.358  46.818  47.752  1.00  0.00     0.269 C 
BRANCH   8   9
HETATM    9  O   UNL     1      20.417  47.430  49.042  1.00  0.00    -0.337 OA
BRANCH   9  10
HETATM   10  C   UNL     1      21.054  48.636  49.008  1.00  0.00     0.103 A 
HETATM   11  C   UNL     1      20.334  49.797  48.800  1.00  0.00     0.109 A 
HETATM   12  C   UNL     1      20.967  51.019  48.646  1.00  0.00    -0.019 A 
HETATM   13  O   UNL     1      18.969  49.869  48.709  1.00  0.00    -0.337 OA
HETATM   14  C   UNL     1      19.968  52.072  48.355  1.00  0.00     0.079 C 
HETATM   15  C   UNL     1      22.348  51.121  48.702  1.00  0.00     0.010 A 
HETATM   16  C   UNL     1      18.659  51.287  48.600  1.00  0.00     0.065 C 
HETATM   17  C   UNL     1      17.686  51.454  47.430  1.00  0.00     0.046 C 
HETATM   18  C   UNL     1      17.985  51.722  49.906  1.00  0.00     0.046 C 
HETATM   19  C   UNL     1      23.091  49.955  48.911  1.00  0.00     0.003 A 
HETATM   20  C   UNL     1      22.449  48.714  49.051  1.00  0.00     0.040 A 
ENDBRANCH   9  10
ENDBRANCH   8   9
ENDBRANCH   7   8
ENDBRANCH   5   6
ENDBRANCH   2   5
BRANCH   1  21
HETATM   21  C   UNL     1      25.890  43.137  49.775  1.00  0.00     0.075 C 
HETATM   22  C   UNL     1      26.732  42.499  50.687  1.00  0.00     0.050 C 
HETATM   23  C   UNL     1      26.803  41.077  51.118  1.00  0.00     0.071 C 
HETATM   24  N   UNL     1      27.540  43.512  51.213  1.00  0.00    -0.238 N 
HETATM   25  N   UNL     1      27.513  44.608  50.412  1.00  0.00    -0.179 NA
HETATM   26  C   UNL     1      26.437  44.430  49.652  1.00  0.00     0.158 C 
BRANCH  24  27
HETATM   27  C   UNL     1      28.281  43.567  52.434  1.00  0.00     0.058 A 
HETATM   28  C   UNL     1      29.514  42.901  52.516  1.00  0.00     0.031 A 
HETATM   29  C   UNL     1      30.282  42.973  53.680  1.00  0.00     0.002 A 
HETATM   30  C   UNL     1      29.837  43.723  54.766  1.00  0.00     0.000 A 
HETATM   31  C   UNL     1      28.627  44.408  54.686  1.00  0.00     0.002 A 
HETATM   32  C   UNL     1      27.853  44.339  53.523  1.00  0.00     0.031 A 
ENDBRANCH  24  27
ENDBRANCH   1  21
TORSDOF 7
ENDMDL
MODEL 8
REMARK VINA RESULT:      -8.4      3.140     11.039
REMARK  7 active torsions:
REMARK  status: ('A' for Active; 'I' for Inactive)
REMARK    1  A    between atoms: N_3  and  C_4 
REMARK    2  A    between atoms: C_12  and  C_13 
REMARK       I    between atoms: C_13  and  N_14 
REMARK    3  A    between atoms: N_14  and  C_15 
REMARK    4  A    between atoms: C_15  and  C_16 
REMARK    5  A    between atoms: C_17  and  C_18 
REMARK    6  A    between atoms: C_18  and  O_19 
REMARK    7  A    between atoms: O_19  and  C_20 
ROOT
HETATM    1  C   UNL     1      22.921  49.937  48.073  1.00  0.00     0.255 C 
HETATM    2  N   UNL     1      23.557  49.276  49.095  1.00  0.00    -0.346 N 
HETATM    3  O   UNL     1      23.506  50.342  47.075  1.00  0.00    -0.268 OA
HETATM    4  H   UNL     1      23.111  49.241  49.996  1.00  0.00     0.163 HD
ENDROOT
BRANCH   2   5
HETATM    5  C   UNL     1      24.964  48.973  49.032  1.00  0.00     0.217 C 
BRANCH   5   6
HETATM    6  C   UNL     1      25.258  47.690  49.672  1.00  0.00    -0.085 C 
HETATM    7  C   UNL     1      25.455  46.660  50.260  1.00  0.00    -0.078 C 
BRANCH   7   8
HETATM    8  C   UNL     1      25.640  45.430  51.046  1.00  0.00     0.269 C 
BRANCH   8   9
HETATM    9  O   UNL     1      25.152  45.666  52.368  1.00  0.00    -0.337 OA
BRANCH   9  10
HETATM   10  C   UNL     1      26.149  46.038  53.222  1.00  0.00     0.103 A 
HETATM   11  C   UNL     1      27.139  45.138  53.569  1.00  0.00     0.109 A 
HETATM   12  C   UNL     1      28.096  45.452  54.521  1.00  0.00    -0.019 A 
HETATM   13  O   UNL     1      27.275  43.879  53.047  1.00  0.00    -0.337 OA
HETATM   14  C   UNL     1      28.974  44.284  54.756  1.00  0.00     0.079 C 
HETATM   15  C   UNL     1      28.096  46.684  55.154  1.00  0.00     0.010 A 
HETATM   16  C   UNL     1      28.502  43.349  53.619  1.00  0.00     0.065 C 
HETATM   17  C   UNL     1      28.192  41.946  54.150  1.00  0.00     0.046 C 
HETATM   18  C   UNL     1      29.545  43.264  52.498  1.00  0.00     0.046 C 
HETATM   19  C   UNL     1      27.101  47.605  54.815  1.00  0.00     0.003 A 
HETATM   20  C   UNL     1      26.122  47.280  53.862  1.00  0.00     0.040 A 
ENDBRANCH   9  10
ENDBRANCH   8   9
ENDBRANCH   7   8
ENDBRANCH   5   6
ENDBRANCH   2   5
BRANCH   1  21
HETATM   21  C   UNL     1      21.486  50.124  48.228  1.00  0.00     0.075 C 
HETATM   22  C   UNL     1      20.428  49.216  48.172  1.00  0.00     0.050 C 
HETATM   23  C   UNL     1      20.420  47.729  48.141  1.00  0.00     0.071 C 
HETATM   24  N   UNL     1      19.272  50.001  48.095  1.00  0.00    -0.238 N 
HETATM   25  N   UNL     1      19.533  51.273  48.494  1.00  0.00    -0.179 NA
HETATM   26  C   UNL     1      20.858  51.368  48.433  1.00  0.00     0.158 C 
BRANCH  24  27
HETATM   27  C   UNL     1      17.964  49.681  47.618  1.00  0.00     0.058 A 
HETATM   28  C   UNL     1      17.764  49.511  46.238  1.00  0.00     0.031 A 
HETATM   29  C   UNL     1      16.507  49.154  45.744  1.00  0.00     0.002 A 
HETATM   30  C   UNL     1      15.444  48.947  46.620  1.00  0.00     0.000 A 
HETATM   31  C   UNL     1      15.639  49.087  47.992  1.00  0.00     0.002 A 
HETATM   32  C   UNL     1      16.895  49.446  48.493  1.00  0.00     0.031 A 
ENDBRANCH  24  27
ENDBRANCH   1  21
TORSDOF 7
ENDMDL
MODEL 9
REMARK VINA RESULT:      -8.4      1.659      3.100
REMARK  7 active torsions:
REMARK  status: ('A' for Active; 'I' for Inactive)
REMARK    1  A    between atoms: N_3  and  C_4 
REMARK    2  A    between atoms: C_12  and  C_13 
REMARK       I    between atoms: C_13  and  N_14 
REMARK    3  A    between atoms: N_14  and  C_15 
REMARK    4  A    between atoms: C_15  and  C_16 
REMARK    5  A    between atoms: C_17  and  C_18 
REMARK    6  A    between atoms: C_18  and  O_19 
REMARK    7  A    between atoms: O_19  and  C_20 
ROOT
HETATM    1  C   UNL     1      25.018  43.931  51.772  1.00  0.00     0.255 C 
HETATM    2  N   UNL     1      24.657  43.035  50.796  1.00  0.00    -0.346 N 
HETATM    3  O   UNL     1      24.265  44.805  52.186  1.00  0.00    -0.268 OA
HETATM    4  H   UNL     1      25.383  42.556  50.291  1.00  0.00     0.163 HD
ENDROOT
BRANCH   2   5
HETATM    5  C   UNL     1      23.335  43.040  50.224  1.00  0.00     0.217 C 
BRANCH   5   6
HETATM    6  C   UNL     1      23.068  44.298  49.522  1.00  0.00    -0.085 C 
HETATM    7  C   UNL     1      22.917  45.358  48.976  1.00  0.00    -0.078 C 
BRANCH   7   8
HETATM    8  C   UNL     1      22.817  46.679  48.337  1.00  0.00     0.269 C 
BRANCH   8   9
HETATM    9  O   UNL     1      21.655  47.336  48.847  1.00  0.00    -0.337 OA
BRANCH   9  10
HETATM   10  C   UNL     1      20.791  47.692  47.852  1.00  0.00     0.103 A 
HETATM   11  C   UNL     1      19.987  48.808  47.996  1.00  0.00     0.109 A 
HETATM   12  C   UNL     1      19.022  49.125  47.055  1.00  0.00    -0.019 A 
HETATM   13  O   UNL     1      20.038  49.682  49.049  1.00  0.00    -0.337 OA
HETATM   14  C   UNL     1      18.257  50.312  47.499  1.00  0.00     0.079 C 
HETATM   15  C   UNL     1      18.833  48.337  45.931  1.00  0.00     0.010 A 
HETATM   16  C   UNL     1      19.098  50.743  48.721  1.00  0.00     0.065 C 
HETATM   17  C   UNL     1      18.214  50.968  49.951  1.00  0.00     0.046 C 
HETATM   18  C   UNL     1      19.908  52.010  48.421  1.00  0.00     0.046 C 
HETATM   19  C   UNL     1      19.637  47.205  45.771  1.00  0.00     0.003 A 
HETATM   20  C   UNL     1      20.604  46.875  46.734  1.00  0.00     0.040 A 
ENDBRANCH   9  10
ENDBRANCH   8   9
ENDBRANCH   7   8
ENDBRANCH   5   6
ENDBRANCH   2   5
BRANCH   1  21
HETATM   21  C   UNL     1      26.359  43.779  52.315  1.00  0.00     0.075 C 
HETATM   22  C   UNL     1      26.808  43.582  53.621  1.00  0.00     0.050 C 
HETATM   23  C   UNL     1      26.065  43.258  54.868  1.00  0.00     0.071 C 
HETATM   24  N   UNL     1      28.188  43.807  53.575  1.00  0.00    -0.238 N 
HETATM   25  N   UNL     1      28.641  43.732  52.297  1.00  0.00    -0.179 NA
HETATM   26  C   UNL     1      27.544  43.857  51.555  1.00  0.00     0.158 C 
BRANCH  24  27
HETATM   27  C   UNL     1      29.107  44.152  54.614  1.00  0.00     0.058 A 
HETATM   28  C   UNL     1      30.079  43.217  55.004  1.00  0.00     0.031 A 
HETATM   29  C   UNL     1      31.019  43.541  55.985  1.00  0.00     0.002 A 
HETATM   30  C   UNL     1      31.010  44.804  56.573  1.00  0.00     0.000 A 
HETATM   31  C   UNL     1      30.066  45.748  56.174  1.00  0.00     0.002 A 
HETATM   32  C   UNL     1      29.121  45.428  55.193  1.00  0.00     0.031 A 
ENDBRANCH  24  27
ENDBRANCH   1  21
TORSDOF 7
ENDMDL
MODEL 10
REMARK VINA RESULT:      -8.4      3.286     10.822
REMARK  7 active torsions:
REMARK  status: ('A' for Active; 'I' for Inactive)
REMARK    1  A    between atoms: N_3  and  C_4 
REMARK    2  A    between atoms: C_12  and  C_13 
REMARK       I    between atoms: C_13  and  N_14 
REMARK    3  A    between atoms: N_14  and  C_15 
REMARK    4  A    between atoms: C_15  and  C_16 
REMARK    5  A    between atoms: C_17  and  C_18 
REMARK    6  A    between atoms: C_18  and  O_19 
REMARK    7  A    between atoms: O_19  and  C_20 
ROOT
HETATM    1  C   UNL     1      22.048  48.469  48.429  1.00  0.00     0.255 C 
HETATM    2  N   UNL     1      21.463  47.318  47.962  1.00  0.00    -0.346 N 
HETATM    3  O   UNL     1      23.256  48.580  48.604  1.00  0.00    -0.268 OA
HETATM    4  H   UNL     1      20.481  47.178  48.125  1.00  0.00     0.163 HD
ENDROOT
BRANCH   2   5
HETATM    5  C   UNL     1      22.253  46.168  47.601  1.00  0.00     0.217 C 
BRANCH   5   6
HETATM    6  C   UNL     1      22.975  45.637  48.759  1.00  0.00    -0.085 C 
HETATM    7  C   UNL     1      23.575  45.133  49.670  1.00  0.00    -0.078 C 
BRANCH   7   8
HETATM    8  C   UNL     1      24.322  44.441  50.731  1.00  0.00     0.269 C 
BRANCH   8   9
HETATM    9  O   UNL     1      25.692  44.840  50.647  1.00  0.00    -0.337 OA
BRANCH   9  10
HETATM   10  C   UNL     1      26.156  45.329  51.834  1.00  0.00     0.103 A 
HETATM   11  C   UNL     1      27.013  44.570  52.611  1.00  0.00     0.109 A 
HETATM   12  C   UNL     1      27.406  44.992  53.870  1.00  0.00    -0.019 A 
HETATM   13  O   UNL     1      27.537  43.358  52.247  1.00  0.00    -0.337 OA
HETATM   14  C   UNL     1      28.250  43.957  54.507  1.00  0.00     0.079 C 
HETATM   15  C   UNL     1      26.959  46.195  54.393  1.00  0.00     0.010 A 
HETATM   16  C   UNL     1      28.455  42.994  53.316  1.00  0.00     0.065 C 
HETATM   17  C   UNL     1      28.145  41.548  53.713  1.00  0.00     0.046 C 
HETATM   18  C   UNL     1      29.881  43.089  52.761  1.00  0.00     0.046 C 
HETATM   19  C   UNL     1      26.091  46.972  53.621  1.00  0.00     0.003 A 
HETATM   20  C   UNL     1      25.680  46.536  52.351  1.00  0.00     0.040 A 
ENDBRANCH   9  10
ENDBRANCH   8   9
ENDBRANCH   7   8
ENDBRANCH   5   6
ENDBRANCH   2   5
BRANCH   1  21
HETATM   21  C   UNL     1      21.147  49.580  48.696  1.00  0.00     0.075 C 
HETATM   22  C   UNL     1      19.935  49.639  49.385  1.00  0.00     0.050 C 
HETATM   23  C   UNL     1      19.256  48.638  50.249  1.00  0.00     0.071 C 
HETATM   24  N   UNL     1      19.388  50.886  49.063  1.00  0.00    -0.238 N 
HETATM   25  N   UNL     1      20.345  51.713  48.568  1.00  0.00    -0.179 NA
HETATM   26  C   UNL     1      21.337  50.895  48.226  1.00  0.00     0.158 C 
BRANCH  24  27
HETATM   27  C   UNL     1      18.037  51.347  49.115  1.00  0.00     0.058 A 
HETATM   28  C   UNL     1      17.049  50.648  48.402  1.00  0.00     0.031 A 
HETATM   29  C   UNL     1      15.712  51.047  48.469  1.00  0.00     0.002 A 
HETATM   30  C   UNL     1      15.345  52.134  49.259  1.00  0.00     0.000 A 
HETATM   31  C   UNL     1      16.314  52.818  49.990  1.00  0.00     0.002 A 
HETATM   32  C   UNL     1      17.654  52.424  49.926  1.00  0.00     0.031 A 
ENDBRANCH  24  27
ENDBRANCH   1  21
TORSDOF 7
ENDMDL
