MODEL 1
REMARK VINA RESULT:      -9.8      0.000      0.000
REMARK  11 active torsions:
REMARK  status: ('A' for Active; 'I' for Inactive)
REMARK    1  A    between atoms: C_2  and  O_3 
REMARK    2  A    between atoms: C_2  and  C_4 
REMARK    3  A    between atoms: C_8  and  C_9 
REMARK    4  A    between atoms: C_12  and  C_13 
REMARK    5  A    between atoms: C_13  and  C_14 
REMARK    6  A    between atoms: C_14  and  N_15 
REMARK    7  A    between atoms: C_14  and  C_29 
REMARK       I    between atoms: N_15  and  C_16 
REMARK    8  A    between atoms: C_16  and  C_17 
REMARK    9  A    between atoms: C_21  and  O_22 
REMARK   10  A    between atoms: O_22  and  C_23 
REMARK   11  A    between atoms: C_29  and  N_30 
ROOT
HETATM    1  C   UNL     1      25.755  42.635  50.816  1.00  0.00     0.114 C 
ENDROOT
BRANCH   1   2
HETATM    2  C   UNL     1      26.007  43.440  49.519  1.00  0.00     0.065 C 
BRANCH   2   3
HETATM    3  C   UNL     1      25.109  44.626  49.293  1.00  0.00    -0.056 A 
HETATM    4  C   UNL     1      23.887  44.494  48.624  1.00  0.00     0.008 A 
HETATM    5  C   UNL     1      23.036  45.597  48.488  1.00  0.00     0.014 A 
HETATM    6  C   UNL     1      23.381  46.847  49.019  1.00  0.00    -0.006 A 
HETATM    7  C   UNL     1      24.619  46.978  49.661  1.00  0.00     0.014 A 
HETATM    8  C   UNL     1      25.472  45.879  49.800  1.00  0.00     0.008 A 
BRANCH   6   9
HETATM    9  C   UNL     1      22.443  47.958  48.927  1.00  0.00     0.085 A 
HETATM   10  C   UNL     1      22.743  49.245  48.533  1.00  0.00     0.130 A 
HETATM   11  N   UNL     1      21.576  49.953  48.652  1.00  0.00    -0.315 N 
HETATM   12  C   UNL     1      20.608  49.067  49.109  1.00  0.00     0.143 A 
HETATM   13  C   UNL     1      21.338  51.298  48.393  1.00  0.00     0.098 A 
HETATM   14  C   UNL     1      19.275  49.574  49.327  1.00  0.00     0.017 A 
HETATM   15  N   UNL     1      21.115  47.858  49.276  1.00  0.00    -0.228 NA
HETATM   16  C   UNL     1      19.060  50.887  49.058  1.00  0.00     0.015 A 
HETATM   17  C   UNL     1      20.104  51.785  48.587  1.00  0.00     0.018 A 
BRANCH  14  18
HETATM   18  C   UNL     1      18.152  48.672  49.816  1.00  0.00     0.150 C 
HETATM   19  C   UNL     1      17.602  47.802  48.691  1.00  0.00     0.044 C 
BRANCH  18  20
HETATM   20  O   UNL     1      18.607  47.818  50.868  1.00  0.00    -0.391 OA
HETATM   21  H   UNL     1      19.506  48.105  51.100  1.00  0.00     0.210 HD
ENDBRANCH  18  20
ENDBRANCH  14  18
ENDBRANCH   6   9
ENDBRANCH   2   3
ENDBRANCH   1   2
BRANCH   1  22
HETATM   22  N   UNL     1      26.632  43.223  51.859  1.00  0.00    -0.350 N 
HETATM   23  C   UNL     1      26.230  43.960  52.949  1.00  0.00     0.252 C 
HETATM   24  O   UNL     1      25.045  44.144  53.208  1.00  0.00    -0.268 OA
HETATM   25  H   UNL     1      27.598  43.369  51.576  1.00  0.00     0.163 HD
BRANCH  23  26
HETATM   26  C   UNL     1      27.308  44.525  53.811  1.00  0.00     0.033 A 
HETATM   27  C   UNL     1      28.385  43.706  54.159  1.00  0.00     0.043 A 
HETATM   28  C   UNL     1      29.411  44.208  54.969  1.00  0.00     0.068 A 
HETATM   29 CL   UNL     1      30.708  43.139  55.372  1.00  0.00    -0.081 Cl
HETATM   30  C   UNL     1      29.377  45.529  55.446  1.00  0.00     0.091 A 
HETATM   31  C   UNL     1      28.314  46.351  55.064  1.00  0.00     0.039 A 
HETATM   32  C   UNL     1      27.288  45.855  54.249  1.00  0.00     0.020 A 
BRANCH  30  33
HETATM   33  O   UNL     1      30.420  45.928  56.236  1.00  0.00    -0.345 OA
BRANCH  33  34
HETATM   34  C   UNL     1      30.238  46.068  57.651  1.00  0.00     0.121 C 
HETATM   35  C   UNL     1      28.755  45.997  58.009  1.00  0.00     0.040 C 
HETATM   36  C   UNL     1      30.986  44.908  58.305  1.00  0.00     0.040 C 
ENDBRANCH  33  34
ENDBRANCH  30  33
ENDBRANCH  23  26
ENDBRANCH   1  22
BRANCH   1  37
HETATM   37  C   UNL     1      25.981  41.115  50.571  1.00  0.00     0.254 C 
BRANCH  37  38
HETATM   38  N   UNL     1      26.681  40.468  51.710  1.00  0.00    -0.077 N 
HETATM   39  H   UNL     1      27.351  41.147  52.134  1.00  0.00     0.274 HD
HETATM   40  H   UNL     1      26.049  40.193  52.470  1.00  0.00     0.274 HD
HETATM   41  H   UNL     1      27.235  39.654  51.428  1.00  0.00     0.274 HD
ENDBRANCH  37  38
ENDBRANCH   1  37
TORSDOF 11
ENDMDL
MODEL 2
REMARK VINA RESULT:      -9.3      1.832      2.575
REMARK  11 active torsions:
REMARK  status: ('A' for Active; 'I' for Inactive)
REMARK    1  A    between atoms: C_2  and  O_3 
REMARK    2  A    between atoms: C_2  and  C_4 
REMARK    3  A    between atoms: C_8  and  C_9 
REMARK    4  A    between atoms: C_12  and  C_13 
REMARK    5  A    between atoms: C_13  and  C_14 
REMARK    6  A    between atoms: C_14  and  N_15 
REMARK    7  A    between atoms: C_14  and  C_29 
REMARK       I    between atoms: N_15  and  C_16 
REMARK    8  A    between atoms: C_16  and  C_17 
REMARK    9  A    between atoms: C_21  and  O_22 
REMARK   10  A    between atoms: O_22  and  C_23 
REMARK   11  A    between atoms: C_29  and  N_30 
ROOT
HETATM    1  C   UNL     1      25.476  42.371  50.620  1.00  0.00     0.114 C 
ENDROOT
BRANCH   1   2
HETATM    2  C   UNL     1      25.732  43.302  49.411  1.00  0.00     0.065 C 
BRANCH   2   3
HETATM    3  C   UNL     1      24.620  44.254  49.063  1.00  0.00    -0.056 A 
HETATM    4  C   UNL     1      24.565  45.539  49.613  1.00  0.00     0.008 A 
HETATM    5  C   UNL     1      23.561  46.432  49.221  1.00  0.00     0.014 A 
HETATM    6  C   UNL     1      22.598  46.064  48.271  1.00  0.00    -0.006 A 
HETATM    7  C   UNL     1      22.642  44.767  47.747  1.00  0.00     0.014 A 
HETATM    8  C   UNL     1      23.643  43.872  48.135  1.00  0.00     0.008 A 
BRANCH   6   9
HETATM    9  C   UNL     1      21.610  47.038  47.827  1.00  0.00     0.085 A 
HETATM   10  C   UNL     1      20.612  46.820  46.900  1.00  0.00     0.130 A 
HETATM   11  N   UNL     1      19.966  48.020  46.757  1.00  0.00    -0.315 N 
HETATM   12  C   UNL     1      20.594  48.923  47.607  1.00  0.00     0.143 A 
HETATM   13  C   UNL     1      18.894  48.344  45.934  1.00  0.00     0.098 A 
HETATM   14  C   UNL     1      20.101  50.278  47.637  1.00  0.00     0.017 A 
HETATM   15  N   UNL     1      21.585  48.345  48.262  1.00  0.00    -0.228 NA
HETATM   16  C   UNL     1      19.047  50.572  46.834  1.00  0.00     0.015 A 
HETATM   17  C   UNL     1      18.421  49.599  45.952  1.00  0.00     0.018 A 
BRANCH  14  18
HETATM   18  C   UNL     1      20.722  51.329  48.545  1.00  0.00     0.150 C 
HETATM   19  C   UNL     1      20.178  51.232  49.967  1.00  0.00     0.044 C 
BRANCH  18  20
HETATM   20  O   UNL     1      22.144  51.185  48.593  1.00  0.00    -0.391 OA
HETATM   21  H   UNL     1      22.526  52.025  48.287  1.00  0.00     0.210 HD
ENDBRANCH  18  20
ENDBRANCH  14  18
ENDBRANCH   6   9
ENDBRANCH   2   3
ENDBRANCH   1   2
BRANCH   1  22
HETATM   22  N   UNL     1      26.449  42.759  51.671  1.00  0.00    -0.350 N 
HETATM   23  C   UNL     1      26.216  43.601  52.734  1.00  0.00     0.252 C 
HETATM   24  O   UNL     1      25.105  44.069  52.960  1.00  0.00    -0.268 OA
HETATM   25  H   UNL     1      27.427  42.662  51.408  1.00  0.00     0.163 HD
BRANCH  23  26
HETATM   26  C   UNL     1      27.382  43.914  53.610  1.00  0.00     0.033 A 
HETATM   27  C   UNL     1      27.293  45.004  54.478  1.00  0.00     0.043 A 
HETATM   28  C   UNL     1      28.373  45.324  55.310  1.00  0.00     0.068 A 
HETATM   29 CL   UNL     1      28.202  46.693  56.353  1.00  0.00    -0.081 Cl
HETATM   30  C   UNL     1      29.555  44.566  55.288  1.00  0.00     0.091 A 
HETATM   31  C   UNL     1      29.621  43.456  54.442  1.00  0.00     0.039 A 
HETATM   32  C   UNL     1      28.542  43.129  53.611  1.00  0.00     0.020 A 
BRANCH  30  33
HETATM   33  O   UNL     1      30.558  44.958  56.131  1.00  0.00    -0.345 OA
BRANCH  33  34
HETATM   34  C   UNL     1      30.800  44.236  57.345  1.00  0.00     0.121 C 
HETATM   35  C   UNL     1      32.053  43.373  57.213  1.00  0.00     0.040 C 
HETATM   36  C   UNL     1      31.001  45.280  58.441  1.00  0.00     0.040 C 
ENDBRANCH  33  34
ENDBRANCH  30  33
ENDBRANCH  23  26
ENDBRANCH   1  22
BRANCH   1  37
HETATM   37  C   UNL     1      25.560  40.878  50.189  1.00  0.00     0.254 C 
BRANCH  37  38
HETATM   38  N   UNL     1      26.260  40.048  51.203  1.00  0.00    -0.077 N 
HETATM   39  H   UNL     1      26.452  40.626  52.050  1.00  0.00     0.274 HD
HETATM   40  H   UNL     1      25.699  39.253  51.531  1.00  0.00     0.274 HD
HETATM   41  H   UNL     1      27.167  39.700  50.877  1.00  0.00     0.274 HD
ENDBRANCH  37  38
ENDBRANCH   1  37
TORSDOF 11
ENDMDL
MODEL 3
REMARK VINA RESULT:      -9.1      1.334      1.870
REMARK  11 active torsions:
REMARK  status: ('A' for Active; 'I' for Inactive)
REMARK    1  A    between atoms: C_2  and  O_3 
REMARK    2  A    between atoms: C_2  and  C_4 
REMARK    3  A    between atoms: C_8  and  C_9 
REMARK    4  A    between atoms: C_12  and  C_13 
REMARK    5  A    between atoms: C_13  and  C_14 
REMARK    6  A    between atoms: C_14  and  N_15 
REMARK    7  A    between atoms: C_14  and  C_29 
REMARK       I    between atoms: N_15  and  C_16 
REMARK    8  A    between atoms: C_16  and  C_17 
REMARK    9  A    between atoms: C_21  and  O_22 
REMARK   10  A    between atoms: O_22  and  C_23 
REMARK   11  A    between atoms: C_29  and  N_30 
ROOT
HETATM    1  C   UNL     1      25.320  43.227  50.844  1.00  0.00     0.114 C 
ENDROOT
BRANCH   1   2
HETATM    2  C   UNL     1      25.489  44.155  49.618  1.00  0.00     0.065 C 
BRANCH   2   3
HETATM    3  C   UNL     1      24.322  45.052  49.303  1.00  0.00    -0.056 A 
HETATM    4  C   UNL     1      24.375  46.428  49.554  1.00  0.00     0.008 A 
HETATM    5  C   UNL     1      23.305  47.252  49.188  1.00  0.00     0.014 A 
HETATM    6  C   UNL     1      22.168  46.725  48.559  1.00  0.00    -0.006 A 
HETATM    7  C   UNL     1      22.111  45.344  48.338  1.00  0.00     0.014 A 
HETATM    8  C   UNL     1      23.177  44.516  48.701  1.00  0.00     0.008 A 
BRANCH   6   9
HETATM    9  C   UNL     1      21.103  47.618  48.121  1.00  0.00     0.085 A 
HETATM   10  C   UNL     1      20.523  47.639  46.870  1.00  0.00     0.130 A 
HETATM   11  N   UNL     1      19.616  48.666  46.896  1.00  0.00    -0.315 N 
HETATM   12  C   UNL     1      19.676  49.228  48.166  1.00  0.00     0.143 A 
HETATM   13  C   UNL     1      18.777  49.119  45.885  1.00  0.00     0.098 A 
HETATM   14  C   UNL     1      18.813  50.348  48.451  1.00  0.00     0.017 A 
HETATM   15  N   UNL     1      20.566  48.604  48.918  1.00  0.00    -0.228 NA
HETATM   16  C   UNL     1      17.993  50.769  47.454  1.00  0.00     0.015 A 
HETATM   17  C   UNL     1      17.966  50.157  46.135  1.00  0.00     0.018 A 
BRANCH  14  18
HETATM   18  C   UNL     1      18.806  51.018  49.817  1.00  0.00     0.150 C 
HETATM   19  C   UNL     1      17.879  52.230  49.842  1.00  0.00     0.044 C 
BRANCH  18  20
HETATM   20  O   UNL     1      18.383  50.103  50.831  1.00  0.00    -0.391 OA
HETATM   21  H   UNL     1      18.273  49.236  50.405  1.00  0.00     0.210 HD
ENDBRANCH  18  20
ENDBRANCH  14  18
ENDBRANCH   6   9
ENDBRANCH   2   3
ENDBRANCH   1   2
BRANCH   1  22
HETATM   22  N   UNL     1      26.280  43.699  51.872  1.00  0.00    -0.350 N 
HETATM   23  C   UNL     1      25.968  44.306  53.068  1.00  0.00     0.252 C 
HETATM   24  O   UNL     1      24.808  44.450  53.440  1.00  0.00    -0.268 OA
HETATM   25  H   UNL     1      27.219  43.884  51.531  1.00  0.00     0.163 HD
BRANCH  23  26
HETATM   26  C   UNL     1      27.114  44.778  53.898  1.00  0.00     0.033 A 
HETATM   27  C   UNL     1      28.161  43.892  54.159  1.00  0.00     0.043 A 
HETATM   28  C   UNL     1      29.249  44.306  54.938  1.00  0.00     0.068 A 
HETATM   29 CL   UNL     1      30.506  43.156  55.232  1.00  0.00    -0.081 Cl
HETATM   30  C   UNL     1      29.306  45.604  55.470  1.00  0.00     0.091 A 
HETATM   31  C   UNL     1      28.271  46.494  55.175  1.00  0.00     0.039 A 
HETATM   32  C   UNL     1      27.183  46.087  54.391  1.00  0.00     0.020 A 
BRANCH  30  33
HETATM   33  O   UNL     1      30.404  45.916  56.224  1.00  0.00    -0.345 OA
BRANCH  33  34
HETATM   34  C   UNL     1      30.286  46.049  57.645  1.00  0.00     0.121 C 
HETATM   35  C   UNL     1      28.819  46.014  58.066  1.00  0.00     0.040 C 
HETATM   36  C   UNL     1      31.031  44.866  58.259  1.00  0.00     0.040 C 
ENDBRANCH  33  34
ENDBRANCH  30  33
ENDBRANCH  23  26
ENDBRANCH   1  22
BRANCH   1  37
HETATM   37  C   UNL     1      25.503  41.737  50.432  1.00  0.00     0.254 C 
BRANCH  37  38
HETATM   38  N   UNL     1      26.327  40.988  51.417  1.00  0.00    -0.077 N 
HETATM   39  H   UNL     1      25.991  40.002  51.467  1.00  0.00     0.274 HD
HETATM   40  H   UNL     1      27.317  40.932  51.155  1.00  0.00     0.274 HD
HETATM   41  H   UNL     1      26.257  41.367  52.366  1.00  0.00     0.274 HD
ENDBRANCH  37  38
ENDBRANCH   1  37
TORSDOF 11
ENDMDL
MODEL 4
REMARK VINA RESULT:      -9.0      1.883      2.613
REMARK  11 active torsions:
REMARK  status: ('A' for Active; 'I' for Inactive)
REMARK    1  A    between atoms: C_2  and  O_3 
REMARK    2  A    between atoms: C_2  and  C_4 
REMARK    3  A    between atoms: C_8  and  C_9 
REMARK    4  A    between atoms: C_12  and  C_13 
REMARK    5  A    between atoms: C_13  and  C_14 
REMARK    6  A    between atoms: C_14  and  N_15 
REMARK    7  A    between atoms: C_14  and  C_29 
REMARK       I    between atoms: N_15  and  C_16 
REMARK    8  A    between atoms: C_16  and  C_17 
REMARK    9  A    between atoms: C_21  and  O_22 
REMARK   10  A    between atoms: O_22  and  C_23 
REMARK   11  A    between atoms: C_29  and  N_30 
ROOT
HETATM    1  C   UNL     1      27.118  41.095  50.547  1.00  0.00     0.114 C 
ENDROOT
BRANCH   1   2
HETATM    2  C   UNL     1      25.579  41.239  50.603  1.00  0.00     0.065 C 
BRANCH   2   3
HETATM    3  C   UNL     1      25.032  42.601  50.269  1.00  0.00    -0.056 A 
HETATM    4  C   UNL     1      24.960  43.612  51.234  1.00  0.00     0.008 A 
HETATM    5  C   UNL     1      24.513  44.891  50.882  1.00  0.00     0.014 A 
HETATM    6  C   UNL     1      24.137  45.189  49.565  1.00  0.00    -0.006 A 
HETATM    7  C   UNL     1      24.184  44.165  48.612  1.00  0.00     0.014 A 
HETATM    8  C   UNL     1      24.630  42.886  48.958  1.00  0.00     0.008 A 
BRANCH   6   9
HETATM    9  C   UNL     1      23.748  46.548  49.213  1.00  0.00     0.085 A 
HETATM   10  C   UNL     1      24.508  47.684  49.396  1.00  0.00     0.130 A 
HETATM   11  N   UNL     1      23.726  48.728  48.975  1.00  0.00    -0.315 N 
HETATM   12  C   UNL     1      22.521  48.185  48.545  1.00  0.00     0.143 A 
HETATM   13  C   UNL     1      24.014  50.088  48.961  1.00  0.00     0.098 A 
HETATM   14  C   UNL     1      21.509  49.088  48.054  1.00  0.00     0.017 A 
HETATM   15  N   UNL     1      22.520  46.870  48.679  1.00  0.00    -0.228 NA
HETATM   16  C   UNL     1      21.814  50.411  48.039  1.00  0.00     0.015 A 
HETATM   17  C   UNL     1      23.086  50.941  48.505  1.00  0.00     0.018 A 
BRANCH  14  18
HETATM   18  C   UNL     1      20.165  48.579  47.556  1.00  0.00     0.150 C 
HETATM   19  C   UNL     1      19.386  49.674  46.832  1.00  0.00     0.044 C 
BRANCH  18  20
HETATM   20  O   UNL     1      20.338  47.479  46.660  1.00  0.00    -0.391 OA
HETATM   21  H   UNL     1      20.676  46.734  47.185  1.00  0.00     0.210 HD
ENDBRANCH  18  20
ENDBRANCH  14  18
ENDBRANCH   6   9
ENDBRANCH   2   3
ENDBRANCH   1   2
BRANCH   1  22
HETATM   22  N   UNL     1      27.672  42.038  51.549  1.00  0.00    -0.350 N 
HETATM   23  C   UNL     1      28.453  41.715  52.636  1.00  0.00     0.252 C 
HETATM   24  O   UNL     1      28.842  40.569  52.839  1.00  0.00    -0.268 OA
HETATM   25  H   UNL     1      27.178  42.923  51.626  1.00  0.00     0.163 HD
BRANCH  23  26
HETATM   26  C   UNL     1      28.815  42.831  53.557  1.00  0.00     0.033 A 
HETATM   27  C   UNL     1      29.905  42.665  54.414  1.00  0.00     0.043 A 
HETATM   28  C   UNL     1      30.266  43.694  55.292  1.00  0.00     0.068 A 
HETATM   29 CL   UNL     1      31.617  43.420  56.335  1.00  0.00    -0.081 Cl
HETATM   30  C   UNL     1      29.546  44.899  55.331  1.00  0.00     0.091 A 
HETATM   31  C   UNL     1      28.479  45.070  54.445  1.00  0.00     0.039 A 
HETATM   32  C   UNL     1      28.117  44.045  53.561  1.00  0.00     0.020 A 
BRANCH  30  33
HETATM   33  O   UNL     1      29.968  45.844  56.225  1.00  0.00    -0.345 OA
BRANCH  33  34
HETATM   34  C   UNL     1      29.662  45.704  57.618  1.00  0.00     0.121 C 
HETATM   35  C   UNL     1      30.792  46.270  58.474  1.00  0.00     0.040 C 
HETATM   36  C   UNL     1      28.378  46.494  57.864  1.00  0.00     0.040 C 
ENDBRANCH  33  34
ENDBRANCH  30  33
ENDBRANCH  23  26
ENDBRANCH   1  22
BRANCH   1  37
HETATM   37  C   UNL     1      27.637  41.322  49.098  1.00  0.00     0.254 C 
BRANCH  37  38
HETATM   38  N   UNL     1      28.823  40.479  48.795  1.00  0.00    -0.077 N 
HETATM   39  H   UNL     1      28.591  39.824  48.017  1.00  0.00     0.274 HD
HETATM   40  H   UNL     1      29.632  41.020  48.471  1.00  0.00     0.274 HD
HETATM   41  H   UNL     1      29.111  39.896  49.588  1.00  0.00     0.274 HD
ENDBRANCH  37  38
ENDBRANCH   1  37
TORSDOF 11
ENDMDL
MODEL 5
REMARK VINA RESULT:      -9.0      1.873      2.250
REMARK  11 active torsions:
REMARK  status: ('A' for Active; 'I' for Inactive)
REMARK    1  A    between atoms: C_2  and  O_3 
REMARK    2  A    between atoms: C_2  and  C_4 
REMARK    3  A    between atoms: C_8  and  C_9 
REMARK    4  A    between atoms: C_12  and  C_13 
REMARK    5  A    between atoms: C_13  and  C_14 
REMARK    6  A    between atoms: C_14  and  N_15 
REMARK    7  A    between atoms: C_14  and  C_29 
REMARK       I    between atoms: N_15  and  C_16 
REMARK    8  A    between atoms: C_16  and  C_17 
REMARK    9  A    between atoms: C_21  and  O_22 
REMARK   10  A    between atoms: O_22  and  C_23 
REMARK   11  A    between atoms: C_29  and  N_30 
ROOT
HETATM    1  C   UNL     1      25.029  43.363  50.485  1.00  0.00     0.114 C 
ENDROOT
BRANCH   1   2
HETATM    2  C   UNL     1      25.269  44.365  49.331  1.00  0.00     0.065 C 
BRANCH   2   3
HETATM    3  C   UNL     1      24.270  45.483  49.208  1.00  0.00    -0.056 A 
HETATM    4  C   UNL     1      24.526  46.749  49.748  1.00  0.00     0.008 A 
HETATM    5  C   UNL     1      23.613  47.793  49.561  1.00  0.00     0.014 A 
HETATM    6  C   UNL     1      22.433  47.599  48.828  1.00  0.00    -0.006 A 
HETATM    7  C   UNL     1      22.170  46.323  48.317  1.00  0.00     0.014 A 
HETATM    8  C   UNL     1      23.079  45.277  48.500  1.00  0.00     0.008 A 
BRANCH   6   9
HETATM    9  C   UNL     1      21.538  48.723  48.586  1.00  0.00     0.085 A 
HETATM   10  C   UNL     1      21.339  49.799  49.425  1.00  0.00     0.130 A 
HETATM   11  N   UNL     1      20.381  50.571  48.822  1.00  0.00    -0.315 N 
HETATM   12  C   UNL     1      20.038  49.936  47.633  1.00  0.00     0.143 A 
HETATM   13  C   UNL     1      19.810  51.760  49.260  1.00  0.00     0.098 A 
HETATM   14  C   UNL     1      19.029  50.551  46.806  1.00  0.00     0.017 A 
HETATM   15  N   UNL     1      20.730  48.822  47.475  1.00  0.00    -0.228 NA
HETATM   16  C   UNL     1      18.492  51.717  47.246  1.00  0.00     0.015 A 
HETATM   17  C   UNL     1      18.874  52.346  48.500  1.00  0.00     0.018 A 
BRANCH  14  18
HETATM   18  C   UNL     1      18.599  49.930  45.485  1.00  0.00     0.150 C 
HETATM   19  C   UNL     1      17.353  49.067  45.651  1.00  0.00     0.044 C 
BRANCH  18  20
HETATM   20  O   UNL     1      18.324  50.942  44.512  1.00  0.00    -0.391 OA
HETATM   21  H   UNL     1      18.980  50.841  43.803  1.00  0.00     0.210 HD
ENDBRANCH  18  20
ENDBRANCH  14  18
ENDBRANCH   6   9
ENDBRANCH   2   3
ENDBRANCH   1   2
BRANCH   1  22
HETATM   22  N   UNL     1      26.022  43.683  51.540  1.00  0.00    -0.350 N 
HETATM   23  C   UNL     1      25.775  44.326  52.731  1.00  0.00     0.252 C 
HETATM   24  O   UNL     1      24.641  44.642  53.076  1.00  0.00    -0.268 OA
HETATM   25  H   UNL     1      26.988  43.725  51.224  1.00  0.00     0.163 HD
BRANCH  23  26
HETATM   26  C   UNL     1      26.956  44.618  53.594  1.00  0.00     0.033 A 
HETATM   27  C   UNL     1      28.078  43.791  53.495  1.00  0.00     0.043 A 
HETATM   28  C   UNL     1      29.201  44.038  54.294  1.00  0.00     0.068 A 
HETATM   29 CL   UNL     1      30.550  42.970  54.131  1.00  0.00    -0.081 Cl
HETATM   30  C   UNL     1      29.222  45.109  55.203  1.00  0.00     0.091 A 
HETATM   31  C   UNL     1      28.109  45.952  55.269  1.00  0.00     0.039 A 
HETATM   32  C   UNL     1      26.985  45.712  54.468  1.00  0.00     0.020 A 
BRANCH  30  33
HETATM   33  O   UNL     1      30.359  45.269  55.945  1.00  0.00    -0.345 OA
BRANCH  33  34
HETATM   34  C   UNL     1      30.418  44.772  57.287  1.00  0.00     0.121 C 
HETATM   35  C   UNL     1      31.610  43.833  57.459  1.00  0.00     0.040 C 
HETATM   36  C   UNL     1      30.580  45.987  58.197  1.00  0.00     0.040 C 
ENDBRANCH  33  34
ENDBRANCH  30  33
ENDBRANCH  23  26
ENDBRANCH   1  22
BRANCH   1  37
HETATM   37  C   UNL     1      25.098  41.899  49.962  1.00  0.00     0.254 C 
BRANCH  37  38
HETATM   38  N   UNL     1      25.858  41.801  48.689  1.00  0.00    -0.077 N 
HETATM   39  H   UNL     1      25.637  42.626  48.091  1.00  0.00     0.274 HD
HETATM   40  H   UNL     1      26.875  41.820  48.823  1.00  0.00     0.274 HD
HETATM   41  H   UNL     1      25.612  40.971  48.140  1.00  0.00     0.274 HD
ENDBRANCH  37  38
ENDBRANCH   1  37
TORSDOF 11
ENDMDL
MODEL 6
REMARK VINA RESULT:      -8.6      2.186      3.419
REMARK  11 active torsions:
REMARK  status: ('A' for Active; 'I' for Inactive)
REMARK    1  A    between atoms: C_2  and  O_3 
REMARK    2  A    between atoms: C_2  and  C_4 
REMARK    3  A    between atoms: C_8  and  C_9 
REMARK    4  A    between atoms: C_12  and  C_13 
REMARK    5  A    between atoms: C_13  and  C_14 
REMARK    6  A    between atoms: C_14  and  N_15 
REMARK    7  A    between atoms: C_14  and  C_29 
REMARK       I    between atoms: N_15  and  C_16 
REMARK    8  A    between atoms: C_16  and  C_17 
REMARK    9  A    between atoms: C_21  and  O_22 
REMARK   10  A    between atoms: O_22  and  C_23 
REMARK   11  A    between atoms: C_29  and  N_30 
ROOT
HETATM    1  C   UNL     1      27.359  40.379  49.920  1.00  0.00     0.114 C 
ENDROOT
BRANCH   1   2
HETATM    2  C   UNL     1      25.813  40.316  49.922  1.00  0.00     0.065 C 
BRANCH   2   3
HETATM    3  C   UNL     1      25.100  41.608  49.624  1.00  0.00    -0.056 A 
HETATM    4  C   UNL     1      24.661  41.914  48.331  1.00  0.00     0.008 A 
HETATM    5  C   UNL     1      23.939  43.089  48.092  1.00  0.00     0.014 A 
HETATM    6  C   UNL     1      23.632  43.975  49.135  1.00  0.00    -0.006 A 
HETATM    7  C   UNL     1      24.100  43.675  50.420  1.00  0.00     0.014 A 
HETATM    8  C   UNL     1      24.822  42.504  50.664  1.00  0.00     0.008 A 
BRANCH   6   9
HETATM    9  C   UNL     1      22.814  45.150  48.870  1.00  0.00     0.085 A 
HETATM   10  C   UNL     1      21.457  45.158  48.628  1.00  0.00     0.130 A 
HETATM   11  N   UNL     1      21.129  46.466  48.379  1.00  0.00    -0.315 N 
HETATM   12  C   UNL     1      22.301  47.205  48.485  1.00  0.00     0.143 A 
HETATM   13  C   UNL     1      19.891  47.013  48.066  1.00  0.00     0.098 A 
HETATM   14  C   UNL     1      22.227  48.627  48.256  1.00  0.00     0.017 A 
HETATM   15  N   UNL     1      23.326  46.426  48.784  1.00  0.00    -0.228 NA
HETATM   16  C   UNL     1      21.007  49.144  47.962  1.00  0.00     0.015 A 
HETATM   17  C   UNL     1      19.803  48.334  47.855  1.00  0.00     0.018 A 
BRANCH  14  18
HETATM   18  C   UNL     1      23.458  49.513  48.360  1.00  0.00     0.150 C 
HETATM   19  C   UNL     1      23.079  50.985  48.492  1.00  0.00     0.044 C 
BRANCH  18  20
HETATM   20  O   UNL     1      24.255  49.148  49.489  1.00  0.00    -0.391 OA
HETATM   21  H   UNL     1      25.102  49.617  49.404  1.00  0.00     0.210 HD
ENDBRANCH  18  20
ENDBRANCH  14  18
ENDBRANCH   6   9
ENDBRANCH   2   3
ENDBRANCH   1   2
BRANCH   1  22
HETATM   22  N   UNL     1      27.745  41.420  50.904  1.00  0.00    -0.350 N 
HETATM   23  C   UNL     1      28.562  41.253  51.998  1.00  0.00     0.252 C 
HETATM   24  O   UNL     1      29.133  40.191  52.226  1.00  0.00    -0.268 OA
HETATM   25  H   UNL     1      27.111  42.214  50.960  1.00  0.00     0.163 HD
BRANCH  23  26
HETATM   26  C   UNL     1      28.730  42.431  52.896  1.00  0.00     0.033 A 
HETATM   27  C   UNL     1      29.712  42.382  53.888  1.00  0.00     0.043 A 
HETATM   28  C   UNL     1      29.891  43.472  54.749  1.00  0.00     0.068 A 
HETATM   29 CL   UNL     1      31.116  43.342  55.962  1.00  0.00    -0.081 Cl
HETATM   30  C   UNL     1      29.094  44.623  54.635  1.00  0.00     0.091 A 
HETATM   31  C   UNL     1      28.139  44.677  53.617  1.00  0.00     0.039 A 
HETATM   32  C   UNL     1      27.959  43.591  52.751  1.00  0.00     0.020 A 
BRANCH  30  33
HETATM   33  O   UNL     1      29.337  45.635  55.523  1.00  0.00    -0.345 OA
BRANCH  33  34
HETATM   34  C   UNL     1      28.346  45.993  56.494  1.00  0.00     0.121 C 
HETATM   35  C   UNL     1      28.987  46.187  57.866  1.00  0.00     0.040 C 
HETATM   36  C   UNL     1      27.726  47.306  56.021  1.00  0.00     0.040 C 
ENDBRANCH  33  34
ENDBRANCH  30  33
ENDBRANCH  23  26
ENDBRANCH   1  22
BRANCH   1  37
HETATM   37  C   UNL     1      27.895  40.627  48.480  1.00  0.00     0.254 C 
BRANCH  37  38
HETATM   38  N   UNL     1      28.562  39.422  47.923  1.00  0.00    -0.077 N 
HETATM   39  H   UNL     1      27.916  38.606  47.994  1.00  0.00     0.274 HD
HETATM   40  H   UNL     1      28.789  39.510  46.926  1.00  0.00     0.274 HD
HETATM   41  H   UNL     1      29.412  39.163  48.434  1.00  0.00     0.274 HD
ENDBRANCH  37  38
ENDBRANCH   1  37
TORSDOF 11
ENDMDL
MODEL 7
REMARK VINA RESULT:      -8.6      3.847      6.447
REMARK  11 active torsions:
REMARK  status: ('A' for Active; 'I' for Inactive)
REMARK    1  A    between atoms: C_2  and  O_3 
REMARK    2  A    between atoms: C_2  and  C_4 
REMARK    3  A    between atoms: C_8  and  C_9 
REMARK    4  A    between atoms: C_12  and  C_13 
REMARK    5  A    between atoms: C_13  and  C_14 
REMARK    6  A    between atoms: C_14  and  N_15 
REMARK    7  A    between atoms: C_14  and  C_29 
REMARK       I    between atoms: N_15  and  C_16 
REMARK    8  A    between atoms: C_16  and  C_17 
REMARK    9  A    between atoms: C_21  and  O_22 
REMARK   10  A    between atoms: O_22  and  C_23 
REMARK   11  A    between atoms: C_29  and  N_30 
ROOT
HETATM    1  C   UNL     1      22.707  48.507  48.979  1.00  0.00     0.114 C 
ENDROOT
BRANCH   1   2
HETATM    2  C   UNL     1      21.339  47.791  48.884  1.00  0.00     0.065 C 
BRANCH   2   3
HETATM    3  C   UNL     1      20.138  48.682  48.716  1.00  0.00    -0.056 A 
HETATM    4  C   UNL     1      19.212  48.855  49.751  1.00  0.00     0.008 A 
HETATM    5  C   UNL     1      18.141  49.743  49.598  1.00  0.00     0.014 A 
HETATM    6  C   UNL     1      17.976  50.480  48.417  1.00  0.00    -0.006 A 
HETATM    7  C   UNL     1      18.890  50.279  47.375  1.00  0.00     0.014 A 
HETATM    8  C   UNL     1      19.961  49.394  47.523  1.00  0.00     0.008 A 
BRANCH   6   9
HETATM    9  C   UNL     1      16.897  51.452  48.314  1.00  0.00     0.085 A 
HETATM   10  C   UNL     1      16.239  51.819  47.159  1.00  0.00     0.130 A 
HETATM   11  N   UNL     1      15.348  52.792  47.528  1.00  0.00    -0.315 N 
HETATM   12  C   UNL     1      15.493  52.976  48.898  1.00  0.00     0.143 A 
HETATM   13  C   UNL     1      14.452  53.504  46.739  1.00  0.00     0.098 A 
HETATM   14  C   UNL     1      14.663  53.966  49.539  1.00  0.00     0.017 A 
HETATM   15  N   UNL     1      16.421  52.173  49.388  1.00  0.00    -0.228 NA
HETATM   16  C   UNL     1      13.787  54.643  48.753  1.00  0.00     0.015 A 
HETATM   17  C   UNL     1      13.670  54.425  47.320  1.00  0.00     0.018 A 
BRANCH  14  18
HETATM   18  C   UNL     1      14.749  54.227  51.035  1.00  0.00     0.150 C 
HETATM   19  C   UNL     1      14.814  55.720  51.340  1.00  0.00     0.044 C 
BRANCH  18  20
HETATM   20  O   UNL     1      13.619  53.674  51.715  1.00  0.00    -0.391 OA
HETATM   21  H   UNL     1      13.380  54.296  52.422  1.00  0.00     0.210 HD
ENDBRANCH  18  20
ENDBRANCH  14  18
ENDBRANCH   6   9
ENDBRANCH   2   3
ENDBRANCH   1   2
BRANCH   1  22
HETATM   22  N   UNL     1      23.575  47.656  49.831  1.00  0.00    -0.350 N 
HETATM   23  C   UNL     1      24.935  47.781  49.999  1.00  0.00     0.252 C 
HETATM   24  O   UNL     1      25.570  48.700  49.492  1.00  0.00    -0.268 OA
HETATM   25  H   UNL     1      23.200  46.734  50.040  1.00  0.00     0.163 HD
BRANCH  23  26
HETATM   26  C   UNL     1      25.604  46.746  50.838  1.00  0.00     0.033 A 
HETATM   27  C   UNL     1      26.065  45.580  50.222  1.00  0.00     0.043 A 
HETATM   28  C   UNL     1      26.695  44.589  50.984  1.00  0.00     0.068 A 
HETATM   29 CL   UNL     1      27.231  43.166  50.162  1.00  0.00    -0.081 Cl
HETATM   30  C   UNL     1      26.873  44.744  52.369  1.00  0.00     0.091 A 
HETATM   31  C   UNL     1      26.441  45.928  52.970  1.00  0.00     0.039 A 
HETATM   32  C   UNL     1      25.814  46.925  52.211  1.00  0.00     0.020 A 
BRANCH  30  33
HETATM   33  O   UNL     1      27.493  43.720  53.031  1.00  0.00    -0.345 OA
BRANCH  33  34
HETATM   34  C   UNL     1      28.906  43.767  53.265  1.00  0.00     0.121 C 
HETATM   35  C   UNL     1      29.197  44.154  54.713  1.00  0.00     0.040 C 
HETATM   36  C   UNL     1      29.442  42.364  52.985  1.00  0.00     0.040 C 
ENDBRANCH  33  34
ENDBRANCH  30  33
ENDBRANCH  23  26
ENDBRANCH   1  22
BRANCH   1  37
HETATM   37  C   UNL     1      22.528  49.963  49.499  1.00  0.00     0.254 C 
BRANCH  37  38
HETATM   38  N   UNL     1      23.465  50.906  48.836  1.00  0.00    -0.077 N 
HETATM   39  H   UNL     1      23.380  51.846  49.280  1.00  0.00     0.274 HD
HETATM   40  H   UNL     1      24.450  50.638  48.940  1.00  0.00     0.274 HD
HETATM   41  H   UNL     1      23.262  51.037  47.840  1.00  0.00     0.274 HD
ENDBRANCH  37  38
ENDBRANCH   1  37
TORSDOF 11
ENDMDL
MODEL 8
REMARK VINA RESULT:      -8.4      3.713      6.933
REMARK  11 active torsions:
REMARK  status: ('A' for Active; 'I' for Inactive)
REMARK    1  A    between atoms: C_2  and  O_3 
REMARK    2  A    between atoms: C_2  and  C_4 
REMARK    3  A    between atoms: C_8  and  C_9 
REMARK    4  A    between atoms: C_12  and  C_13 
REMARK    5  A    between atoms: C_13  and  C_14 
REMARK    6  A    between atoms: C_14  and  N_15 
REMARK    7  A    between atoms: C_14  and  C_29 
REMARK       I    between atoms: N_15  and  C_16 
REMARK    8  A    between atoms: C_16  and  C_17 
REMARK    9  A    between atoms: C_21  and  O_22 
REMARK   10  A    between atoms: O_22  and  C_23 
REMARK   11  A    between atoms: C_29  and  N_30 
ROOT
HETATM    1  C   UNL     1      28.302  42.095  51.550  1.00  0.00     0.114 C 
ENDROOT
BRANCH   1   2
HETATM    2  C   UNL     1      28.172  43.482  52.223  1.00  0.00     0.065 C 
BRANCH   2   3
HETATM    3  C   UNL     1      27.240  44.456  51.555  1.00  0.00    -0.056 A 
HETATM    4  C   UNL     1      26.112  44.953  52.217  1.00  0.00     0.008 A 
HETATM    5  C   UNL     1      25.298  45.911  51.602  1.00  0.00     0.014 A 
HETATM    6  C   UNL     1      25.597  46.399  50.322  1.00  0.00    -0.006 A 
HETATM    7  C   UNL     1      26.712  45.876  49.655  1.00  0.00     0.014 A 
HETATM    8  C   UNL     1      27.527  44.919  50.265  1.00  0.00     0.008 A 
BRANCH   6   9
HETATM    9  C   UNL     1      24.776  47.451  49.738  1.00  0.00     0.085 A 
HETATM   10  C   UNL     1      25.233  48.645  49.219  1.00  0.00     0.130 A 
HETATM   11  N   UNL     1      24.114  49.338  48.836  1.00  0.00    -0.315 N 
HETATM   12  C   UNL     1      23.018  48.535  49.133  1.00  0.00     0.143 A 
HETATM   13  C   UNL     1      24.019  50.602  48.268  1.00  0.00     0.098 A 
HETATM   14  C   UNL     1      21.704  49.047  48.831  1.00  0.00     0.017 A 
HETATM   15  N   UNL     1      23.402  47.392  49.674  1.00  0.00    -0.228 NA
HETATM   16  C   UNL     1      21.634  50.279  48.266  1.00  0.00     0.015 A 
HETATM   17  C   UNL     1      22.805  51.091  47.977  1.00  0.00     0.018 A 
BRANCH  14  18
HETATM   18  C   UNL     1      20.451  48.232  49.113  1.00  0.00     0.150 C 
HETATM   19  C   UNL     1      19.331  48.571  48.134  1.00  0.00     0.044 C 
BRANCH  18  20
HETATM   20  O   UNL     1      20.722  46.832  49.023  1.00  0.00    -0.391 OA
HETATM   21  H   UNL     1      21.688  46.727  49.045  1.00  0.00     0.210 HD
ENDBRANCH  18  20
ENDBRANCH  14  18
ENDBRANCH   6   9
ENDBRANCH   2   3
ENDBRANCH   1   2
BRANCH   1  22
HETATM   22  N   UNL     1      27.045  41.870  50.793  1.00  0.00    -0.350 N 
HETATM   23  C   UNL     1      26.939  41.462  49.483  1.00  0.00     0.252 C 
HETATM   24  O   UNL     1      27.923  41.163  48.814  1.00  0.00    -0.268 OA
HETATM   25  H   UNL     1      26.231  42.358  51.157  1.00  0.00     0.163 HD
BRANCH  23  26
HETATM   26  C   UNL     1      25.563  41.395  48.911  1.00  0.00     0.033 A 
HETATM   27  C   UNL     1      24.649  42.397  49.245  1.00  0.00     0.043 A 
HETATM   28  C   UNL     1      23.349  42.358  48.726  1.00  0.00     0.068 A 
HETATM   29 CL   UNL     1      22.265  43.622  49.189  1.00  0.00    -0.081 Cl
HETATM   30  C   UNL     1      22.941  41.321  47.871  1.00  0.00     0.091 A 
HETATM   31  C   UNL     1      23.873  40.343  47.514  1.00  0.00     0.039 A 
HETATM   32  C   UNL     1      25.176  40.380  48.027  1.00  0.00     0.020 A 
BRANCH  30  33
HETATM   33  O   UNL     1      21.651  41.364  47.419  1.00  0.00    -0.345 OA
BRANCH  33  34
HETATM   34  C   UNL     1      21.384  41.554  46.024  1.00  0.00     0.121 C 
HETATM   35  C   UNL     1      20.336  40.556  45.539  1.00  0.00     0.040 C 
HETATM   36  C   UNL     1      20.853  42.978  45.871  1.00  0.00     0.040 C 
ENDBRANCH  33  34
ENDBRANCH  30  33
ENDBRANCH  23  26
ENDBRANCH   1  22
BRANCH   1  37
HETATM   37  C   UNL     1      28.617  40.999  52.609  1.00  0.00     0.254 C 
BRANCH  37  38
HETATM   38  N   UNL     1      29.057  39.729  51.976  1.00  0.00    -0.077 N 
HETATM   39  H   UNL     1      28.768  39.724  50.974  1.00  0.00     0.274 HD
HETATM   40  H   UNL     1      30.076  39.611  51.972  1.00  0.00     0.274 HD
HETATM   41  H   UNL     1      28.630  38.901  52.404  1.00  0.00     0.274 HD
ENDBRANCH  37  38
ENDBRANCH   1  37
TORSDOF 11
ENDMDL
MODEL 9
REMARK VINA RESULT:      -8.3      3.939     12.089
REMARK  11 active torsions:
REMARK  status: ('A' for Active; 'I' for Inactive)
REMARK    1  A    between atoms: C_2  and  O_3 
REMARK    2  A    between atoms: C_2  and  C_4 
REMARK    3  A    between atoms: C_8  and  C_9 
REMARK    4  A    between atoms: C_12  and  C_13 
REMARK    5  A    between atoms: C_13  and  C_14 
REMARK    6  A    between atoms: C_14  and  N_15 
REMARK    7  A    between atoms: C_14  and  C_29 
REMARK       I    between atoms: N_15  and  C_16 
REMARK    8  A    between atoms: C_16  and  C_17 
REMARK    9  A    between atoms: C_21  and  O_22 
REMARK   10  A    between atoms: O_22  and  C_23 
REMARK   11  A    between atoms: C_29  and  N_30 
ROOT
HETATM    1  C   UNL     1      21.906  49.250  49.526  1.00  0.00     0.114 C 
ENDROOT
BRANCH   1   2
HETATM    2  C   UNL     1      22.798  48.395  48.594  1.00  0.00     0.065 C 
BRANCH   2   3
HETATM    3  C   UNL     1      23.833  47.539  49.274  1.00  0.00    -0.056 A 
HETATM    4  C   UNL     1      25.071  48.065  49.658  1.00  0.00     0.008 A 
HETATM    5  C   UNL     1      25.990  47.269  50.351  1.00  0.00     0.014 A 
HETATM    6  C   UNL     1      25.691  45.940  50.681  1.00  0.00    -0.006 A 
HETATM    7  C   UNL     1      24.462  45.413  50.268  1.00  0.00     0.014 A 
HETATM    8  C   UNL     1      23.540  46.204  49.576  1.00  0.00     0.008 A 
BRANCH   6   9
HETATM    9  C   UNL     1      26.636  45.159  51.468  1.00  0.00     0.085 A 
HETATM   10  C   UNL     1      27.199  43.955  51.102  1.00  0.00     0.130 A 
HETATM   11  N   UNL     1      27.975  43.567  52.164  1.00  0.00    -0.315 N 
HETATM   12  C   UNL     1      27.857  44.555  53.135  1.00  0.00     0.143 A 
HETATM   13  C   UNL     1      28.744  42.419  52.313  1.00  0.00     0.098 A 
HETATM   14  C   UNL     1      28.579  44.377  54.371  1.00  0.00     0.017 A 
HETATM   15  N   UNL     1      27.055  45.524  52.729  1.00  0.00    -0.228 NA
HETATM   16  C   UNL     1      29.333  43.255  54.492  1.00  0.00     0.015 A 
HETATM   17  C   UNL     1      29.425  42.241  53.454  1.00  0.00     0.018 A 
BRANCH  14  18
HETATM   18  C   UNL     1      28.514  45.412  55.483  1.00  0.00     0.150 C 
HETATM   19  C   UNL     1      29.805  45.440  56.297  1.00  0.00     0.044 C 
BRANCH  18  20
HETATM   20  O   UNL     1      28.286  46.719  54.951  1.00  0.00    -0.391 OA
HETATM   21  H   UNL     1      29.128  47.023  54.571  1.00  0.00     0.210 HD
ENDBRANCH  18  20
ENDBRANCH  14  18
ENDBRANCH   6   9
ENDBRANCH   2   3
ENDBRANCH   1   2
BRANCH   1  22
HETATM   22  N   UNL     1      20.523  49.154  49.000  1.00  0.00    -0.350 N 
HETATM   23  C   UNL     1      19.359  49.286  49.722  1.00  0.00     0.252 C 
HETATM   24  O   UNL     1      19.364  49.584  50.912  1.00  0.00    -0.268 OA
HETATM   25  H   UNL     1      20.429  48.637  48.129  1.00  0.00     0.163 HD
BRANCH  23  26
HETATM   26  C   UNL     1      18.083  49.055  48.986  1.00  0.00     0.033 A 
HETATM   27  C   UNL     1      17.398  50.158  48.471  1.00  0.00     0.043 A 
HETATM   28  C   UNL     1      16.196  49.973  47.777  1.00  0.00     0.068 A 
HETATM   29 CL   UNL     1      15.393  51.381  47.176  1.00  0.00    -0.081 Cl
HETATM   30  C   UNL     1      15.658  48.689  47.590  1.00  0.00     0.091 A 
HETATM   31  C   UNL     1      16.368  47.589  48.078  1.00  0.00     0.039 A 
HETATM   32  C   UNL     1      17.574  47.769  48.768  1.00  0.00     0.020 A 
BRANCH  30  33
HETATM   33  O   UNL     1      14.477  48.606  46.906  1.00  0.00    -0.345 OA
BRANCH  33  34
HETATM   34  C   UNL     1      14.421  47.926  45.646  1.00  0.00     0.121 C 
HETATM   35  C   UNL     1      12.986  47.514  45.324  1.00  0.00     0.040 C 
HETATM   36  C   UNL     1      14.926  48.912  44.594  1.00  0.00     0.040 C 
ENDBRANCH  33  34
ENDBRANCH  30  33
ENDBRANCH  23  26
ENDBRANCH   1  22
BRANCH   1  37
HETATM   37  C   UNL     1      22.454  50.704  49.625  1.00  0.00     0.254 C 
BRANCH  37  38
HETATM   38  N   UNL     1      23.144  51.121  48.377  1.00  0.00    -0.077 N 
HETATM   39  H   UNL     1      23.894  51.808  48.610  1.00  0.00     0.274 HD
HETATM   40  H   UNL     1      23.616  50.347  47.898  1.00  0.00     0.274 HD
HETATM   41  H   UNL     1      22.519  51.590  47.713  1.00  0.00     0.274 HD
ENDBRANCH  37  38
ENDBRANCH   1  37
TORSDOF 11
ENDMDL
MODEL 10
REMARK VINA RESULT:      -8.2      3.198      8.897
REMARK  11 active torsions:
REMARK  status: ('A' for Active; 'I' for Inactive)
REMARK    1  A    between atoms: C_2  and  O_3 
REMARK    2  A    between atoms: C_2  and  C_4 
REMARK    3  A    between atoms: C_8  and  C_9 
REMARK    4  A    between atoms: C_12  and  C_13 
REMARK    5  A    between atoms: C_13  and  C_14 
REMARK    6  A    between atoms: C_14  and  N_15 
REMARK    7  A    between atoms: C_14  and  C_29 
REMARK       I    between atoms: N_15  and  C_16 
REMARK    8  A    between atoms: C_16  and  C_17 
REMARK    9  A    between atoms: C_21  and  O_22 
REMARK   10  A    between atoms: O_22  and  C_23 
REMARK   11  A    between atoms: C_29  and  N_30 
ROOT
HETATM    1  C   UNL     1      24.149  41.488  47.230  1.00  0.00     0.114 C 
ENDROOT
BRANCH   1   2
HETATM    2  C   UNL     1      25.391  40.881  47.925  1.00  0.00     0.065 C 
BRANCH   2   3
HETATM    3  C   UNL     1      25.908  41.630  49.124  1.00  0.00    -0.056 A 
HETATM    4  C   UNL     1      26.847  42.658  48.989  1.00  0.00     0.008 A 
HETATM    5  C   UNL     1      27.260  43.388  50.110  1.00  0.00     0.014 A 
HETATM    6  C   UNL     1      26.742  43.113  51.383  1.00  0.00    -0.006 A 
HETATM    7  C   UNL     1      25.824  42.063  51.514  1.00  0.00     0.014 A 
HETATM    8  C   UNL     1      25.408  41.332  50.398  1.00  0.00     0.008 A 
BRANCH   6   9
HETATM    9  C   UNL     1      27.133  43.937  52.518  1.00  0.00     0.085 A 
HETATM   10  C   UNL     1      26.481  45.068  52.965  1.00  0.00     0.130 A 
HETATM   11  N   UNL     1      27.229  45.541  54.012  1.00  0.00    -0.315 N 
HETATM   12  C   UNL     1      28.306  44.675  54.165  1.00  0.00     0.143 A 
HETATM   13  C   UNL     1      27.017  46.664  54.801  1.00  0.00     0.098 A 
HETATM   14  C   UNL     1      29.260  44.960  55.208  1.00  0.00     0.017 A 
HETATM   15  N   UNL     1      28.260  43.700  53.274  1.00  0.00    -0.228 NA
HETATM   16  C   UNL     1      29.029  46.056  55.976  1.00  0.00     0.015 A 
HETATM   17  C   UNL     1      27.892  46.942  55.778  1.00  0.00     0.018 A 
BRANCH  14  18
HETATM   18  C   UNL     1      30.462  44.061  55.453  1.00  0.00     0.150 C 
HETATM   19  C   UNL     1      30.879  44.072  56.921  1.00  0.00     0.044 C 
BRANCH  18  20
HETATM   20  O   UNL     1      30.175  42.713  55.074  1.00  0.00    -0.391 OA
HETATM   21  H   UNL     1      29.548  42.753  54.332  1.00  0.00     0.210 HD
ENDBRANCH  18  20
ENDBRANCH  14  18
ENDBRANCH   6   9
ENDBRANCH   2   3
ENDBRANCH   1   2
BRANCH   1  22
HETATM   22  N   UNL     1      24.076  42.908  47.651  1.00  0.00    -0.350 N 
HETATM   23  C   UNL     1      23.202  43.448  48.567  1.00  0.00     0.252 C 
HETATM   24  O   UNL     1      22.415  42.753  49.201  1.00  0.00    -0.268 OA
HETATM   25  H   UNL     1      24.468  43.574  46.990  1.00  0.00     0.163 HD
BRANCH  23  26
HETATM   26  C   UNL     1      23.259  44.926  48.758  1.00  0.00     0.033 A 
HETATM   27  C   UNL     1      24.325  45.467  49.479  1.00  0.00     0.043 A 
HETATM   28  C   UNL     1      24.404  46.851  49.677  1.00  0.00     0.068 A 
HETATM   29 CL   UNL     1      25.744  47.454  50.589  1.00  0.00    -0.081 Cl
HETATM   30  C   UNL     1      23.422  47.714  49.163  1.00  0.00     0.091 A 
HETATM   31  C   UNL     1      22.378  47.167  48.413  1.00  0.00     0.039 A 
HETATM   32  C   UNL     1      22.298  45.783  48.207  1.00  0.00     0.020 A 
BRANCH  30  33
HETATM   33  O   UNL     1      23.580  49.049  49.412  1.00  0.00    -0.345 OA
BRANCH  33  34
HETATM   34  C   UNL     1      23.673  49.978  48.325  1.00  0.00     0.121 C 
HETATM   35  C   UNL     1      23.025  51.308  48.701  1.00  0.00     0.040 C 
HETATM   36  C   UNL     1      25.161  50.184  48.052  1.00  0.00     0.040 C 
ENDBRANCH  33  34
ENDBRANCH  30  33
ENDBRANCH  23  26
ENDBRANCH   1  22
BRANCH   1  37
HETATM   37  C   UNL     1      22.876  40.655  47.559  1.00  0.00     0.254 C 
BRANCH  37  38
HETATM   38  N   UNL     1      22.988  39.256  47.070  1.00  0.00    -0.077 N 
HETATM   39  H   UNL     1      22.540  39.182  46.131  1.00  0.00     0.274 HD
HETATM   40  H   UNL     1      23.959  38.950  46.939  1.00  0.00     0.274 HD
HETATM   41  H   UNL     1      22.507  38.582  47.674  1.00  0.00     0.274 HD
ENDBRANCH  37  38
ENDBRANCH   1  37
TORSDOF 11
ENDMDL
