MODEL 1
REMARK VINA RESULT:      -8.4      0.000      0.000
REMARK  6 active torsions:
REMARK  status: ('A' for Active; 'I' for Inactive)
REMARK    1  A    between atoms: C_2  and  N_3 
REMARK    2  A    between atoms: C_2  and  C_24 
REMARK       I    between atoms: N_3  and  C_4 
REMARK    3  A    between atoms: C_4  and  C_5 
REMARK    4  A    between atoms: C_5  and  N_6 
REMARK    5  A    between atoms: C_10  and  N_11 
REMARK       I    between atoms: N_11  and  C_12 
REMARK       I    between atoms: C_12  and  N_13 
REMARK    6  A    between atoms: N_13  and  C_14 
ROOT
HETATM    1  N   UNL     1      25.295  45.652  51.684  1.00  0.00    -0.063 N 
HETATM    2  H   UNL     1      26.159  45.123  51.485  1.00  0.00     0.280 HD
HETATM    3  C   UNL     1      24.146  45.036  50.942  1.00  0.00     0.237 C 
HETATM    4  C   UNL     1      24.186  45.353  49.462  1.00  0.00     0.053 C 
HETATM    5  C   UNL     1      24.321  46.841  49.162  1.00  0.00     0.089 C 
HETATM    6  C   UNL     1      25.513  47.437  49.904  1.00  0.00     0.053 C 
HETATM    7  C   UNL     1      25.593  47.103  51.384  1.00  0.00     0.237 C 
ENDROOT
BRANCH   1   8
HETATM    8  C   UNL     1      25.063  45.470  53.203  1.00  0.00     0.337 C 
BRANCH   8   9
HETATM    9  C   UNL     1      26.077  46.265  54.018  1.00  0.00     0.244 C 
HETATM   10  N   UNL     1      27.330  45.798  54.251  1.00  0.00    -0.351 N 
HETATM   11  H   UNL     1      27.887  46.439  54.807  1.00  0.00     0.163 HD
HETATM   12  O   UNL     1      25.743  47.363  54.477  1.00  0.00    -0.272 OA
BRANCH  10  13
HETATM   13  C   UNL     1      27.945  44.491  53.997  1.00  0.00     0.120 C 
HETATM   14  C   UNL     1      28.173  44.237  52.510  1.00  0.00     0.038 C 
BRANCH  13  15
HETATM   15  C   UNL     1      29.120  44.277  54.922  1.00  0.00     0.005 A 
HETATM   16  S   UNL     1      29.633  45.445  56.073  1.00  0.00    -0.104 SA
HETATM   17  C   UNL     1      30.943  44.482  56.587  1.00  0.00     0.050 A 
HETATM   18  C   UNL     1      31.013  43.298  55.893  1.00  0.00     0.008 A 
HETATM   19  C   UNL     1      29.964  43.179  54.936  1.00  0.00     0.017 A 
ENDBRANCH  13  15
ENDBRANCH  10  13
ENDBRANCH   8   9
ENDBRANCH   1   8
BRANCH   5  20
HETATM   20  N   UNL     1      23.065  47.584  49.274  1.00  0.00    -0.338 N 
HETATM   21  C   UNL     1      22.100  47.729  48.333  1.00  0.00     0.316 C 
HETATM   22  N   UNL     1      21.069  48.549  48.624  1.00  0.00    -0.339 N 
HETATM   23  O   UNL     1      22.132  47.184  47.236  1.00  0.00    -0.247 OA
HETATM   24  H   UNL     1      20.372  48.554  47.888  1.00  0.00     0.164 HD
HETATM   25  H   UNL     1      22.865  47.988  50.177  1.00  0.00     0.164 HD
BRANCH  22  26
HETATM   26  C   UNL     1      20.794  49.372  49.802  1.00  0.00     0.086 C 
HETATM   27  C   UNL     1      21.343  50.792  49.597  1.00  0.00     0.025 C 
HETATM   28  C   UNL     1      20.526  51.609  48.595  1.00  0.00     0.002 C 
HETATM   29  C   UNL     1      19.045  51.624  48.955  1.00  0.00     0.000 C 
HETATM   30  C   UNL     1      18.488  50.213  49.118  1.00  0.00     0.002 C 
HETATM   31  C   UNL     1      19.296  49.400  50.129  1.00  0.00     0.025 C 
ENDBRANCH  22  26
ENDBRANCH   5  20
TORSDOF 6
ENDMDL
MODEL 2
REMARK VINA RESULT:      -8.1      2.271      2.692
REMARK  6 active torsions:
REMARK  status: ('A' for Active; 'I' for Inactive)
REMARK    1  A    between atoms: C_2  and  N_3 
REMARK    2  A    between atoms: C_2  and  C_24 
REMARK       I    between atoms: N_3  and  C_4 
REMARK    3  A    between atoms: C_4  and  C_5 
REMARK    4  A    between atoms: C_5  and  N_6 
REMARK    5  A    between atoms: C_10  and  N_11 
REMARK       I    between atoms: N_11  and  C_12 
REMARK       I    between atoms: C_12  and  N_13 
REMARK    6  A    between atoms: N_13  and  C_14 
ROOT
HETATM    1  N   UNL     1      26.340  45.010  51.089  1.00  0.00    -0.063 N 
HETATM    2  H   UNL     1      27.301  44.769  51.383  1.00  0.00     0.280 HD
HETATM    3  C   UNL     1      26.339  45.396  49.639  1.00  0.00     0.237 C 
HETATM    4  C   UNL     1      26.922  46.776  49.416  1.00  0.00     0.053 C 
HETATM    5  C   UNL     1      26.289  47.853  50.289  1.00  0.00     0.089 C 
HETATM    6  C   UNL     1      26.329  47.449  51.760  1.00  0.00     0.053 C 
HETATM    7  C   UNL     1      25.833  46.046  52.065  1.00  0.00     0.237 C 
ENDROOT
BRANCH   1   8
HETATM    8  C   UNL     1      25.538  43.698  51.256  1.00  0.00     0.337 C 
BRANCH   8   9
HETATM    9  C   UNL     1      26.423  42.568  51.769  1.00  0.00     0.244 C 
HETATM   10  N   UNL     1      26.955  42.588  53.017  1.00  0.00    -0.351 N 
HETATM   11  H   UNL     1      27.520  41.767  53.212  1.00  0.00     0.163 HD
HETATM   12  O   UNL     1      26.658  41.610  51.024  1.00  0.00    -0.272 OA
BRANCH  10  13
HETATM   13  C   UNL     1      27.002  43.639  54.038  1.00  0.00     0.120 C 
HETATM   14  C   UNL     1      25.849  43.533  55.031  1.00  0.00     0.038 C 
BRANCH  13  15
HETATM   15  C   UNL     1      28.396  43.753  54.609  1.00  0.00     0.005 A 
HETATM   16  S   UNL     1      28.969  45.159  55.414  1.00  0.00    -0.104 SA
HETATM   17  C   UNL     1      30.521  44.492  55.646  1.00  0.00     0.050 A 
HETATM   18  C   UNL     1      30.624  43.231  55.111  1.00  0.00     0.008 A 
HETATM   19  C   UNL     1      29.402  42.804  54.516  1.00  0.00     0.017 A 
ENDBRANCH  13  15
ENDBRANCH  10  13
ENDBRANCH   8   9
ENDBRANCH   1   8
BRANCH   5  20
HETATM   20  N   UNL     1      24.997  48.332  49.795  1.00  0.00    -0.338 N 
HETATM   21  C   UNL     1      24.766  49.182  48.765  1.00  0.00     0.316 C 
HETATM   22  N   UNL     1      23.491  49.567  48.553  1.00  0.00    -0.339 N 
HETATM   23  O   UNL     1      25.649  49.635  48.045  1.00  0.00    -0.247 OA
HETATM   24  H   UNL     1      23.406  50.156  47.732  1.00  0.00     0.164 HD
HETATM   25  H   UNL     1      24.178  47.939  50.235  1.00  0.00     0.164 HD
BRANCH  22  26
HETATM   26  C   UNL     1      22.256  49.252  49.272  1.00  0.00     0.086 C 
HETATM   27  C   UNL     1      21.564  50.544  49.729  1.00  0.00     0.025 C 
HETATM   28  C   UNL     1      20.924  51.319  48.575  1.00  0.00     0.002 C 
HETATM   29  C   UNL     1      19.988  50.437  47.756  1.00  0.00     0.000 C 
HETATM   30  C   UNL     1      20.687  49.172  47.266  1.00  0.00     0.002 C 
HETATM   31  C   UNL     1      21.315  48.391  48.420  1.00  0.00     0.025 C 
ENDBRANCH  22  26
ENDBRANCH   5  20
TORSDOF 6
ENDMDL
MODEL 3
REMARK VINA RESULT:      -8.1      4.260     10.608
REMARK  6 active torsions:
REMARK  status: ('A' for Active; 'I' for Inactive)
REMARK    1  A    between atoms: C_2  and  N_3 
REMARK    2  A    between atoms: C_2  and  C_24 
REMARK       I    between atoms: N_3  and  C_4 
REMARK    3  A    between atoms: C_4  and  C_5 
REMARK    4  A    between atoms: C_5  and  N_6 
REMARK    5  A    between atoms: C_10  and  N_11 
REMARK       I    between atoms: N_11  and  C_12 
REMARK       I    between atoms: C_12  and  N_13 
REMARK    6  A    between atoms: N_13  and  C_14 
ROOT
HETATM    1  N   UNL     1      21.221  50.202  49.281  1.00  0.00    -0.063 N 
HETATM    2  H   UNL     1      20.822  50.570  48.403  1.00  0.00     0.280 HD
HETATM    3  C   UNL     1      22.599  50.763  49.481  1.00  0.00     0.237 C 
HETATM    4  C   UNL     1      23.616  50.118  48.564  1.00  0.00     0.053 C 
HETATM    5  C   UNL     1      23.610  48.595  48.624  1.00  0.00     0.089 C 
HETATM    6  C   UNL     1      22.205  48.049  48.388  1.00  0.00     0.053 C 
HETATM    7  C   UNL     1      21.107  48.697  49.215  1.00  0.00     0.237 C 
ENDROOT
BRANCH   1   8
HETATM    8  C   UNL     1      20.295  50.748  50.393  1.00  0.00     0.337 C 
BRANCH   8   9
HETATM    9  C   UNL     1      18.995  49.954  50.472  1.00  0.00     0.244 C 
HETATM   10  N   UNL     1      18.022  50.084  49.535  1.00  0.00    -0.351 N 
HETATM   11  H   UNL     1      17.220  49.491  49.723  1.00  0.00     0.163 HD
HETATM   12  O   UNL     1      18.829  49.175  51.416  1.00  0.00    -0.272 OA
BRANCH  10  13
HETATM   13  C   UNL     1      17.857  51.030  48.428  1.00  0.00     0.120 C 
HETATM   14  C   UNL     1      17.779  50.331  47.074  1.00  0.00     0.038 C 
BRANCH  13  15
HETATM   15  C   UNL     1      16.771  52.030  48.751  1.00  0.00     0.005 A 
HETATM   16  S   UNL     1      15.488  52.404  47.671  1.00  0.00    -0.104 SA
HETATM   17  C   UNL     1      14.829  53.568  48.729  1.00  0.00     0.050 A 
HETATM   18  C   UNL     1      15.570  53.694  49.880  1.00  0.00     0.008 A 
HETATM   19  C   UNL     1      16.686  52.809  49.894  1.00  0.00     0.017 A 
ENDBRANCH  13  15
ENDBRANCH  10  13
ENDBRANCH   8   9
ENDBRANCH   1   8
BRANCH   5  20
HETATM   20  N   UNL     1      24.321  48.044  49.778  1.00  0.00    -0.338 N 
HETATM   21  C   UNL     1      25.655  47.843  49.913  1.00  0.00     0.316 C 
HETATM   22  N   UNL     1      26.079  47.225  51.034  1.00  0.00    -0.339 N 
HETATM   23  O   UNL     1      26.481  48.163  49.065  1.00  0.00    -0.247 OA
HETATM   24  H   UNL     1      27.090  47.166  51.074  1.00  0.00     0.164 HD
HETATM   25  H   UNL     1      23.761  47.846  50.594  1.00  0.00     0.164 HD
BRANCH  22  26
HETATM   26  C   UNL     1      25.340  46.678  52.172  1.00  0.00     0.086 C 
HETATM   27  C   UNL     1      25.549  45.159  52.262  1.00  0.00     0.025 C 
HETATM   28  C   UNL     1      26.951  44.778  52.740  1.00  0.00     0.002 C 
HETATM   29  C   UNL     1      27.309  45.474  54.048  1.00  0.00     0.000 C 
HETATM   30  C   UNL     1      27.140  46.988  53.948  1.00  0.00     0.002 C 
HETATM   31  C   UNL     1      25.736  47.370  53.483  1.00  0.00     0.025 C 
ENDBRANCH  22  26
ENDBRANCH   5  20
TORSDOF 6
ENDMDL
MODEL 4
REMARK VINA RESULT:      -8.1      2.162      2.637
REMARK  6 active torsions:
REMARK  status: ('A' for Active; 'I' for Inactive)
REMARK    1  A    between atoms: C_2  and  N_3 
REMARK    2  A    between atoms: C_2  and  C_24 
REMARK       I    between atoms: N_3  and  C_4 
REMARK    3  A    between atoms: C_4  and  C_5 
REMARK    4  A    between atoms: C_5  and  N_6 
REMARK    5  A    between atoms: C_10  and  N_11 
REMARK       I    between atoms: N_11  and  C_12 
REMARK       I    between atoms: C_12  and  N_13 
REMARK    6  A    between atoms: N_13  and  C_14 
ROOT
HETATM    1  N   UNL     1      25.863  46.089  52.158  1.00  0.00    -0.063 N 
HETATM    2  H   UNL     1      26.634  45.405  52.109  1.00  0.00     0.280 HD
HETATM    3  C   UNL     1      24.661  45.544  51.444  1.00  0.00     0.237 C 
HETATM    4  C   UNL     1      24.820  45.593  49.939  1.00  0.00     0.053 C 
HETATM    5  C   UNL     1      25.215  46.968  49.413  1.00  0.00     0.089 C 
HETATM    6  C   UNL     1      26.456  47.487  50.134  1.00  0.00     0.053 C 
HETATM    7  C   UNL     1      26.412  47.402  51.650  1.00  0.00     0.237 C 
ENDROOT
BRANCH   1   8
HETATM    8  C   UNL     1      25.536  46.207  53.665  1.00  0.00     0.337 C 
BRANCH   8   9
HETATM    9  C   UNL     1      25.430  44.834  54.319  1.00  0.00     0.244 C 
HETATM   10  N   UNL     1      26.499  44.005  54.416  1.00  0.00    -0.351 N 
HETATM   11  H   UNL     1      26.272  43.129  54.876  1.00  0.00     0.163 HD
HETATM   12  O   UNL     1      24.338  44.473  54.771  1.00  0.00    -0.272 OA
BRANCH  10  13
HETATM   13  C   UNL     1      27.843  44.076  53.833  1.00  0.00     0.120 C 
HETATM   14  C   UNL     1      28.895  44.501  54.853  1.00  0.00     0.038 C 
BRANCH  13  15
HETATM   15  C   UNL     1      28.129  42.834  53.023  1.00  0.00     0.005 A 
HETATM   16  S   UNL     1      27.477  42.565  51.456  1.00  0.00    -0.104 SA
HETATM   17  C   UNL     1      28.204  41.027  51.329  1.00  0.00     0.050 A 
HETATM   18  C   UNL     1      28.919  40.702  52.457  1.00  0.00     0.008 A 
HETATM   19  C   UNL     1      28.877  41.741  53.431  1.00  0.00     0.017 A 
ENDBRANCH  13  15
ENDBRANCH  10  13
ENDBRANCH   8   9
ENDBRANCH   1   8
BRANCH   5  20
HETATM   20  N   UNL     1      24.098  47.908  49.313  1.00  0.00    -0.338 N 
HETATM   21  C   UNL     1      24.093  49.131  48.730  1.00  0.00     0.316 C 
HETATM   22  N   UNL     1      22.971  49.870  48.848  1.00  0.00    -0.339 N 
HETATM   23  O   UNL     1      25.054  49.606  48.135  1.00  0.00    -0.247 OA
HETATM   24  H   UNL     1      23.038  50.743  48.337  1.00  0.00     0.164 HD
HETATM   25  H   UNL     1      23.209  47.585  49.668  1.00  0.00     0.164 HD
BRANCH  22  26
HETATM   26  C   UNL     1      21.710  49.605  49.541  1.00  0.00     0.086 C 
HETATM   27  C   UNL     1      21.010  50.925  49.896  1.00  0.00     0.025 C 
HETATM   28  C   UNL     1      20.416  51.632  48.676  1.00  0.00     0.002 C 
HETATM   29  C   UNL     1      19.503  50.707  47.879  1.00  0.00     0.000 C 
HETATM   30  C   UNL     1      20.210  49.412  47.490  1.00  0.00     0.002 C 
HETATM   31  C   UNL     1      20.792  48.699  48.709  1.00  0.00     0.025 C 
ENDBRANCH  22  26
ENDBRANCH   5  20
TORSDOF 6
ENDMDL
MODEL 5
REMARK VINA RESULT:      -7.9     11.990     14.536
REMARK  6 active torsions:
REMARK  status: ('A' for Active; 'I' for Inactive)
REMARK    1  A    between atoms: C_2  and  N_3 
REMARK    2  A    between atoms: C_2  and  C_24 
REMARK       I    between atoms: N_3  and  C_4 
REMARK    3  A    between atoms: C_4  and  C_5 
REMARK    4  A    between atoms: C_5  and  N_6 
REMARK    5  A    between atoms: C_10  and  N_11 
REMARK       I    between atoms: N_11  and  C_12 
REMARK       I    between atoms: C_12  and  N_13 
REMARK    6  A    between atoms: N_13  and  C_14 
ROOT
HETATM    1  N   UNL     1      27.247  51.032  39.120  1.00  0.00    -0.063 N 
HETATM    2  H   UNL     1      26.333  51.450  38.882  1.00  0.00     0.280 HD
HETATM    3  C   UNL     1      27.421  51.017  40.610  1.00  0.00     0.237 C 
HETATM    4  C   UNL     1      27.730  52.393  41.163  1.00  0.00     0.053 C 
HETATM    5  C   UNL     1      28.895  53.082  40.464  1.00  0.00     0.089 C 
HETATM    6  C   UNL     1      28.680  53.111  38.953  1.00  0.00     0.053 C 
HETATM    7  C   UNL     1      28.291  51.783  38.325  1.00  0.00     0.237 C 
ENDROOT
BRANCH   1   8
HETATM    8  C   UNL     1      27.156  49.573  38.614  1.00  0.00     0.337 C 
BRANCH   8   9
HETATM    9  C   UNL     1      26.028  48.816  39.305  1.00  0.00     0.244 C 
HETATM   10  N   UNL     1      26.240  47.627  39.923  1.00  0.00    -0.351 N 
HETATM   11  H   UNL     1      25.394  47.247  40.337  1.00  0.00     0.163 HD
HETATM   12  O   UNL     1      24.892  49.303  39.300  1.00  0.00    -0.272 OA
BRANCH  10  13
HETATM   13  C   UNL     1      27.404  46.735  39.945  1.00  0.00     0.120 C 
HETATM   14  C   UNL     1      27.634  46.049  38.603  1.00  0.00     0.038 C 
BRANCH  13  15
HETATM   15  C   UNL     1      28.586  47.434  40.575  1.00  0.00     0.005 A 
HETATM   16  S   UNL     1      30.151  47.454  39.866  1.00  0.00    -0.104 SA
HETATM   17  C   UNL     1      30.818  48.331  41.168  1.00  0.00     0.050 A 
HETATM   18  C   UNL     1      29.884  48.596  42.140  1.00  0.00     0.008 A 
HETATM   19  C   UNL     1      28.601  48.082  41.800  1.00  0.00     0.017 A 
ENDBRANCH  13  15
ENDBRANCH  10  13
ENDBRANCH   8   9
ENDBRANCH   1   8
BRANCH   5  20
HETATM   20  N   UNL     1      30.211  52.621  40.911  1.00  0.00    -0.338 N 
HETATM   21  C   UNL     1      31.367  53.327  40.952  1.00  0.00     0.316 C 
HETATM   22  N   UNL     1      32.486  52.664  41.306  1.00  0.00    -0.339 N 
HETATM   23  O   UNL     1      31.450  54.514  40.658  1.00  0.00    -0.247 OA
HETATM   24  H   UNL     1      33.289  53.280  41.363  1.00  0.00     0.164 HD
HETATM   25  H   UNL     1      30.251  51.686  41.289  1.00  0.00     0.164 HD
BRANCH  22  26
HETATM   26  C   UNL     1      32.708  51.257  41.642  1.00  0.00     0.086 C 
HETATM   27  C   UNL     1      33.714  50.630  40.666  1.00  0.00     0.025 C 
HETATM   28  C   UNL     1      35.148  51.112  40.896  1.00  0.00     0.002 C 
HETATM   29  C   UNL     1      35.579  50.926  42.346  1.00  0.00     0.000 C 
HETATM   30  C   UNL     1      34.601  51.585  43.315  1.00  0.00     0.002 C 
HETATM   31  C   UNL     1      33.171  51.094  43.096  1.00  0.00     0.025 C 
ENDBRANCH  22  26
ENDBRANCH   5  20
TORSDOF 6
ENDMDL
MODEL 6
REMARK VINA RESULT:      -7.5     12.120     14.279
REMARK  6 active torsions:
REMARK  status: ('A' for Active; 'I' for Inactive)
REMARK    1  A    between atoms: C_2  and  N_3 
REMARK    2  A    between atoms: C_2  and  C_24 
REMARK       I    between atoms: N_3  and  C_4 
REMARK    3  A    between atoms: C_4  and  C_5 
REMARK    4  A    between atoms: C_5  and  N_6 
REMARK    5  A    between atoms: C_10  and  N_11 
REMARK       I    between atoms: N_11  and  C_12 
REMARK       I    between atoms: C_12  and  N_13 
REMARK    6  A    between atoms: N_13  and  C_14 
ROOT
HETATM    1  N   UNL     1      31.554  52.300  38.920  1.00  0.00    -0.063 N 
HETATM    2  H   UNL     1      31.661  53.301  38.689  1.00  0.00     0.280 HD
HETATM    3  C   UNL     1      30.741  51.622  37.856  1.00  0.00     0.237 C 
HETATM    4  C   UNL     1      29.270  51.963  37.958  1.00  0.00     0.053 C 
HETATM    5  C   UNL     1      28.686  51.736  39.347  1.00  0.00     0.089 C 
HETATM    6  C   UNL     1      29.513  52.460  40.407  1.00  0.00     0.053 C 
HETATM    7  C   UNL     1      31.013  52.233  40.330  1.00  0.00     0.237 C 
ENDROOT
BRANCH   1   8
HETATM    8  C   UNL     1      32.993  51.733  38.886  1.00  0.00     0.337 C 
BRANCH   8   9
HETATM    9  C   UNL     1      33.964  52.638  39.636  1.00  0.00     0.244 C 
HETATM   10  N   UNL     1      34.850  52.143  40.537  1.00  0.00    -0.351 N 
HETATM   11  H   UNL     1      35.428  52.868  40.952  1.00  0.00     0.163 HD
HETATM   12  O   UNL     1      33.938  53.854  39.414  1.00  0.00    -0.272 OA
BRANCH  10  13
HETATM   13  C   UNL     1      34.996  50.810  41.127  1.00  0.00     0.120 C 
HETATM   14  C   UNL     1      36.359  50.611  41.781  1.00  0.00     0.038 C 
BRANCH  13  15
HETATM   15  C   UNL     1      33.778  50.466  41.952  1.00  0.00     0.005 A 
HETATM   16  S   UNL     1      32.765  49.120  41.615  1.00  0.00    -0.104 SA
HETATM   17  C   UNL     1      31.699  49.500  42.891  1.00  0.00     0.050 A 
HETATM   18  C   UNL     1      32.083  50.637  43.561  1.00  0.00     0.008 A 
HETATM   19  C   UNL     1      33.279  51.192  43.022  1.00  0.00     0.017 A 
ENDBRANCH  13  15
ENDBRANCH  10  13
ENDBRANCH   8   9
ENDBRANCH   1   8
BRANCH   5  20
HETATM   20  N   UNL     1      28.368  50.337  39.635  1.00  0.00    -0.338 N 
HETATM   21  C   UNL     1      27.383  49.581  39.090  1.00  0.00     0.316 C 
HETATM   22  N   UNL     1      27.211  48.338  39.584  1.00  0.00    -0.339 N 
HETATM   23  O   UNL     1      26.633  49.975  38.205  1.00  0.00    -0.247 OA
HETATM   24  H   UNL     1      26.492  47.829  39.083  1.00  0.00     0.164 HD
HETATM   25  H   UNL     1      28.991  49.859  40.269  1.00  0.00     0.164 HD
BRANCH  22  26
HETATM   26  C   UNL     1      27.895  47.626  40.664  1.00  0.00     0.086 C 
HETATM   27  C   UNL     1      27.025  46.464  41.168  1.00  0.00     0.025 C 
HETATM   28  C   UNL     1      26.956  45.298  40.181  1.00  0.00     0.002 C 
HETATM   29  C   UNL     1      28.345  44.825  39.770  1.00  0.00     0.000 C 
HETATM   30  C   UNL     1      29.196  45.970  39.230  1.00  0.00     0.002 C 
HETATM   31  C   UNL     1      29.278  47.130  40.221  1.00  0.00     0.025 C 
ENDBRANCH  22  26
ENDBRANCH   5  20
TORSDOF 6
ENDMDL
MODEL 7
REMARK VINA RESULT:      -7.5     18.702     21.813
REMARK  6 active torsions:
REMARK  status: ('A' for Active; 'I' for Inactive)
REMARK    1  A    between atoms: C_2  and  N_3 
REMARK    2  A    between atoms: C_2  and  C_24 
REMARK       I    between atoms: N_3  and  C_4 
REMARK    3  A    between atoms: C_4  and  C_5 
REMARK    4  A    between atoms: C_5  and  N_6 
REMARK    5  A    between atoms: C_10  and  N_11 
REMARK       I    between atoms: N_11  and  C_12 
REMARK       I    between atoms: C_12  and  N_13 
REMARK    6  A    between atoms: N_13  and  C_14 
ROOT
HETATM    1  N   UNL     1      38.654  44.414  64.769  1.00  0.00    -0.063 N 
HETATM    2  H   UNL     1      38.084  45.150  64.322  1.00  0.00     0.280 HD
HETATM    3  C   UNL     1      39.900  44.185  63.965  1.00  0.00     0.237 C 
HETATM    4  C   UNL     1      39.623  43.416  62.690  1.00  0.00     0.053 C 
HETATM    5  C   UNL     1      38.849  42.123  62.915  1.00  0.00     0.089 C 
HETATM    6  C   UNL     1      37.572  42.388  63.708  1.00  0.00     0.053 C 
HETATM    7  C   UNL     1      37.748  43.221  64.967  1.00  0.00     0.237 C 
ENDROOT
BRANCH   1   8
HETATM    8  C   UNL     1      39.048  45.003  66.144  1.00  0.00     0.337 C 
BRANCH   8   9
HETATM    9  C   UNL     1      37.830  45.537  66.889  1.00  0.00     0.244 C 
HETATM   10  N   UNL     1      37.214  46.688  66.519  1.00  0.00    -0.351 N 
HETATM   11  H   UNL     1      36.419  46.911  67.110  1.00  0.00     0.163 HD
HETATM   12  O   UNL     1      37.397  44.900  67.855  1.00  0.00    -0.272 OA
BRANCH  10  13
HETATM   13  C   UNL     1      37.590  47.726  65.554  1.00  0.00     0.120 C 
HETATM   14  C   UNL     1      36.818  47.606  64.244  1.00  0.00     0.038 C 
BRANCH  13  15
HETATM   15  C   UNL     1      37.607  49.080  66.223  1.00  0.00     0.005 A 
HETATM   16  S   UNL     1      37.114  49.330  67.850  1.00  0.00    -0.104 SA
HETATM   17  C   UNL     1      37.376  51.012  67.757  1.00  0.00     0.050 A 
HETATM   18  C   UNL     1      37.815  51.396  66.512  1.00  0.00     0.008 A 
HETATM   19  C   UNL     1      37.949  50.285  65.630  1.00  0.00     0.017 A 
ENDBRANCH  13  15
ENDBRANCH  10  13
ENDBRANCH   8   9
ENDBRANCH   1   8
BRANCH   5  20
HETATM   20  N   UNL     1      39.675  41.013  63.390  1.00  0.00    -0.338 N 
HETATM   21  C   UNL     1      39.825  39.790  62.826  1.00  0.00     0.316 C 
HETATM   22  N   UNL     1      40.562  38.882  63.499  1.00  0.00    -0.339 N 
HETATM   23  O   UNL     1      39.306  39.461  61.765  1.00  0.00    -0.247 OA
HETATM   24  H   UNL     1      40.665  38.019  62.978  1.00  0.00     0.164 HD
HETATM   25  H   UNL     1      40.247  41.197  64.202  1.00  0.00     0.164 HD
BRANCH  22  26
HETATM   26  C   UNL     1      41.239  38.959  64.794  1.00  0.00     0.086 C 
HETATM   27  C   UNL     1      40.413  38.236  65.868  1.00  0.00     0.025 C 
HETATM   28  C   UNL     1      40.445  36.714  65.722  1.00  0.00     0.002 C 
HETATM   29  C   UNL     1      41.874  36.185  65.659  1.00  0.00     0.000 C 
HETATM   30  C   UNL     1      42.684  36.873  64.564  1.00  0.00     0.002 C 
HETATM   31  C   UNL     1      42.663  38.393  64.717  1.00  0.00     0.025 C 
ENDBRANCH  22  26
ENDBRANCH   5  20
TORSDOF 6
ENDMDL
MODEL 8
REMARK VINA RESULT:      -7.3     12.798     14.405
REMARK  6 active torsions:
REMARK  status: ('A' for Active; 'I' for Inactive)
REMARK    1  A    between atoms: C_2  and  N_3 
REMARK    2  A    between atoms: C_2  and  C_24 
REMARK       I    between atoms: N_3  and  C_4 
REMARK    3  A    between atoms: C_4  and  C_5 
REMARK    4  A    between atoms: C_5  and  N_6 
REMARK    5  A    between atoms: C_10  and  N_11 
REMARK       I    between atoms: N_11  and  C_12 
REMARK       I    between atoms: C_12  and  N_13 
REMARK    6  A    between atoms: N_13  and  C_14 
ROOT
HETATM    1  N   UNL     1      32.910  52.403  41.004  1.00  0.00    -0.063 N 
HETATM    2  H   UNL     1      33.470  53.113  41.503  1.00  0.00     0.280 HD
HETATM    3  C   UNL     1      31.812  53.078  40.236  1.00  0.00     0.237 C 
HETATM    4  C   UNL     1      30.693  53.553  41.139  1.00  0.00     0.053 C 
HETATM    5  C   UNL     1      30.154  52.467  42.062  1.00  0.00     0.089 C 
HETATM    6  C   UNL     1      31.286  51.818  42.853  1.00  0.00     0.053 C 
HETATM    7  C   UNL     1      32.487  51.380  42.031  1.00  0.00     0.237 C 
ENDROOT
BRANCH   1   8
HETATM    8  C   UNL     1      33.897  51.759  40.001  1.00  0.00     0.337 C 
BRANCH   8   9
HETATM    9  C   UNL     1      35.141  52.620  39.817  1.00  0.00     0.244 C 
HETATM   10  N   UNL     1      36.126  52.661  40.749  1.00  0.00    -0.351 N 
HETATM   11  H   UNL     1      36.888  53.278  40.484  1.00  0.00     0.163 HD
HETATM   12  O   UNL     1      35.250  53.297  38.788  1.00  0.00    -0.272 OA
BRANCH  10  13
HETATM   13  C   UNL     1      36.200  52.124  42.112  1.00  0.00     0.120 C 
HETATM   14  C   UNL     1      36.734  50.696  42.144  1.00  0.00     0.038 C 
BRANCH  13  15
HETATM   15  C   UNL     1      36.852  53.126  43.035  1.00  0.00     0.005 A 
HETATM   16  S   UNL     1      37.816  54.432  42.471  1.00  0.00    -0.104 SA
HETATM   17  C   UNL     1      38.166  54.963  44.054  1.00  0.00     0.050 A 
HETATM   18  C   UNL     1      37.581  54.162  45.006  1.00  0.00     0.008 A 
HETATM   19  C   UNL     1      36.825  53.106  44.420  1.00  0.00     0.017 A 
ENDBRANCH  13  15
ENDBRANCH  10  13
ENDBRANCH   8   9
ENDBRANCH   1   8
BRANCH   5  20
HETATM   20  N   UNL     1      29.221  51.545  41.412  1.00  0.00    -0.338 N 
HETATM   21  C   UNL     1      27.891  51.713  41.216  1.00  0.00     0.316 C 
HETATM   22  N   UNL     1      27.208  50.679  40.682  1.00  0.00    -0.339 N 
HETATM   23  O   UNL     1      27.280  52.730  41.523  1.00  0.00    -0.247 OA
HETATM   24  H   UNL     1      26.234  50.913  40.522  1.00  0.00     0.164 HD
HETATM   25  H   UNL     1      29.625  50.712  41.009  1.00  0.00     0.164 HD
BRANCH  22  26
HETATM   26  C   UNL     1      27.642  49.341  40.282  1.00  0.00     0.086 C 
HETATM   27  C   UNL     1      26.560  48.306  40.626  1.00  0.00     0.025 C 
HETATM   28  C   UNL     1      25.337  48.395  39.712  1.00  0.00     0.002 C 
HETATM   29  C   UNL     1      25.729  48.331  38.240  1.00  0.00     0.000 C 
HETATM   30  C   UNL     1      26.773  49.386  37.887  1.00  0.00     0.002 C 
HETATM   31  C   UNL     1      28.001  49.290  38.791  1.00  0.00     0.025 C 
ENDBRANCH  22  26
ENDBRANCH   5  20
TORSDOF 6
ENDMDL
MODEL 9
REMARK VINA RESULT:      -7.2     12.281     14.846
REMARK  6 active torsions:
REMARK  status: ('A' for Active; 'I' for Inactive)
REMARK    1  A    between atoms: C_2  and  N_3 
REMARK    2  A    between atoms: C_2  and  C_24 
REMARK       I    between atoms: N_3  and  C_4 
REMARK    3  A    between atoms: C_4  and  C_5 
REMARK    4  A    between atoms: C_5  and  N_6 
REMARK    5  A    between atoms: C_10  and  N_11 
REMARK       I    between atoms: N_11  and  C_12 
REMARK       I    between atoms: C_12  and  N_13 
REMARK    6  A    between atoms: N_13  and  C_14 
ROOT
HETATM    1  N   UNL     1      27.173  50.823  39.872  1.00  0.00    -0.063 N 
HETATM    2  H   UNL     1      26.259  51.211  39.590  1.00  0.00     0.280 HD
HETATM    3  C   UNL     1      27.689  51.567  41.069  1.00  0.00     0.237 C 
HETATM    4  C   UNL     1      28.208  52.943  40.705  1.00  0.00     0.053 C 
HETATM    5  C   UNL     1      29.221  52.929  39.568  1.00  0.00     0.089 C 
HETATM    6  C   UNL     1      28.662  52.193  38.353  1.00  0.00     0.053 C 
HETATM    7  C   UNL     1      28.050  50.832  38.641  1.00  0.00     0.237 C 
ENDROOT
BRANCH   1   8
HETATM    8  C   UNL     1      26.870  49.364  40.286  1.00  0.00     0.337 C 
BRANCH   8   9
HETATM    9  C   UNL     1      27.979  48.793  41.162  1.00  0.00     0.244 C 
HETATM   10  N   UNL     1      28.907  47.933  40.670  1.00  0.00    -0.351 N 
HETATM   11  H   UNL     1      29.579  47.642  41.374  1.00  0.00     0.163 HD
HETATM   12  O   UNL     1      28.030  49.126  42.351  1.00  0.00    -0.272 OA
BRANCH  10  13
HETATM   13  C   UNL     1      29.001  47.234  39.385  1.00  0.00     0.120 C 
HETATM   14  C   UNL     1      30.293  47.559  38.643  1.00  0.00     0.038 C 
BRANCH  13  15
HETATM   15  C   UNL     1      28.652  45.774  39.556  1.00  0.00     0.005 A 
HETATM   16  S   UNL     1      29.313  44.530  38.572  1.00  0.00    -0.104 SA
HETATM   17  C   UNL     1      28.401  43.318  39.353  1.00  0.00     0.050 A 
HETATM   18  C   UNL     1      27.591  43.836  40.334  1.00  0.00     0.008 A 
HETATM   19  C   UNL     1      27.736  45.248  40.453  1.00  0.00     0.017 A 
ENDBRANCH  13  15
ENDBRANCH  10  13
ENDBRANCH   8   9
ENDBRANCH   1   8
BRANCH   5  20
HETATM   20  N   UNL     1      30.571  52.543  39.980  1.00  0.00    -0.338 N 
HETATM   21  C   UNL     1      31.518  53.323  40.555  1.00  0.00     0.316 C 
HETATM   22  N   UNL     1      32.734  52.775  40.758  1.00  0.00    -0.339 N 
HETATM   23  O   UNL     1      31.338  54.494  40.868  1.00  0.00    -0.247 OA
HETATM   24  H   UNL     1      33.359  53.411  41.239  1.00  0.00     0.164 HD
HETATM   25  H   UNL     1      30.806  51.565  39.880  1.00  0.00     0.164 HD
BRANCH  22  26
HETATM   26  C   UNL     1      33.260  51.449  40.435  1.00  0.00     0.086 C 
HETATM   27  C   UNL     1      34.421  51.566  39.437  1.00  0.00     0.025 C 
HETATM   28  C   UNL     1      35.695  52.131  40.067  1.00  0.00     0.002 C 
HETATM   29  C   UNL     1      36.100  51.352  41.314  1.00  0.00     0.000 C 
HETATM   30  C   UNL     1      34.960  51.270  42.325  1.00  0.00     0.002 C 
HETATM   31  C   UNL     1      33.691  50.693  41.699  1.00  0.00     0.025 C 
ENDBRANCH  22  26
ENDBRANCH   5  20
TORSDOF 6
ENDMDL
MODEL 10
REMARK VINA RESULT:      -7.2     12.414     15.815
REMARK  6 active torsions:
REMARK  status: ('A' for Active; 'I' for Inactive)
REMARK    1  A    between atoms: C_2  and  N_3 
REMARK    2  A    between atoms: C_2  and  C_24 
REMARK       I    between atoms: N_3  and  C_4 
REMARK    3  A    between atoms: C_4  and  C_5 
REMARK    4  A    between atoms: C_5  and  N_6 
REMARK    5  A    between atoms: C_10  and  N_11 
REMARK       I    between atoms: N_11  and  C_12 
REMARK       I    between atoms: C_12  and  N_13 
REMARK    6  A    between atoms: N_13  and  C_14 
ROOT
HETATM    1  N   UNL     1      26.939  50.597  39.371  1.00  0.00    -0.063 N 
HETATM    2  H   UNL     1      26.010  51.030  39.248  1.00  0.00     0.280 HD
HETATM    3  C   UNL     1      27.418  50.822  40.775  1.00  0.00     0.237 C 
HETATM    4  C   UNL     1      27.878  52.248  40.999  1.00  0.00     0.053 C 
HETATM    5  C   UNL     1      28.895  52.728  39.970  1.00  0.00     0.089 C 
HETATM    6  C   UNL     1      28.371  52.516  38.552  1.00  0.00     0.053 C 
HETATM    7  C   UNL     1      27.818  51.131  38.263  1.00  0.00     0.237 C 
ENDROOT
BRANCH   1   8
HETATM    8  C   UNL     1      26.698  49.084  39.163  1.00  0.00     0.337 C 
BRANCH   8   9
HETATM    9  C   UNL     1      25.536  48.585  40.013  1.00  0.00     0.244 C 
HETATM   10  N   UNL     1      24.245  48.807  39.660  1.00  0.00    -0.351 N 
HETATM   11  H   UNL     1      23.586  48.414  40.325  1.00  0.00     0.163 HD
HETATM   12  O   UNL     1      25.782  47.962  41.052  1.00  0.00    -0.272 OA
BRANCH  10  13
HETATM   13  C   UNL     1      23.653  49.643  38.610  1.00  0.00     0.120 C 
HETATM   14  C   UNL     1      23.665  48.956  37.248  1.00  0.00     0.038 C 
BRANCH  13  15
HETATM   15  C   UNL     1      22.340  50.222  39.080  1.00  0.00     0.005 A 
HETATM   16  S   UNL     1      20.840  49.897  38.306  1.00  0.00    -0.104 SA
HETATM   17  C   UNL     1      19.980  50.919  39.366  1.00  0.00     0.050 A 
HETATM   18  C   UNL     1      20.806  51.518  40.286  1.00  0.00     0.008 A 
HETATM   19  C   UNL     1      22.163  51.116  40.123  1.00  0.00     0.017 A 
ENDBRANCH  13  15
ENDBRANCH  10  13
ENDBRANCH   8   9
ENDBRANCH   1   8
BRANCH   5  20
HETATM   20  N   UNL     1      30.259  52.262  40.221  1.00  0.00    -0.338 N 
HETATM   21  C   UNL     1      31.272  52.940  40.813  1.00  0.00     0.316 C 
HETATM   22  N   UNL     1      32.481  52.344  40.847  1.00  0.00    -0.339 N 
HETATM   23  O   UNL     1      31.153  54.065  41.286  1.00  0.00    -0.247 OA
HETATM   24  H   UNL     1      33.161  52.899  41.355  1.00  0.00     0.164 HD
HETATM   25  H   UNL     1      30.453  51.301  39.979  1.00  0.00     0.164 HD
BRANCH  22  26
HETATM   26  C   UNL     1      32.938  51.059  40.317  1.00  0.00     0.086 C 
HETATM   27  C   UNL     1      33.930  51.281  39.166  1.00  0.00     0.025 C 
HETATM   28  C   UNL     1      35.292  51.790  39.642  1.00  0.00     0.002 C 
HETATM   29  C   UNL     1      35.879  50.895  40.727  1.00  0.00     0.000 C 
HETATM   30  C   UNL     1      34.910  50.707  41.891  1.00  0.00     0.002 C 
HETATM   31  C   UNL     1      33.554  50.186  41.418  1.00  0.00     0.025 C 
ENDBRANCH  22  26
ENDBRANCH   5  20
TORSDOF 6
ENDMDL
