MODEL 1
REMARK VINA RESULT:      -9.6      0.000      0.000
REMARK  5 active torsions:
REMARK  status: ('A' for Active; 'I' for Inactive)
REMARK    1  A    between atoms: C_5  and  O_6 
REMARK    2  A    between atoms: O_6  and  C_7 
REMARK    3  A    between atoms: C_7  and  C_8 
REMARK       I    between atoms: C_8  and  N_9 
REMARK    4  A    between atoms: N_9  and  N_10 
REMARK       I    between atoms: N_10  and  C_11 
REMARK    5  A    between atoms: C_11  and  C_12 
ROOT
HETATM    1  N   UNL     1      25.538  45.960  51.159  1.00  0.00    -0.263 N 
HETATM    2  C   UNL     1      25.409  45.196  52.302  1.00  0.00     0.276 C 
HETATM    3  O   UNL     1      24.416  44.504  52.522  1.00  0.00    -0.266 OA
HETATM    4  H   UNL     1      26.318  46.613  51.047  1.00  0.00     0.190 HD
ENDROOT
BRANCH   1   5
HETATM    5  N   UNL     1      24.469  46.055  50.266  1.00  0.00    -0.265 N 
HETATM    6  C   UNL     1      24.160  47.284  49.724  1.00  0.00     0.260 C 
HETATM    7  O   UNL     1      24.829  48.298  49.921  1.00  0.00    -0.269 OA
HETATM    8  H   UNL     1      23.846  45.252  50.183  1.00  0.00     0.190 HD
BRANCH   6   9
HETATM    9  C   UNL     1      22.864  47.303  48.920  1.00  0.00     0.280 C 
BRANCH   9  10
HETATM   10  O   UNL     1      22.901  48.326  47.930  1.00  0.00    -0.342 OA
BRANCH  10  11
HETATM   11  C   UNL     1      21.903  49.260  48.012  1.00  0.00     0.069 A 
HETATM   12  C   UNL     1      22.257  50.457  48.638  1.00  0.00     0.037 A 
HETATM   13  C   UNL     1      21.324  51.488  48.773  1.00  0.00     0.009 A 
HETATM   14  C   UNL     1      20.025  51.335  48.279  1.00  0.00    -0.062 A 
HETATM   15  C   UNL     1      19.029  52.451  48.387  1.00  0.00     0.048 C 
HETATM   16  C   UNL     1      19.685  50.147  47.622  1.00  0.00     0.009 A 
HETATM   17  C   UNL     1      20.619  49.113  47.491  1.00  0.00     0.037 A 
ENDBRANCH  10  11
ENDBRANCH   9  10
ENDBRANCH   6   9
ENDBRANCH   1   5
BRANCH   2  18
HETATM   18  C   UNL     1      26.535  45.270  53.216  1.00  0.00     0.107 A 
HETATM   19  C   UNL     1      27.509  44.310  53.425  1.00  0.00     0.169 A 
HETATM   20  N   UNL     1      28.370  44.817  54.405  1.00  0.00    -0.219 N 
HETATM   21  N   UNL     1      27.695  43.079  52.853  1.00  0.00    -0.233 NA
HETATM   22  C   UNL     1      29.461  44.059  54.857  1.00  0.00     0.036 A 
HETATM   23  N   UNL     1      27.989  46.056  54.800  1.00  0.00    -0.170 NA
HETATM   24  C   UNL     1      30.356  44.617  55.921  1.00  0.00     0.070 C 
HETATM   25  C   UNL     1      29.676  42.840  54.328  1.00  0.00     0.053 A 
HETATM   26  C   UNL     1      28.716  42.389  53.273  1.00  0.00     0.035 A 
HETATM   27  C   UNL     1      28.955  41.036  52.651  1.00  0.00     0.070 C 
HETATM   28  C   UNL     1      26.891  46.330  54.088  1.00  0.00     0.071 A 
HETATM   29  C   UNL     1      26.197  47.632  54.272  1.00  0.00     0.073 C 
ENDBRANCH   2  18
TORSDOF 5
ENDMDL
MODEL 2
REMARK VINA RESULT:      -9.5      1.285      2.774
REMARK  5 active torsions:
REMARK  status: ('A' for Active; 'I' for Inactive)
REMARK    1  A    between atoms: C_5  and  O_6 
REMARK    2  A    between atoms: O_6  and  C_7 
REMARK    3  A    between atoms: C_7  and  C_8 
REMARK       I    between atoms: C_8  and  N_9 
REMARK    4  A    between atoms: N_9  and  N_10 
REMARK       I    between atoms: N_10  and  C_11 
REMARK    5  A    between atoms: C_11  and  C_12 
ROOT
HETATM    1  N   UNL     1      25.459  45.607  50.779  1.00  0.00    -0.263 N 
HETATM    2  C   UNL     1      25.222  44.456  51.506  1.00  0.00     0.276 C 
HETATM    3  O   UNL     1      24.117  43.919  51.545  1.00  0.00    -0.266 OA
HETATM    4  H   UNL     1      26.354  46.099  50.849  1.00  0.00     0.190 HD
ENDROOT
BRANCH   1   5
HETATM    5  N   UNL     1      24.397  46.262  50.156  1.00  0.00    -0.265 N 
HETATM    6  C   UNL     1      24.502  47.613  49.902  1.00  0.00     0.260 C 
HETATM    7  O   UNL     1      25.523  48.264  50.123  1.00  0.00    -0.269 OA
HETATM    8  H   UNL     1      23.513  45.760  50.071  1.00  0.00     0.190 HD
BRANCH   6   9
HETATM    9  C   UNL     1      23.213  48.256  49.398  1.00  0.00     0.280 C 
BRANCH   9  10
HETATM   10  O   UNL     1      23.158  49.629  49.772  1.00  0.00    -0.342 OA
BRANCH  10  11
HETATM   11  C   UNL     1      21.999  50.280  49.443  1.00  0.00     0.069 A 
HETATM   12  C   UNL     1      21.674  50.271  48.086  1.00  0.00     0.037 A 
HETATM   13  C   UNL     1      20.511  50.897  47.632  1.00  0.00     0.009 A 
HETATM   14  C   UNL     1      19.654  51.536  48.533  1.00  0.00    -0.062 A 
HETATM   15  C   UNL     1      18.384  52.178  48.058  1.00  0.00     0.048 C 
HETATM   16  C   UNL     1      19.967  51.513  49.898  1.00  0.00     0.009 A 
HETATM   17  C   UNL     1      21.135  50.891  50.351  1.00  0.00     0.037 A 
ENDBRANCH  10  11
ENDBRANCH   9  10
ENDBRANCH   6   9
ENDBRANCH   1   5
BRANCH   2  18
HETATM   18  C   UNL     1      26.378  43.931  52.212  1.00  0.00     0.107 A 
HETATM   19  C   UNL     1      27.109  44.557  53.205  1.00  0.00     0.169 A 
HETATM   20  N   UNL     1      28.134  43.678  53.567  1.00  0.00    -0.219 N 
HETATM   21  N   UNL     1      26.956  45.785  53.795  1.00  0.00    -0.233 NA
HETATM   22  C   UNL     1      29.070  44.038  54.549  1.00  0.00     0.036 A 
HETATM   23  N   UNL     1      28.064  42.524  52.859  1.00  0.00    -0.170 NA
HETATM   24  C   UNL     1      30.171  43.085  54.902  1.00  0.00     0.070 C 
HETATM   25  C   UNL     1      28.962  45.238  55.147  1.00  0.00     0.053 A 
HETATM   26  C   UNL     1      27.824  46.105  54.711  1.00  0.00     0.035 A 
HETATM   27  C   UNL     1      27.673  47.444  55.388  1.00  0.00     0.070 C 
HETATM   28  C   UNL     1      27.013  42.674  52.047  1.00  0.00     0.071 A 
HETATM   29  C   UNL     1      26.639  41.579  51.113  1.00  0.00     0.073 C 
ENDBRANCH   2  18
TORSDOF 5
ENDMDL
MODEL 3
REMARK VINA RESULT:      -9.4      1.538      3.036
REMARK  5 active torsions:
REMARK  status: ('A' for Active; 'I' for Inactive)
REMARK    1  A    between atoms: C_5  and  O_6 
REMARK    2  A    between atoms: O_6  and  C_7 
REMARK    3  A    between atoms: C_7  and  C_8 
REMARK       I    between atoms: C_8  and  N_9 
REMARK    4  A    between atoms: N_9  and  N_10 
REMARK       I    between atoms: N_10  and  C_11 
REMARK    5  A    between atoms: C_11  and  C_12 
ROOT
HETATM    1  N   UNL     1      24.682  46.083  50.589  1.00  0.00    -0.263 N 
HETATM    2  C   UNL     1      24.575  44.858  51.219  1.00  0.00     0.276 C 
HETATM    3  O   UNL     1      23.564  44.163  51.136  1.00  0.00    -0.266 OA
HETATM    4  H   UNL     1      25.484  46.695  50.760  1.00  0.00     0.190 HD
ENDROOT
BRANCH   1   5
HETATM    5  N   UNL     1      23.577  46.620  49.928  1.00  0.00    -0.265 N 
HETATM    6  C   UNL     1      23.591  47.954  49.578  1.00  0.00     0.260 C 
HETATM    7  O   UNL     1      24.565  48.686  49.745  1.00  0.00    -0.269 OA
HETATM    8  H   UNL     1      22.729  46.055  49.884  1.00  0.00     0.190 HD
BRANCH   6   9
HETATM    9  C   UNL     1      22.261  48.471  49.039  1.00  0.00     0.280 C 
BRANCH   9  10
HETATM   10  O   UNL     1      22.272  49.892  48.954  1.00  0.00    -0.342 OA
BRANCH  10  11
HETATM   11  C   UNL     1      21.053  50.499  49.095  1.00  0.00     0.069 A 
HETATM   12  C   UNL     1      20.194  49.904  50.021  1.00  0.00     0.037 A 
HETATM   13  C   UNL     1      18.925  50.440  50.257  1.00  0.00     0.009 A 
HETATM   14  C   UNL     1      18.502  51.582  49.570  1.00  0.00    -0.062 A 
HETATM   15  C   UNL     1      17.156  52.184  49.845  1.00  0.00     0.048 C 
HETATM   16  C   UNL     1      19.379  52.194  48.668  1.00  0.00     0.009 A 
HETATM   17  C   UNL     1      20.647  51.654  48.428  1.00  0.00     0.037 A 
ENDBRANCH  10  11
ENDBRANCH   9  10
ENDBRANCH   6   9
ENDBRANCH   1   5
BRANCH   2  18
HETATM   18  C   UNL     1      25.747  44.458  51.978  1.00  0.00     0.107 A 
HETATM   19  C   UNL     1      26.362  45.157  53.001  1.00  0.00     0.169 A 
HETATM   20  N   UNL     1      27.457  44.390  53.411  1.00  0.00    -0.219 N 
HETATM   21  N   UNL     1      26.054  46.361  53.578  1.00  0.00    -0.233 NA
HETATM   22  C   UNL     1      28.305  44.846  54.432  1.00  0.00     0.036 A 
HETATM   23  N   UNL     1      27.541  43.236  52.705  1.00  0.00    -0.170 NA
HETATM   24  C   UNL     1      29.483  44.014  54.838  1.00  0.00     0.070 C 
HETATM   25  C   UNL     1      28.044  46.028  55.021  1.00  0.00     0.053 A 
HETATM   26  C   UNL     1      26.841  46.770  54.531  1.00  0.00     0.035 A 
HETATM   27  C   UNL     1      26.520  48.085  55.195  1.00  0.00     0.070 C 
HETATM   28  C   UNL     1      26.517  43.275  51.846  1.00  0.00     0.071 A 
HETATM   29  C   UNL     1      26.303  42.147  50.901  1.00  0.00     0.073 C 
ENDBRANCH   2  18
TORSDOF 5
ENDMDL
MODEL 4
REMARK VINA RESULT:      -9.2      2.246      9.899
REMARK  5 active torsions:
REMARK  status: ('A' for Active; 'I' for Inactive)
REMARK    1  A    between atoms: C_5  and  O_6 
REMARK    2  A    between atoms: O_6  and  C_7 
REMARK    3  A    between atoms: C_7  and  C_8 
REMARK       I    between atoms: C_8  and  N_9 
REMARK    4  A    between atoms: N_9  and  N_10 
REMARK       I    between atoms: N_10  and  C_11 
REMARK    5  A    between atoms: C_11  and  C_12 
ROOT
HETATM    1  N   UNL     1      24.376  45.419  51.521  1.00  0.00    -0.263 N 
HETATM    2  C   UNL     1      24.703  45.674  50.203  1.00  0.00     0.276 C 
HETATM    3  O   UNL     1      25.865  45.674  49.802  1.00  0.00    -0.266 OA
HETATM    4  H   UNL     1      23.416  45.533  51.857  1.00  0.00     0.190 HD
ENDROOT
BRANCH   1   5
HETATM    5  N   UNL     1      25.389  45.268  52.468  1.00  0.00    -0.265 N 
HETATM    6  C   UNL     1      25.853  46.383  53.132  1.00  0.00     0.260 C 
HETATM    7  O   UNL     1      25.364  47.504  52.994  1.00  0.00    -0.269 OA
HETATM    8  H   UNL     1      25.872  44.371  52.509  1.00  0.00     0.190 HD
BRANCH   6   9
HETATM    9  C   UNL     1      27.084  46.128  53.996  1.00  0.00     0.280 C 
BRANCH   9  10
HETATM   10  O   UNL     1      27.755  44.944  53.576  1.00  0.00    -0.342 OA
BRANCH  10  11
HETATM   11  C   UNL     1      28.782  44.533  54.382  1.00  0.00     0.069 A 
HETATM   12  C   UNL     1      29.126  45.417  55.407  1.00  0.00     0.037 A 
HETATM   13  C   UNL     1      30.155  45.102  56.298  1.00  0.00     0.009 A 
HETATM   14  C   UNL     1      30.849  43.895  56.178  1.00  0.00    -0.062 A 
HETATM   15  C   UNL     1      31.930  43.533  57.154  1.00  0.00     0.048 C 
HETATM   16  C   UNL     1      30.478  42.997  55.170  1.00  0.00     0.009 A 
HETATM   17  C   UNL     1      29.452  43.315  54.274  1.00  0.00     0.037 A 
ENDBRANCH  10  11
ENDBRANCH   9  10
ENDBRANCH   6   9
ENDBRANCH   1   5
BRANCH   2  18
HETATM   18  C   UNL     1      23.569  45.935  49.333  1.00  0.00     0.107 A 
HETATM   19  C   UNL     1      23.078  47.169  48.945  1.00  0.00     0.169 A 
HETATM   20  N   UNL     1      21.972  46.922  48.125  1.00  0.00    -0.219 N 
HETATM   21  N   UNL     1      23.501  48.438  49.240  1.00  0.00    -0.233 NA
HETATM   22  C   UNL     1      21.233  47.985  47.584  1.00  0.00     0.036 A 
HETATM   23  N   UNL     1      21.765  45.592  47.967  1.00  0.00    -0.170 NA
HETATM   24  C   UNL     1      20.041  47.693  46.725  1.00  0.00     0.070 C 
HETATM   25  C   UNL     1      21.609  49.249  47.856  1.00  0.00     0.053 A 
HETATM   26  C   UNL     1      22.814  49.417  48.726  1.00  0.00     0.035 A 
HETATM   27  C   UNL     1      23.264  50.825  49.021  1.00  0.00     0.070 C 
HETATM   28  C   UNL     1      22.721  44.999  48.689  1.00  0.00     0.071 A 
HETATM   29  C   UNL     1      22.794  43.515  48.742  1.00  0.00     0.073 C 
ENDBRANCH   2  18
TORSDOF 5
ENDMDL
MODEL 5
REMARK VINA RESULT:      -8.8      1.545      2.165
REMARK  5 active torsions:
REMARK  status: ('A' for Active; 'I' for Inactive)
REMARK    1  A    between atoms: C_5  and  O_6 
REMARK    2  A    between atoms: O_6  and  C_7 
REMARK    3  A    between atoms: C_7  and  C_8 
REMARK       I    between atoms: C_8  and  N_9 
REMARK    4  A    between atoms: N_9  and  N_10 
REMARK       I    between atoms: N_10  and  C_11 
REMARK    5  A    between atoms: C_11  and  C_12 
ROOT
HETATM    1  N   UNL     1      25.236  45.247  52.825  1.00  0.00    -0.263 N 
HETATM    2  C   UNL     1      25.921  46.412  53.110  1.00  0.00     0.276 C 
HETATM    3  O   UNL     1      25.643  47.485  52.578  1.00  0.00    -0.266 OA
HETATM    4  H   UNL     1      25.553  44.346  53.192  1.00  0.00     0.190 HD
ENDROOT
BRANCH   1   5
HETATM    5  N   UNL     1      24.270  45.241  51.818  1.00  0.00    -0.265 N 
HETATM    6  C   UNL     1      24.571  44.656  50.607  1.00  0.00     0.260 C 
HETATM    7  O   UNL     1      25.625  44.061  50.388  1.00  0.00    -0.269 OA
HETATM    8  H   UNL     1      23.442  45.823  51.950  1.00  0.00     0.190 HD
BRANCH   6   9
HETATM    9  C   UNL     1      23.517  44.880  49.527  1.00  0.00     0.280 C 
BRANCH   9  10
HETATM   10  O   UNL     1      23.875  45.980  48.696  1.00  0.00    -0.342 OA
BRANCH  10  11
HETATM   11  C   UNL     1      23.089  47.093  48.823  1.00  0.00     0.069 A 
HETATM   12  C   UNL     1      23.755  48.251  49.229  1.00  0.00     0.037 A 
HETATM   13  C   UNL     1      23.057  49.451  49.385  1.00  0.00     0.009 A 
HETATM   14  C   UNL     1      21.683  49.508  49.132  1.00  0.00    -0.062 A 
HETATM   15  C   UNL     1      20.935  50.802  49.262  1.00  0.00     0.048 C 
HETATM   16  C   UNL     1      21.026  48.353  48.693  1.00  0.00     0.009 A 
HETATM   17  C   UNL     1      21.725  47.150  48.542  1.00  0.00     0.037 A 
ENDBRANCH  10  11
ENDBRANCH   9  10
ENDBRANCH   6   9
ENDBRANCH   1   5
BRANCH   2  18
HETATM   18  C   UNL     1      26.987  46.269  54.087  1.00  0.00     0.107 A 
HETATM   19  C   UNL     1      27.944  45.272  54.143  1.00  0.00     0.169 A 
HETATM   20  N   UNL     1      28.740  45.541  55.261  1.00  0.00    -0.219 N 
HETATM   21  N   UNL     1      28.166  44.193  53.328  1.00  0.00    -0.233 NA
HETATM   22  C   UNL     1      29.800  44.687  55.604  1.00  0.00     0.036 A 
HETATM   23  N   UNL     1      28.336  46.670  55.892  1.00  0.00    -0.170 NA
HETATM   24  C   UNL     1      30.624  44.987  56.819  1.00  0.00     0.070 C 
HETATM   25  C   UNL     1      30.047  43.609  54.837  1.00  0.00     0.053 A 
HETATM   26  C   UNL     1      29.157  43.412  53.651  1.00  0.00     0.035 A 
HETATM   27  C   UNL     1      29.435  42.224  52.765  1.00  0.00     0.070 C 
HETATM   28  C   UNL     1      27.286  47.108  55.190  1.00  0.00     0.071 A 
HETATM   29  C   UNL     1      26.583  48.349  55.609  1.00  0.00     0.073 C 
ENDBRANCH   2  18
TORSDOF 5
ENDMDL
MODEL 6
REMARK VINA RESULT:      -8.5      1.464      2.719
REMARK  5 active torsions:
REMARK  status: ('A' for Active; 'I' for Inactive)
REMARK    1  A    between atoms: C_5  and  O_6 
REMARK    2  A    between atoms: O_6  and  C_7 
REMARK    3  A    between atoms: C_7  and  C_8 
REMARK       I    between atoms: C_8  and  N_9 
REMARK    4  A    between atoms: N_9  and  N_10 
REMARK       I    between atoms: N_10  and  C_11 
REMARK    5  A    between atoms: C_11  and  C_12 
ROOT
HETATM    1  N   UNL     1      25.454  46.715  50.142  1.00  0.00    -0.263 N 
HETATM    2  C   UNL     1      25.504  46.429  51.493  1.00  0.00     0.276 C 
HETATM    3  O   UNL     1      25.139  47.232  52.349  1.00  0.00    -0.266 OA
HETATM    4  H   UNL     1      25.864  46.079  49.453  1.00  0.00     0.190 HD
ENDROOT
BRANCH   1   5
HETATM    5  N   UNL     1      25.091  47.994  49.719  1.00  0.00    -0.265 N 
HETATM    6  C   UNL     1      23.861  48.176  49.122  1.00  0.00     0.260 C 
HETATM    7  O   UNL     1      23.025  47.281  49.011  1.00  0.00    -0.269 OA
HETATM    8  H   UNL     1      25.813  48.714  49.706  1.00  0.00     0.190 HD
BRANCH   6   9
HETATM    9  C   UNL     1      23.655  49.567  48.530  1.00  0.00     0.280 C 
BRANCH   9  10
HETATM   10  O   UNL     1      22.573  49.564  47.604  1.00  0.00    -0.342 OA
BRANCH  10  11
HETATM   11  C   UNL     1      21.442  50.211  48.020  1.00  0.00     0.069 A 
HETATM   12  C   UNL     1      21.479  50.697  49.329  1.00  0.00     0.037 A 
HETATM   13  C   UNL     1      20.385  51.382  49.862  1.00  0.00     0.009 A 
HETATM   14  C   UNL     1      19.239  51.596  49.088  1.00  0.00    -0.062 A 
HETATM   15  C   UNL     1      18.075  52.363  49.641  1.00  0.00     0.048 C 
HETATM   16  C   UNL     1      19.220  51.138  47.766  1.00  0.00     0.009 A 
HETATM   17  C   UNL     1      20.314  50.446  47.235  1.00  0.00     0.037 A 
ENDBRANCH  10  11
ENDBRANCH   9  10
ENDBRANCH   6   9
ENDBRANCH   1   5
BRANCH   2  18
HETATM   18  C   UNL     1      26.013  45.108  51.818  1.00  0.00     0.107 A 
HETATM   19  C   UNL     1      26.928  44.782  52.803  1.00  0.00     0.169 A 
HETATM   20  N   UNL     1      27.125  43.399  52.728  1.00  0.00    -0.219 N 
HETATM   21  N   UNL     1      27.577  45.565  53.721  1.00  0.00    -0.233 NA
HETATM   22  C   UNL     1      28.025  42.759  53.593  1.00  0.00     0.036 A 
HETATM   23  N   UNL     1      26.360  42.846  51.756  1.00  0.00    -0.170 NA
HETATM   24  C   UNL     1      28.232  41.279  53.478  1.00  0.00     0.070 C 
HETATM   25  C   UNL     1      28.691  43.492  54.505  1.00  0.00     0.053 A 
HETATM   26  C   UNL     1      28.403  44.959  54.525  1.00  0.00     0.035 A 
HETATM   27  C   UNL     1      29.121  45.792  55.556  1.00  0.00     0.070 C 
HETATM   28  C   UNL     1      25.692  43.868  51.210  1.00  0.00     0.071 A 
HETATM   29  C   UNL     1      24.744  43.618  50.093  1.00  0.00     0.073 C 
ENDBRANCH   2  18
TORSDOF 5
ENDMDL
MODEL 7
REMARK VINA RESULT:      -8.3      2.132     10.439
REMARK  5 active torsions:
REMARK  status: ('A' for Active; 'I' for Inactive)
REMARK    1  A    between atoms: C_5  and  O_6 
REMARK    2  A    between atoms: O_6  and  C_7 
REMARK    3  A    between atoms: C_7  and  C_8 
REMARK       I    between atoms: C_8  and  N_9 
REMARK    4  A    between atoms: N_9  and  N_10 
REMARK       I    between atoms: N_10  and  C_11 
REMARK    5  A    between atoms: C_11  and  C_12 
ROOT
HETATM    1  N   UNL     1      23.923  46.313  50.266  1.00  0.00    -0.263 N 
HETATM    2  C   UNL     1      23.752  47.345  49.363  1.00  0.00     0.276 C 
HETATM    3  O   UNL     1      24.576  48.248  49.233  1.00  0.00    -0.266 OA
HETATM    4  H   UNL     1      23.177  45.634  50.438  1.00  0.00     0.190 HD
ENDROOT
BRANCH   1   5
HETATM    5  N   UNL     1      25.003  46.339  51.150  1.00  0.00    -0.265 N 
HETATM    6  C   UNL     1      25.631  45.155  51.472  1.00  0.00     0.260 C 
HETATM    7  O   UNL     1      25.342  44.075  50.957  1.00  0.00    -0.269 OA
HETATM    8  H   UNL     1      25.177  47.204  51.661  1.00  0.00     0.190 HD
BRANCH   6   9
HETATM    9  C   UNL     1      26.664  45.280  52.587  1.00  0.00     0.280 C 
BRANCH   9  10
HETATM   10  O   UNL     1      27.640  44.248  52.487  1.00  0.00    -0.342 OA
BRANCH  10  11
HETATM   11  C   UNL     1      28.523  44.171  53.530  1.00  0.00     0.069 A 
HETATM   12  C   UNL     1      29.507  43.189  53.406  1.00  0.00     0.037 A 
HETATM   13  C   UNL     1      30.470  43.021  54.405  1.00  0.00     0.009 A 
HETATM   14  C   UNL     1      30.462  43.839  55.539  1.00  0.00    -0.062 A 
HETATM   15  C   UNL     1      31.514  43.690  56.598  1.00  0.00     0.048 C 
HETATM   16  C   UNL     1      29.494  44.845  55.642  1.00  0.00     0.009 A 
HETATM   17  C   UNL     1      28.527  45.009  54.644  1.00  0.00     0.037 A 
ENDBRANCH  10  11
ENDBRANCH   9  10
ENDBRANCH   6   9
ENDBRANCH   1   5
BRANCH   2  18
HETATM   18  C   UNL     1      22.530  47.275  48.581  1.00  0.00     0.107 A 
HETATM   19  C   UNL     1      21.502  48.200  48.548  1.00  0.00     0.169 A 
HETATM   20  N   UNL     1      20.536  47.697  47.671  1.00  0.00    -0.219 N 
HETATM   21  N   UNL     1      21.350  49.397  49.197  1.00  0.00    -0.233 NA
HETATM   22  C   UNL     1      19.347  48.405  47.438  1.00  0.00     0.036 A 
HETATM   23  N   UNL     1      20.923  46.511  47.141  1.00  0.00    -0.170 NA
HETATM   24  C   UNL     1      18.319  47.833  46.509  1.00  0.00     0.070 C 
HETATM   25  C   UNL     1      19.152  49.581  48.062  1.00  0.00     0.053 A 
HETATM   26  C   UNL     1      20.247  50.050  48.966  1.00  0.00     0.035 A 
HETATM   27  C   UNL     1      20.057  51.378  49.654  1.00  0.00     0.070 C 
HETATM   28  C   UNL     1      22.118  46.257  47.684  1.00  0.00     0.071 A 
HETATM   29  C   UNL     1      22.846  45.014  47.318  1.00  0.00     0.073 C 
ENDBRANCH   2  18
TORSDOF 5
ENDMDL
MODEL 8
REMARK VINA RESULT:      -8.3      2.715     10.069
REMARK  5 active torsions:
REMARK  status: ('A' for Active; 'I' for Inactive)
REMARK    1  A    between atoms: C_5  and  O_6 
REMARK    2  A    between atoms: O_6  and  C_7 
REMARK    3  A    between atoms: C_7  and  C_8 
REMARK       I    between atoms: C_8  and  N_9 
REMARK    4  A    between atoms: N_9  and  N_10 
REMARK       I    between atoms: N_10  and  C_11 
REMARK    5  A    between atoms: C_11  and  C_12 
ROOT
HETATM    1  N   UNL     1      22.514  47.402  49.588  1.00  0.00    -0.263 N 
HETATM    2  C   UNL     1      22.485  48.334  48.568  1.00  0.00     0.276 C 
HETATM    3  O   UNL     1      23.243  48.275  47.602  1.00  0.00    -0.266 OA
HETATM    4  H   UNL     1      21.954  47.531  50.435  1.00  0.00     0.190 HD
ENDROOT
BRANCH   1   5
HETATM    5  N   UNL     1      23.506  46.420  49.600  1.00  0.00    -0.265 N 
HETATM    6  C   UNL     1      24.638  46.624  50.359  1.00  0.00     0.260 C 
HETATM    7  O   UNL     1      24.791  47.596  51.098  1.00  0.00    -0.269 OA
HETATM    8  H   UNL     1      23.440  45.670  48.912  1.00  0.00     0.190 HD
BRANCH   6   9
HETATM    9  C   UNL     1      25.730  45.581  50.142  1.00  0.00     0.280 C 
BRANCH   9  10
HETATM   10  O   UNL     1      25.591  44.509  51.070  1.00  0.00    -0.342 OA
BRANCH  10  11
HETATM   11  C   UNL     1      26.650  44.326  51.919  1.00  0.00     0.069 A 
HETATM   12  C   UNL     1      26.526  44.938  53.167  1.00  0.00     0.037 A 
HETATM   13  C   UNL     1      27.540  44.814  54.120  1.00  0.00     0.009 A 
HETATM   14  C   UNL     1      28.690  44.070  53.836  1.00  0.00    -0.062 A 
HETATM   15  C   UNL     1      29.766  43.901  54.868  1.00  0.00     0.048 C 
HETATM   16  C   UNL     1      28.794  43.430  52.596  1.00  0.00     0.009 A 
HETATM   17  C   UNL     1      27.780  43.559  51.640  1.00  0.00     0.037 A 
ENDBRANCH  10  11
ENDBRANCH   9  10
ENDBRANCH   6   9
ENDBRANCH   1   5
BRANCH   2  18
HETATM   18  C   UNL     1      21.489  49.380  48.726  1.00  0.00     0.107 A 
HETATM   19  C   UNL     1      20.115  49.228  48.774  1.00  0.00     0.169 A 
HETATM   20  N   UNL     1      19.573  50.509  48.917  1.00  0.00    -0.219 N 
HETATM   21  N   UNL     1      19.332  48.105  48.706  1.00  0.00    -0.233 NA
HETATM   22  C   UNL     1      18.183  50.694  48.975  1.00  0.00     0.036 A 
HETATM   23  N   UNL     1      20.546  51.450  48.981  1.00  0.00    -0.170 NA
HETATM   24  C   UNL     1      17.628  52.079  49.107  1.00  0.00     0.070 C 
HETATM   25  C   UNL     1      17.376  49.619  48.902  1.00  0.00     0.053 A 
HETATM   26  C   UNL     1      18.044  48.287  48.770  1.00  0.00     0.035 A 
HETATM   27  C   UNL     1      17.157  47.069  48.711  1.00  0.00     0.070 C 
HETATM   28  C   UNL     1      21.695  50.775  48.867  1.00  0.00     0.071 A 
HETATM   29  C   UNL     1      22.988  51.508  48.898  1.00  0.00     0.073 C 
ENDBRANCH   2  18
TORSDOF 5
ENDMDL
MODEL 9
REMARK VINA RESULT:      -8.3      4.808      9.391
REMARK  5 active torsions:
REMARK  status: ('A' for Active; 'I' for Inactive)
REMARK    1  A    between atoms: C_5  and  O_6 
REMARK    2  A    between atoms: O_6  and  C_7 
REMARK    3  A    between atoms: C_7  and  C_8 
REMARK       I    between atoms: C_8  and  N_9 
REMARK    4  A    between atoms: N_9  and  N_10 
REMARK       I    between atoms: N_10  and  C_11 
REMARK    5  A    between atoms: C_11  and  C_12 
ROOT
HETATM    1  N   UNL     1      25.539  42.429  51.727  1.00  0.00    -0.263 N 
HETATM    2  C   UNL     1      25.961  42.571  50.419  1.00  0.00     0.276 C 
HETATM    3  O   UNL     1      26.963  43.217  50.118  1.00  0.00    -0.266 OA
HETATM    4  H   UNL     1      24.644  41.984  51.947  1.00  0.00     0.190 HD
ENDROOT
BRANCH   1   5
HETATM    5  N   UNL     1      26.191  43.128  52.744  1.00  0.00    -0.265 N 
HETATM    6  C   UNL     1      25.603  44.265  53.255  1.00  0.00     0.260 C 
HETATM    7  O   UNL     1      24.486  44.658  52.919  1.00  0.00    -0.269 OA
HETATM    8  H   UNL     1      27.157  42.876  52.950  1.00  0.00     0.190 HD
BRANCH   6   9
HETATM    9  C   UNL     1      26.490  45.048  54.218  1.00  0.00     0.280 C 
BRANCH   9  10
HETATM   10  O   UNL     1      27.800  45.203  53.680  1.00  0.00    -0.342 OA
BRANCH  10  11
HETATM   11  C   UNL     1      28.815  44.708  54.454  1.00  0.00     0.069 A 
HETATM   12  C   UNL     1      29.240  45.546  55.487  1.00  0.00     0.037 A 
HETATM   13  C   UNL     1      30.265  45.145  56.348  1.00  0.00     0.009 A 
HETATM   14  C   UNL     1      30.874  43.897  56.189  1.00  0.00    -0.062 A 
HETATM   15  C   UNL     1      31.949  43.444  57.132  1.00  0.00     0.048 C 
HETATM   16  C   UNL     1      30.421  43.046  55.173  1.00  0.00     0.009 A 
HETATM   17  C   UNL     1      29.399  43.451  54.308  1.00  0.00     0.037 A 
ENDBRANCH  10  11
ENDBRANCH   9  10
ENDBRANCH   6   9
ENDBRANCH   1   5
BRANCH   2  18
HETATM   18  C   UNL     1      25.133  41.897  49.435  1.00  0.00     0.107 A 
HETATM   19  C   UNL     1      25.476  40.804  48.659  1.00  0.00     0.169 A 
HETATM   20  N   UNL     1      24.370  40.521  47.850  1.00  0.00    -0.219 N 
HETATM   21  N   UNL     1      26.630  40.068  48.604  1.00  0.00    -0.233 NA
HETATM   22  C   UNL     1      24.414  39.467  46.925  1.00  0.00     0.036 A 
HETATM   23  N   UNL     1      23.347  41.373  48.102  1.00  0.00    -0.170 NA
HETATM   24  C   UNL     1      23.223  39.198  46.057  1.00  0.00     0.070 C 
HETATM   25  C   UNL     1      25.532  38.724  46.832  1.00  0.00     0.053 A 
HETATM   26  C   UNL     1      26.657  39.087  47.749  1.00  0.00     0.035 A 
HETATM   27  C   UNL     1      27.908  38.249  47.675  1.00  0.00     0.070 C 
HETATM   28  C   UNL     1      23.802  42.198  49.051  1.00  0.00     0.071 A 
HETATM   29  C   UNL     1      22.924  43.277  49.574  1.00  0.00     0.073 C 
ENDBRANCH   2  18
TORSDOF 5
ENDMDL
MODEL 10
REMARK VINA RESULT:      -8.2      3.876      9.755
REMARK  5 active torsions:
REMARK  status: ('A' for Active; 'I' for Inactive)
REMARK    1  A    between atoms: C_5  and  O_6 
REMARK    2  A    between atoms: O_6  and  C_7 
REMARK    3  A    between atoms: C_7  and  C_8 
REMARK       I    between atoms: C_8  and  N_9 
REMARK    4  A    between atoms: N_9  and  N_10 
REMARK       I    between atoms: N_10  and  C_11 
REMARK    5  A    between atoms: C_11  and  C_12 
ROOT
HETATM    1  N   UNL     1      25.762  42.350  51.368  1.00  0.00    -0.263 N 
HETATM    2  C   UNL     1      26.206  42.662  50.098  1.00  0.00     0.276 C 
HETATM    3  O   UNL     1      27.159  43.414  49.900  1.00  0.00    -0.266 OA
HETATM    4  H   UNL     1      24.902  41.814  51.509  1.00  0.00     0.190 HD
ENDROOT
BRANCH   1   5
HETATM    5  N   UNL     1      26.325  42.988  52.474  1.00  0.00    -0.265 N 
HETATM    6  C   UNL     1      25.669  44.067  53.028  1.00  0.00     0.260 C 
HETATM    7  O   UNL     1      24.564  44.453  52.649  1.00  0.00    -0.269 OA
HETATM    8  H   UNL     1      27.284  42.748  52.724  1.00  0.00     0.190 HD
BRANCH   6   9
HETATM    9  C   UNL     1      26.469  44.799  54.102  1.00  0.00     0.280 C 
BRANCH   9  10
HETATM   10  O   UNL     1      27.778  45.104  53.632  1.00  0.00    -0.342 OA
BRANCH  10  11
HETATM   11  C   UNL     1      28.805  44.637  54.408  1.00  0.00     0.069 A 
HETATM   12  C   UNL     1      29.158  45.453  55.484  1.00  0.00     0.037 A 
HETATM   13  C   UNL     1      30.186  45.076  56.351  1.00  0.00     0.009 A 
HETATM   14  C   UNL     1      30.871  43.873  56.155  1.00  0.00    -0.062 A 
HETATM   15  C   UNL     1      31.951  43.444  57.103  1.00  0.00     0.048 C 
HETATM   16  C   UNL     1      30.491  43.042  55.095  1.00  0.00     0.009 A 
HETATM   17  C   UNL     1      29.464  43.423  54.223  1.00  0.00     0.037 A 
ENDBRANCH  10  11
ENDBRANCH   9  10
ENDBRANCH   6   9
ENDBRANCH   1   5
BRANCH   2  18
HETATM   18  C   UNL     1      25.464  42.031  49.020  1.00  0.00     0.107 A 
HETATM   19  C   UNL     1      24.312  42.496  48.412  1.00  0.00     0.169 A 
HETATM   20  N   UNL     1      23.956  41.547  47.447  1.00  0.00    -0.219 N 
HETATM   21  N   UNL     1      23.580  43.634  48.624  1.00  0.00    -0.233 NA
HETATM   22  C   UNL     1      22.804  41.723  46.665  1.00  0.00     0.036 A 
HETATM   23  N   UNL     1      24.844  40.524  47.413  1.00  0.00    -0.170 NA
HETATM   24  C   UNL     1      22.434  40.681  45.654  1.00  0.00     0.070 C 
HETATM   25  C   UNL     1      22.050  42.823  46.848  1.00  0.00     0.053 A 
HETATM   26  C   UNL     1      22.518  43.792  47.887  1.00  0.00     0.035 A 
HETATM   27  C   UNL     1      21.699  45.042  48.089  1.00  0.00     0.070 C 
HETATM   28  C   UNL     1      25.748  40.812  48.354  1.00  0.00     0.071 A 
HETATM   29  C   UNL     1      26.887  39.886  48.593  1.00  0.00     0.073 C 
ENDBRANCH   2  18
TORSDOF 5
ENDMDL
