MODEL 1
REMARK VINA RESULT:      -8.7      0.000      0.000
REMARK  4 active torsions:
REMARK  status: ('A' for Active; 'I' for Inactive)
REMARK    1  A    between atoms: N_8  and  C_10 
REMARK    2  A    between atoms: C_10  and  C_11 
REMARK    3  A    between atoms: C_14  and  C_15 
REMARK    4  A    between atoms: C_22  and  C_23 
ROOT
HETATM    1  C   UNL     1      30.245  42.600  53.284  1.00  0.00     0.269 C 
HETATM    2  N   UNL     1      28.975  42.828  52.490  1.00  0.00    -0.073 N 
HETATM    3  H   UNL     1      29.272  42.845  51.506  1.00  0.00     0.279 HD
HETATM    4  C   UNL     1      28.343  44.150  52.832  1.00  0.00     0.244 C 
HETATM    5  C   UNL     1      27.107  44.440  51.939  1.00  0.00    -0.013 C 
HETATM    6  C   UNL     1      26.390  45.698  52.514  1.00  0.00     0.039 C 
HETATM    7  C   UNL     1      25.257  46.231  51.636  1.00  0.00     0.236 C 
HETATM    8  N   UNL     1      25.748  46.495  50.239  1.00  0.00    -0.064 N 
HETATM    9  H   UNL     1      24.891  46.694  49.693  1.00  0.00     0.280 HD
HETATM   10  C   UNL     1      26.408  45.310  49.602  1.00  0.00     0.236 C 
HETATM   11  C   UNL     1      27.544  44.792  50.489  1.00  0.00     0.039 C 
HETATM   12  C   UNL     1      26.144  43.218  52.015  1.00  0.00     0.022 C 
HETATM   13  C   UNL     1      26.785  41.826  51.763  1.00  0.00     0.045 C 
HETATM   14  C   UNL     1      28.018  41.662  52.671  1.00  0.00     0.243 C 
ENDROOT
BRANCH  13  15
HETATM   15  C   UNL     1      26.974  41.512  50.281  1.00  0.00    -0.052 A 
HETATM   16  C   UNL     1      28.145  40.958  49.739  1.00  0.00     0.007 A 
HETATM   17  C   UNL     1      28.252  40.696  48.369  1.00  0.00     0.001 A 
HETATM   18  C   UNL     1      27.183  40.955  47.518  1.00  0.00     0.000 A 
HETATM   19  C   UNL     1      25.996  41.457  48.038  1.00  0.00     0.001 A 
HETATM   20  C   UNL     1      25.890  41.720  49.405  1.00  0.00     0.007 A 
ENDBRANCH  13  15
BRANCH   8  21
HETATM   21  C   UNL     1      26.519  47.815  50.070  1.00  0.00     0.317 C 
BRANCH  21  22
HETATM   22  C   UNL     1      25.890  48.738  49.085  1.00  0.00     0.181 A 
HETATM   23  N   UNL     1      26.598  49.494  48.246  1.00  0.00    -0.109 NA
HETATM   24  O   UNL     1      25.611  50.218  47.570  1.00  0.00    -0.196 OA
HETATM   25  C   UNL     1      24.406  49.839  48.104  1.00  0.00     0.177 A 
HETATM   26  N   UNL     1      24.535  48.945  49.068  1.00  0.00    -0.207 NA
BRANCH  25  27
HETATM   27  C   UNL     1      23.083  50.419  47.631  1.00  0.00     0.065 A 
HETATM   28  C   UNL     1      21.795  49.832  48.174  1.00  0.00     0.013 A 
HETATM   29  C   UNL     1      22.228  51.187  48.620  1.00  0.00     0.013 A 
ENDBRANCH  25  27
ENDBRANCH  21  22
ENDBRANCH   8  21
TORSDOF 4
ENDMDL
MODEL 2
REMARK VINA RESULT:      -7.9      3.966     10.519
REMARK  4 active torsions:
REMARK  status: ('A' for Active; 'I' for Inactive)
REMARK    1  A    between atoms: N_8  and  C_10 
REMARK    2  A    between atoms: C_10  and  C_11 
REMARK    3  A    between atoms: C_14  and  C_15 
REMARK    4  A    between atoms: C_22  and  C_23 
ROOT
HETATM    1  C   UNL     1      16.983  48.557  44.489  1.00  0.00     0.269 C 
HETATM    2  N   UNL     1      17.539  48.923  45.850  1.00  0.00    -0.073 N 
HETATM    3  H   UNL     1      17.554  49.951  45.869  1.00  0.00     0.279 HD
HETATM    4  C   UNL     1      18.944  48.412  46.025  1.00  0.00     0.244 C 
HETATM    5  C   UNL     1      19.559  48.884  47.370  1.00  0.00    -0.013 C 
HETATM    6  C   UNL     1      20.906  48.125  47.568  1.00  0.00     0.039 C 
HETATM    7  C   UNL     1      21.733  48.615  48.756  1.00  0.00     0.236 C 
HETATM    8  N   UNL     1      21.972  50.097  48.662  1.00  0.00    -0.064 N 
HETATM    9  H   UNL     1      22.392  50.354  49.573  1.00  0.00     0.280 HD
HETATM   10  C   UNL     1      20.713  50.898  48.518  1.00  0.00     0.236 C 
HETATM   11  C   UNL     1      19.898  50.400  47.321  1.00  0.00     0.039 C 
HETATM   12  C   UNL     1      18.581  48.506  48.521  1.00  0.00     0.022 C 
HETATM   13  C   UNL     1      17.100  48.933  48.328  1.00  0.00     0.045 C 
HETATM   14  C   UNL     1      16.607  48.448  46.951  1.00  0.00     0.243 C 
ENDROOT
BRANCH  13  15
HETATM   15  C   UNL     1      16.849  50.399  48.672  1.00  0.00    -0.052 A 
HETATM   16  C   UNL     1      15.855  51.187  48.070  1.00  0.00     0.007 A 
HETATM   17  C   UNL     1      15.679  52.527  48.433  1.00  0.00     0.001 A 
HETATM   18  C   UNL     1      16.472  53.097  49.422  1.00  0.00     0.000 A 
HETATM   19  C   UNL     1      17.429  52.324  50.067  1.00  0.00     0.001 A 
HETATM   20  C   UNL     1      17.606  50.988  49.705  1.00  0.00     0.007 A 
ENDBRANCH  13  15
BRANCH   8  21
HETATM   21  C   UNL     1      23.094  50.505  47.693  1.00  0.00     0.317 C 
BRANCH  21  22
HETATM   22  C   UNL     1      24.428  49.971  48.085  1.00  0.00     0.181 A 
HETATM   23  N   UNL     1      25.529  50.169  47.361  1.00  0.00    -0.109 NA
HETATM   24  O   UNL     1      26.500  49.454  48.070  1.00  0.00    -0.196 OA
HETATM   25  C   UNL     1      25.866  48.871  49.136  1.00  0.00     0.177 A 
HETATM   26  N   UNL     1      24.572  49.140  49.167  1.00  0.00    -0.207 NA
BRANCH  25  27
HETATM   27  C   UNL     1      26.594  47.997  50.144  1.00  0.00     0.065 A 
HETATM   28  C   UNL     1      25.776  47.119  51.070  1.00  0.00     0.013 A 
HETATM   29  C   UNL     1      26.556  46.492  49.966  1.00  0.00     0.013 A 
ENDBRANCH  25  27
ENDBRANCH  21  22
ENDBRANCH   8  21
TORSDOF 4
ENDMDL
MODEL 3
REMARK VINA RESULT:      -7.7      3.673      8.505
REMARK  4 active torsions:
REMARK  status: ('A' for Active; 'I' for Inactive)
REMARK    1  A    between atoms: N_8  and  C_10 
REMARK    2  A    between atoms: C_10  and  C_11 
REMARK    3  A    between atoms: C_14  and  C_15 
REMARK    4  A    between atoms: C_22  and  C_23 
ROOT
HETATM    1  C   UNL     1      26.497  48.052  49.653  1.00  0.00     0.269 C 
HETATM    2  N   UNL     1      26.369  46.861  50.581  1.00  0.00    -0.073 N 
HETATM    3  H   UNL     1      27.285  46.776  51.039  1.00  0.00     0.279 HD
HETATM    4  C   UNL     1      26.087  45.596  49.817  1.00  0.00     0.244 C 
HETATM    5  C   UNL     1      26.070  44.357  50.751  1.00  0.00    -0.013 C 
HETATM    6  C   UNL     1      25.546  43.146  49.923  1.00  0.00     0.039 C 
HETATM    7  C   UNL     1      25.647  41.801  50.645  1.00  0.00     0.236 C 
HETATM    8  N   UNL     1      27.055  41.553  51.109  1.00  0.00    -0.064 N 
HETATM    9  H   UNL     1      26.988  40.714  51.714  1.00  0.00     0.280 HD
HETATM   10  C   UNL     1      27.610  42.659  51.955  1.00  0.00     0.236 C 
HETATM   11  C   UNL     1      27.508  43.997  51.217  1.00  0.00     0.039 C 
HETATM   12  C   UNL     1      25.090  44.638  51.929  1.00  0.00     0.022 C 
HETATM   13  C   UNL     1      25.293  45.983  52.679  1.00  0.00     0.045 C 
HETATM   14  C   UNL     1      25.331  47.134  51.656  1.00  0.00     0.243 C 
ENDROOT
BRANCH  13  15
HETATM   15  C   UNL     1      26.422  45.935  53.704  1.00  0.00    -0.052 A 
HETATM   16  C   UNL     1      26.826  44.768  54.372  1.00  0.00     0.007 A 
HETATM   17  C   UNL     1      27.870  44.794  55.303  1.00  0.00     0.001 A 
HETATM   18  C   UNL     1      28.548  45.979  55.565  1.00  0.00     0.000 A 
HETATM   19  C   UNL     1      28.200  47.137  54.880  1.00  0.00     0.001 A 
HETATM   20  C   UNL     1      27.157  47.111  53.952  1.00  0.00     0.007 A 
ENDBRANCH  13  15
BRANCH   8  21
HETATM   21  C   UNL     1      28.012  41.054  50.014  1.00  0.00     0.317 C 
BRANCH  21  22
HETATM   22  C   UNL     1      28.023  39.570  49.879  1.00  0.00     0.181 A 
HETATM   23  N   UNL     1      29.012  38.807  50.343  1.00  0.00    -0.109 NA
HETATM   24  O   UNL     1      28.627  37.523  49.947  1.00  0.00    -0.196 OA
HETATM   25  C   UNL     1      27.454  37.656  49.251  1.00  0.00     0.177 A 
HETATM   26  N   UNL     1      27.058  38.914  49.158  1.00  0.00    -0.207 NA
BRANCH  25  27
HETATM   27  C   UNL     1      26.721  36.470  48.646  1.00  0.00     0.065 A 
HETATM   28  C   UNL     1      25.662  36.729  47.593  1.00  0.00     0.013 A 
HETATM   29  C   UNL     1      26.964  36.129  47.189  1.00  0.00     0.013 A 
ENDBRANCH  25  27
ENDBRANCH  21  22
ENDBRANCH   8  21
TORSDOF 4
ENDMDL
MODEL 4
REMARK VINA RESULT:      -7.7     12.107     14.718
REMARK  4 active torsions:
REMARK  status: ('A' for Active; 'I' for Inactive)
REMARK    1  A    between atoms: N_8  and  C_10 
REMARK    2  A    between atoms: C_10  and  C_11 
REMARK    3  A    between atoms: C_14  and  C_15 
REMARK    4  A    between atoms: C_22  and  C_23 
ROOT
HETATM    1  C   UNL     1      30.255  47.072  39.051  1.00  0.00     0.269 C 
HETATM    2  N   UNL     1      30.499  48.403  39.730  1.00  0.00    -0.073 N 
HETATM    3  H   UNL     1      30.539  49.092  38.968  1.00  0.00     0.279 HD
HETATM    4  C   UNL     1      31.812  48.412  40.465  1.00  0.00     0.244 C 
HETATM    5  C   UNL     1      32.121  49.810  41.065  1.00  0.00    -0.013 C 
HETATM    6  C   UNL     1      33.364  49.665  41.993  1.00  0.00     0.039 C 
HETATM    7  C   UNL     1      33.916  50.992  42.516  1.00  0.00     0.236 C 
HETATM    8  N   UNL     1      34.213  51.929  41.377  1.00  0.00    -0.064 N 
HETATM    9  H   UNL     1      34.423  52.835  41.831  1.00  0.00     0.280 HD
HETATM   10  C   UNL     1      33.043  52.155  40.467  1.00  0.00     0.236 C 
HETATM   11  C   UNL     1      32.507  50.818  39.947  1.00  0.00     0.039 C 
HETATM   12  C   UNL     1      30.896  50.266  41.913  1.00  0.00     0.022 C 
HETATM   13  C   UNL     1      29.511  50.177  41.216  1.00  0.00     0.045 C 
HETATM   14  C   UNL     1      29.328  48.766  40.628  1.00  0.00     0.243 C 
ENDROOT
BRANCH  13  15
HETATM   15  C   UNL     1      29.232  51.354  40.285  1.00  0.00    -0.052 A 
HETATM   16  C   UNL     1      28.684  51.224  38.998  1.00  0.00     0.007 A 
HETATM   17  C   UNL     1      28.454  52.346  38.195  1.00  0.00     0.001 A 
HETATM   18  C   UNL     1      28.741  53.621  38.670  1.00  0.00     0.000 A 
HETATM   19  C   UNL     1      29.237  53.779  39.958  1.00  0.00     0.001 A 
HETATM   20  C   UNL     1      29.468  52.660  40.759  1.00  0.00     0.007 A 
ENDBRANCH  13  15
BRANCH   8  21
HETATM   21  C   UNL     1      35.537  51.649  40.647  1.00  0.00     0.317 C 
BRANCH  21  22
HETATM   22  C   UNL     1      35.946  52.753  39.735  1.00  0.00     0.181 A 
HETATM   23  N   UNL     1      36.282  52.554  38.460  1.00  0.00    -0.109 NA
HETATM   24  O   UNL     1      36.638  53.836  38.028  1.00  0.00    -0.196 OA
HETATM   25  C   UNL     1      36.509  54.670  39.109  1.00  0.00     0.177 A 
HETATM   26  N   UNL     1      36.111  54.034  40.197  1.00  0.00    -0.207 NA
BRANCH  25  27
HETATM   27  C   UNL     1      36.818  56.156  39.037  1.00  0.00     0.065 A 
HETATM   28  C   UNL     1      36.718  56.856  37.697  1.00  0.00     0.013 A 
HETATM   29  C   UNL     1      35.688  57.122  38.739  1.00  0.00     0.013 A 
ENDBRANCH  25  27
ENDBRANCH  21  22
ENDBRANCH   8  21
TORSDOF 4
ENDMDL
MODEL 5
REMARK VINA RESULT:      -7.7      3.734      9.548
REMARK  4 active torsions:
REMARK  status: ('A' for Active; 'I' for Inactive)
REMARK    1  A    between atoms: N_8  and  C_10 
REMARK    2  A    between atoms: C_10  and  C_11 
REMARK    3  A    between atoms: C_14  and  C_15 
REMARK    4  A    between atoms: C_22  and  C_23 
ROOT
HETATM    1  C   UNL     1      17.732  52.385  49.875  1.00  0.00     0.269 C 
HETATM    2  N   UNL     1      18.480  51.322  49.096  1.00  0.00    -0.073 N 
HETATM    3  H   UNL     1      18.309  50.445  49.603  1.00  0.00     0.279 HD
HETATM    4  C   UNL     1      19.959  51.594  49.076  1.00  0.00     0.244 C 
HETATM    5  C   UNL     1      20.741  50.448  48.380  1.00  0.00    -0.013 C 
HETATM    6  C   UNL     1      22.215  50.920  48.200  1.00  0.00     0.039 C 
HETATM    7  C   UNL     1      23.166  49.832  47.699  1.00  0.00     0.236 C 
HETATM    8  N   UNL     1      23.104  48.621  48.589  1.00  0.00    -0.064 N 
HETATM    9  H   UNL     1      23.648  47.898  48.087  1.00  0.00     0.280 HD
HETATM   10  C   UNL     1      21.717  48.081  48.769  1.00  0.00     0.236 C 
HETATM   11  C   UNL     1      20.779  49.180  49.277  1.00  0.00     0.039 C 
HETATM   12  C   UNL     1      20.107  50.197  46.980  1.00  0.00     0.022 C 
HETATM   13  C   UNL     1      18.566  50.008  46.952  1.00  0.00     0.045 C 
HETATM   14  C   UNL     1      17.897  51.177  47.700  1.00  0.00     0.243 C 
ENDROOT
BRANCH  13  15
HETATM   15  C   UNL     1      18.126  48.600  47.341  1.00  0.00    -0.052 A 
HETATM   16  C   UNL     1      18.629  47.429  46.751  1.00  0.00     0.007 A 
HETATM   17  C   UNL     1      18.180  46.167  47.156  1.00  0.00     0.001 A 
HETATM   18  C   UNL     1      17.242  46.048  48.175  1.00  0.00     0.000 A 
HETATM   19  C   UNL     1      16.767  47.189  48.809  1.00  0.00     0.001 A 
HETATM   20  C   UNL     1      17.213  48.449  48.404  1.00  0.00     0.007 A 
ENDBRANCH  13  15
BRANCH   8  21
HETATM   21  C   UNL     1      23.908  48.744  49.894  1.00  0.00     0.317 C 
BRANCH  21  22
HETATM   22  C   UNL     1      24.540  47.462  50.314  1.00  0.00     0.181 A 
HETATM   23  N   UNL     1      24.501  46.357  49.570  1.00  0.00    -0.109 NA
HETATM   24  O   UNL     1      25.158  45.418  50.372  1.00  0.00    -0.196 OA
HETATM   25  C   UNL     1      25.494  46.057  51.537  1.00  0.00     0.177 A 
HETATM   26  N   UNL     1      25.102  47.320  51.557  1.00  0.00    -0.207 NA
BRANCH  25  27
HETATM   27  C   UNL     1      26.220  45.357  52.675  1.00  0.00     0.065 A 
HETATM   28  C   UNL     1      26.104  45.929  54.073  1.00  0.00     0.013 A 
HETATM   29  C   UNL     1      25.401  44.658  53.742  1.00  0.00     0.013 A 
ENDBRANCH  25  27
ENDBRANCH  21  22
ENDBRANCH   8  21
TORSDOF 4
ENDMDL
MODEL 6
REMARK VINA RESULT:      -7.6      9.163     13.006
REMARK  4 active torsions:
REMARK  status: ('A' for Active; 'I' for Inactive)
REMARK    1  A    between atoms: N_8  and  C_10 
REMARK    2  A    between atoms: C_10  and  C_11 
REMARK    3  A    between atoms: C_14  and  C_15 
REMARK    4  A    between atoms: C_22  and  C_23 
ROOT
HETATM    1  C   UNL     1      28.748  53.170  37.928  1.00  0.00     0.269 C 
HETATM    2  N   UNL     1      28.959  52.186  39.059  1.00  0.00    -0.073 N 
HETATM    3  H   UNL     1      29.898  51.797  38.907  1.00  0.00     0.279 HD
HETATM    4  C   UNL     1      27.954  51.067  39.009  1.00  0.00     0.244 C 
HETATM    5  C   UNL     1      28.239  49.995  40.095  1.00  0.00    -0.013 C 
HETATM    6  C   UNL     1      27.030  49.012  40.119  1.00  0.00     0.039 C 
HETATM    7  C   UNL     1      27.238  47.784  41.007  1.00  0.00     0.236 C 
HETATM    8  N   UNL     1      28.500  47.060  40.624  1.00  0.00    -0.064 N 
HETATM    9  H   UNL     1      28.634  46.354  41.370  1.00  0.00     0.280 HD
HETATM   10  C   UNL     1      29.717  47.936  40.627  1.00  0.00     0.236 C 
HETATM   11  C   UNL     1      29.496  49.157  39.729  1.00  0.00     0.039 C 
HETATM   12  C   UNL     1      28.351  50.708  41.476  1.00  0.00     0.022 C 
HETATM   13  C   UNL     1      29.307  51.930  41.538  1.00  0.00     0.045 C 
HETATM   14  C   UNL     1      28.960  52.905  40.397  1.00  0.00     0.243 C 
ENDROOT
BRANCH  13  15
HETATM   15  C   UNL     1      30.774  51.536  41.686  1.00  0.00    -0.052 A 
HETATM   16  C   UNL     1      31.813  52.072  40.908  1.00  0.00     0.007 A 
HETATM   17  C   UNL     1      33.139  51.666  41.095  1.00  0.00     0.001 A 
HETATM   18  C   UNL     1      33.457  50.738  42.081  1.00  0.00     0.000 A 
HETATM   19  C   UNL     1      32.453  50.231  42.897  1.00  0.00     0.001 A 
HETATM   20  C   UNL     1      31.130  50.635  42.709  1.00  0.00     0.007 A 
ENDBRANCH  13  15
BRANCH   8  21
HETATM   21  C   UNL     1      28.372  46.161  39.384  1.00  0.00     0.317 C 
BRANCH  21  22
HETATM   22  C   UNL     1      28.498  44.710  39.698  1.00  0.00     0.181 A 
HETATM   23  N   UNL     1      29.250  43.876  38.980  1.00  0.00    -0.109 NA
HETATM   24  O   UNL     1      29.020  42.642  39.596  1.00  0.00    -0.196 OA
HETATM   25  C   UNL     1      28.120  42.863  40.606  1.00  0.00     0.177 A 
HETATM   26  N   UNL     1      27.745  44.128  40.686  1.00  0.00    -0.207 NA
BRANCH  25  27
HETATM   27  C   UNL     1      27.611  41.750  41.508  1.00  0.00     0.065 A 
HETATM   28  C   UNL     1      28.351  40.427  41.519  1.00  0.00     0.013 A 
HETATM   29  C   UNL     1      28.452  41.332  42.698  1.00  0.00     0.013 A 
ENDBRANCH  25  27
ENDBRANCH  21  22
ENDBRANCH   8  21
TORSDOF 4
ENDMDL
MODEL 7
REMARK VINA RESULT:      -7.5      4.009     10.251
REMARK  4 active torsions:
REMARK  status: ('A' for Active; 'I' for Inactive)
REMARK    1  A    between atoms: N_8  and  C_10 
REMARK    2  A    between atoms: C_10  and  C_11 
REMARK    3  A    between atoms: C_14  and  C_15 
REMARK    4  A    between atoms: C_22  and  C_23 
ROOT
HETATM    1  C   UNL     1      18.406  48.869  43.452  1.00  0.00     0.269 C 
HETATM    2  N   UNL     1      18.482  48.723  44.958  1.00  0.00    -0.073 N 
HETATM    3  H   UNL     1      19.037  49.527  45.279  1.00  0.00     0.279 HD
HETATM    4  C   UNL     1      19.189  47.455  45.352  1.00  0.00     0.244 C 
HETATM    5  C   UNL     1      19.373  47.358  46.890  1.00  0.00    -0.013 C 
HETATM    6  C   UNL     1      19.894  45.926  47.217  1.00  0.00     0.039 C 
HETATM    7  C   UNL     1      20.308  45.727  48.675  1.00  0.00     0.236 C 
HETATM    8  N   UNL     1      21.318  46.763  49.087  1.00  0.00    -0.064 N 
HETATM    9  H   UNL     1      21.411  46.646  50.111  1.00  0.00     0.280 HD
HETATM   10  C   UNL     1      20.863  48.171  48.846  1.00  0.00     0.236 C 
HETATM   11  C   UNL     1      20.458  48.357  47.381  1.00  0.00     0.039 C 
HETATM   12  C   UNL     1      17.987  47.569  47.568  1.00  0.00     0.022 C 
HETATM   13  C   UNL     1      17.186  48.819  47.112  1.00  0.00     0.045 C 
HETATM   14  C   UNL     1      17.098  48.833  45.575  1.00  0.00     0.243 C 
ENDROOT
BRANCH  13  15
HETATM   15  C   UNL     1      17.649  50.107  47.788  1.00  0.00    -0.052 A 
HETATM   16  C   UNL     1      18.057  51.256  47.091  1.00  0.00     0.007 A 
HETATM   17  C   UNL     1      18.471  52.405  47.774  1.00  0.00     0.001 A 
HETATM   18  C   UNL     1      18.460  52.439  49.164  1.00  0.00     0.000 A 
HETATM   19  C   UNL     1      18.013  51.332  49.875  1.00  0.00     0.001 A 
HETATM   20  C   UNL     1      17.601  50.185  49.194  1.00  0.00     0.007 A 
ENDBRANCH  13  15
BRANCH   8  21
HETATM   21  C   UNL     1      22.756  46.475  48.623  1.00  0.00     0.317 C 
BRANCH  21  22
HETATM   22  C   UNL     1      23.781  46.830  49.644  1.00  0.00     0.181 A 
HETATM   23  N   UNL     1      24.238  48.071  49.810  1.00  0.00    -0.109 NA
HETATM   24  O   UNL     1      25.200  47.917  50.812  1.00  0.00    -0.196 OA
HETATM   25  C   UNL     1      25.243  46.582  51.121  1.00  0.00     0.177 A 
HETATM   26  N   UNL     1      24.400  45.866  50.397  1.00  0.00    -0.207 NA
BRANCH  25  27
HETATM   27  C   UNL     1      26.184  46.013  52.170  1.00  0.00     0.065 A 
HETATM   28  C   UNL     1      26.517  46.859  53.383  1.00  0.00     0.013 A 
HETATM   29  C   UNL     1      25.629  45.673  53.539  1.00  0.00     0.013 A 
ENDBRANCH  25  27
ENDBRANCH  21  22
ENDBRANCH   8  21
TORSDOF 4
ENDMDL
MODEL 8
REMARK VINA RESULT:      -7.4      8.112     11.815
REMARK  4 active torsions:
REMARK  status: ('A' for Active; 'I' for Inactive)
REMARK    1  A    between atoms: N_8  and  C_10 
REMARK    2  A    between atoms: C_10  and  C_11 
REMARK    3  A    between atoms: C_14  and  C_15 
REMARK    4  A    between atoms: C_22  and  C_23 
ROOT
HETATM    1  C   UNL     1      17.554  45.792  48.060  1.00  0.00     0.269 C 
HETATM    2  N   UNL     1      17.866  47.265  47.895  1.00  0.00    -0.073 N 
HETATM    3  H   UNL     1      18.384  47.528  48.744  1.00  0.00     0.279 HD
HETATM    4  C   UNL     1      16.609  48.088  47.817  1.00  0.00     0.244 C 
HETATM    5  C   UNL     1      16.924  49.608  47.766  1.00  0.00    -0.013 C 
HETATM    6  C   UNL     1      15.594  50.357  47.453  1.00  0.00     0.039 C 
HETATM    7  C   UNL     1      15.694  51.880  47.555  1.00  0.00     0.236 C 
HETATM    8  N   UNL     1      16.226  52.288  48.901  1.00  0.00    -0.064 N 
HETATM    9  H   UNL     1      16.406  53.305  48.815  1.00  0.00     0.280 HD
HETATM   10  C   UNL     1      17.533  51.641  49.250  1.00  0.00     0.236 C 
HETATM   11  C   UNL     1      17.416  50.117  49.149  1.00  0.00     0.039 C 
HETATM   12  C   UNL     1      17.942  49.863  46.615  1.00  0.00     0.022 C 
HETATM   13  C   UNL     1      19.207  48.962  46.610  1.00  0.00     0.045 C 
HETATM   14  C   UNL     1      18.780  47.485  46.702  1.00  0.00     0.243 C 
ENDROOT
BRANCH  13  15
HETATM   15  C   UNL     1      20.281  49.431  47.588  1.00  0.00    -0.052 A 
HETATM   16  C   UNL     1      21.060  48.565  48.373  1.00  0.00     0.007 A 
HETATM   17  C   UNL     1      22.028  49.062  49.251  1.00  0.00     0.001 A 
HETATM   18  C   UNL     1      22.258  50.431  49.342  1.00  0.00     0.000 A 
HETATM   19  C   UNL     1      21.536  51.304  48.539  1.00  0.00     0.001 A 
HETATM   20  C   UNL     1      20.568  50.809  47.664  1.00  0.00     0.007 A 
ENDBRANCH  13  15
BRANCH   8  21
HETATM   21  C   UNL     1      15.188  52.265  50.035  1.00  0.00     0.317 C 
BRANCH  21  22
HETATM   22  C   UNL     1      14.776  53.626  50.478  1.00  0.00     0.181 A 
HETATM   23  N   UNL     1      13.623  53.867  51.102  1.00  0.00    -0.109 NA
HETATM   24  O   UNL     1      13.643  55.256  51.267  1.00  0.00    -0.196 OA
HETATM   25  C   UNL     1      14.801  55.709  50.691  1.00  0.00     0.177 A 
HETATM   26  N   UNL     1      15.520  54.734  50.162  1.00  0.00    -0.207 NA
BRANCH  25  27
HETATM   27  C   UNL     1      15.180  57.180  50.661  1.00  0.00     0.065 A 
HETATM   28  C   UNL     1      14.119  58.212  50.988  1.00  0.00     0.013 A 
HETATM   29  C   UNL     1      15.213  57.952  51.965  1.00  0.00     0.013 A 
ENDBRANCH  25  27
ENDBRANCH  21  22
ENDBRANCH   8  21
TORSDOF 4
ENDMDL
MODEL 9
REMARK VINA RESULT:      -7.4      5.168     12.285
REMARK  4 active torsions:
REMARK  status: ('A' for Active; 'I' for Inactive)
REMARK    1  A    between atoms: N_8  and  C_10 
REMARK    2  A    between atoms: C_10  and  C_11 
REMARK    3  A    between atoms: C_14  and  C_15 
REMARK    4  A    between atoms: C_22  and  C_23 
ROOT
HETATM    1  C   UNL     1      16.640  52.594  43.799  1.00  0.00     0.269 C 
HETATM    2  N   UNL     1      16.750  52.134  45.238  1.00  0.00    -0.073 N 
HETATM    3  H   UNL     1      16.874  52.994  45.788  1.00  0.00     0.279 HD
HETATM    4  C   UNL     1      17.949  51.248  45.442  1.00  0.00     0.244 C 
HETATM    5  C   UNL     1      18.132  50.869  46.936  1.00  0.00    -0.013 C 
HETATM    6  C   UNL     1      19.241  49.778  47.016  1.00  0.00     0.039 C 
HETATM    7  C   UNL     1      19.677  49.430  48.440  1.00  0.00     0.236 C 
HETATM    8  N   UNL     1      20.099  50.668  49.184  1.00  0.00    -0.064 N 
HETATM    9  H   UNL     1      20.219  50.357  50.164  1.00  0.00     0.280 HD
HETATM   10  C   UNL     1      19.059  51.747  49.189  1.00  0.00     0.236 C 
HETATM   11  C   UNL     1      18.637  52.088  47.757  1.00  0.00     0.039 C 
HETATM   12  C   UNL     1      16.791  50.281  47.464  1.00  0.00     0.022 C 
HETATM   13  C   UNL     1      15.517  51.124  47.185  1.00  0.00     0.045 C 
HETATM   14  C   UNL     1      15.458  51.473  45.686  1.00  0.00     0.243 C 
ENDROOT
BRANCH  13  15
HETATM   15  C   UNL     1      15.333  52.277  48.169  1.00  0.00    -0.052 A 
HETATM   16  C   UNL     1      14.813  53.533  47.817  1.00  0.00     0.007 A 
HETATM   17  C   UNL     1      14.672  54.547  48.770  1.00  0.00     0.001 A 
HETATM   18  C   UNL     1      15.020  54.319  50.097  1.00  0.00     0.000 A 
HETATM   19  C   UNL     1      15.490  53.068  50.479  1.00  0.00     0.001 A 
HETATM   20  C   UNL     1      15.633  52.056  49.528  1.00  0.00     0.007 A 
ENDBRANCH  13  15
BRANCH   8  21
HETATM   21  C   UNL     1      21.518  51.160  48.853  1.00  0.00     0.317 C 
BRANCH  21  22
HETATM   22  C   UNL     1      22.519  50.059  48.790  1.00  0.00     0.181 A 
HETATM   23  N   UNL     1      22.941  49.528  47.643  1.00  0.00    -0.109 NA
HETATM   24  O   UNL     1      23.809  48.518  48.068  1.00  0.00    -0.196 OA
HETATM   25  C   UNL     1      23.790  48.528  49.439  1.00  0.00     0.177 A 
HETATM   26  N   UNL     1      22.979  49.449  49.930  1.00  0.00    -0.207 NA
BRANCH  25  27
HETATM   27  C   UNL     1      24.608  47.559  50.277  1.00  0.00     0.065 A 
HETATM   28  C   UNL     1      25.337  46.428  49.578  1.00  0.00     0.013 A 
HETATM   29  C   UNL     1      26.118  47.567  50.136  1.00  0.00     0.013 A 
ENDBRANCH  25  27
ENDBRANCH  21  22
ENDBRANCH   8  21
TORSDOF 4
ENDMDL
MODEL 10
REMARK VINA RESULT:      -7.2      4.555      6.652
REMARK  4 active torsions:
REMARK  status: ('A' for Active; 'I' for Inactive)
REMARK    1  A    between atoms: N_8  and  C_10 
REMARK    2  A    between atoms: C_10  and  C_11 
REMARK    3  A    between atoms: C_14  and  C_15 
REMARK    4  A    between atoms: C_22  and  C_23 
ROOT
HETATM    1  C   UNL     1      24.231  38.071  46.796  1.00  0.00     0.269 C 
HETATM    2  N   UNL     1      25.376  38.748  47.520  1.00  0.00    -0.073 N 
HETATM    3  H   UNL     1      25.435  38.276  48.432  1.00  0.00     0.279 HD
HETATM    4  C   UNL     1      25.098  40.209  47.744  1.00  0.00     0.244 C 
HETATM    5  C   UNL     1      26.215  40.880  48.587  1.00  0.00    -0.013 C 
HETATM    6  C   UNL     1      25.966  42.418  48.568  1.00  0.00     0.039 C 
HETATM    7  C   UNL     1      26.871  43.213  49.510  1.00  0.00     0.236 C 
HETATM    8  N   UNL     1      26.775  42.680  50.913  1.00  0.00    -0.064 N 
HETATM    9  H   UNL     1      27.529  43.166  51.431  1.00  0.00     0.280 HD
HETATM   10  C   UNL     1      27.052  41.210  51.016  1.00  0.00     0.236 C 
HETATM   11  C   UNL     1      26.134  40.428  50.072  1.00  0.00     0.039 C 
HETATM   12  C   UNL     1      27.590  40.573  47.921  1.00  0.00     0.022 C 
HETATM   13  C   UNL     1      27.869  39.083  47.588  1.00  0.00     0.045 C 
HETATM   14  C   UNL     1      26.685  38.511  46.786  1.00  0.00     0.243 C 
ENDROOT
BRANCH  13  15
HETATM   15  C   UNL     1      28.338  38.275  48.795  1.00  0.00    -0.052 A 
HETATM   16  C   UNL     1      27.638  37.178  49.325  1.00  0.00     0.007 A 
HETATM   17  C   UNL     1      28.125  36.482  50.436  1.00  0.00     0.001 A 
HETATM   18  C   UNL     1      29.332  36.847  51.022  1.00  0.00     0.000 A 
HETATM   19  C   UNL     1      30.067  37.897  50.485  1.00  0.00     0.001 A 
HETATM   20  C   UNL     1      29.581  38.593  49.377  1.00  0.00     0.007 A 
ENDBRANCH  13  15
BRANCH   8  21
HETATM   21  C   UNL     1      25.533  43.144  51.691  1.00  0.00     0.317 C 
BRANCH  21  22
HETATM   22  C   UNL     1      25.862  44.029  52.844  1.00  0.00     0.181 A 
HETATM   23  N   UNL     1      24.991  44.310  53.813  1.00  0.00    -0.109 NA
HETATM   24  O   UNL     1      25.704  45.199  54.624  1.00  0.00    -0.196 OA
HETATM   25  C   UNL     1      26.926  45.384  54.032  1.00  0.00     0.177 A 
HETATM   26  N   UNL     1      27.056  44.700  52.908  1.00  0.00    -0.207 NA
BRANCH  25  27
HETATM   27  C   UNL     1      27.990  46.299  54.617  1.00  0.00     0.065 A 
HETATM   28  C   UNL     1      27.980  46.565  56.109  1.00  0.00     0.013 A 
HETATM   29  C   UNL     1      29.045  45.702  55.527  1.00  0.00     0.013 A 
ENDBRANCH  25  27
ENDBRANCH  21  22
ENDBRANCH   8  21
TORSDOF 4
ENDMDL
