MODEL 1
REMARK VINA RESULT:      -9.7      0.000      0.000
REMARK  5 active torsions:
REMARK  status: ('A' for Active; 'I' for Inactive)
REMARK    1  A    between atoms: C_4  and  C_5 
REMARK    2  A    between atoms: C_5  and  C_6 
REMARK       I    between atoms: C_6  and  N_7 
REMARK    3  A    between atoms: N_7  and  C_8 
REMARK    4  A    between atoms: C_8  and  C_9 
REMARK    5  A    between atoms: N_11  and  C_12 
ROOT
HETATM    1  C   UNL     1      30.231  42.684  53.560  1.00  0.00     0.184 C 
ENDROOT
BRANCH   1   2
HETATM    2  N   UNL     1      29.378  42.499  52.403  1.00  0.00    -0.354 N 
HETATM    3  C   UNL     1      28.375  41.554  52.353  1.00  0.00     0.231 C 
HETATM    4  O   UNL     1      28.147  40.803  53.300  1.00  0.00    -0.272 OA
HETATM    5  H   UNL     1      29.619  43.015  51.564  1.00  0.00     0.162 HD
BRANCH   3   6
HETATM    6  C   UNL     1      27.547  41.536  51.037  1.00  0.00     0.072 C 
HETATM    7  C   UNL     1      27.560  42.986  50.472  1.00  0.00     0.050 C 
HETATM    8  C   UNL     1      26.514  43.208  49.383  1.00  0.00     0.169 C 
HETATM    9  O   UNL     1      25.213  42.860  49.843  1.00  0.00    -0.391 OA
HETATM   10  C   UNL     1      25.131  41.487  50.220  1.00  0.00     0.169 C 
HETATM   11  C   UNL     1      26.065  41.216  51.390  1.00  0.00     0.050 C 
BRANCH   6  12
HETATM   12  C   UNL     1      28.137  40.456  50.101  1.00  0.00    -0.040 A 
HETATM   13  C   UNL     1      28.746  39.312  50.654  1.00  0.00     0.008 A 
HETATM   14  C   UNL     1      29.301  38.316  49.847  1.00  0.00     0.001 A 
HETATM   15  C   UNL     1      29.277  38.448  48.463  1.00  0.00     0.000 A 
HETATM   16  C   UNL     1      28.707  39.579  47.891  1.00  0.00     0.001 A 
HETATM   17  C   UNL     1      28.148  40.575  48.699  1.00  0.00     0.008 A 
ENDBRANCH   6  12
ENDBRANCH   3   6
ENDBRANCH   1   2
BRANCH   1  18
HETATM   18  C   UNL     1      29.602  43.756  54.443  1.00  0.00     0.084 A 
HETATM   19  N   UNL     1      28.496  44.291  54.018  1.00  0.00    -0.171 NA
HETATM   20  N   UNL     1      27.866  45.249  54.774  1.00  0.00    -0.229 N 
HETATM   21  C   UNL     1      28.388  45.758  55.964  1.00  0.00     0.275 A 
HETATM   22  O   UNL     1      27.885  46.684  56.598  1.00  0.00    -0.266 OA
HETATM   23  C   UNL     1      29.617  45.124  56.472  1.00  0.00     0.046 A 
HETATM   24  C   UNL     1      30.234  44.122  55.730  1.00  0.00     0.008 A 
HETATM   25  C   UNL     1      30.157  45.532  57.700  1.00  0.00     0.018 A 
HETATM   26  C   UNL     1      31.398  43.520  56.224  1.00  0.00     0.014 A 
HETATM   27  C   UNL     1      31.934  43.924  57.449  1.00  0.00     0.001 A 
HETATM   28  C   UNL     1      31.316  44.931  58.187  1.00  0.00     0.001 A 
BRANCH  20  29
HETATM   29  C   UNL     1      26.704  45.911  54.182  1.00  0.00     0.114 C 
HETATM   30  C   UNL     1      27.107  47.023  53.211  1.00  0.00     0.027 C 
HETATM   31  C   UNL     1      25.846  47.235  52.392  1.00  0.00     0.002 C 
HETATM   32  C   UNL     1      25.348  45.819  52.140  1.00  0.00     0.002 C 
HETATM   33  C   UNL     1      25.746  45.014  53.380  1.00  0.00     0.027 C 
ENDBRANCH  20  29
ENDBRANCH   1  18
TORSDOF 5
ENDMDL
MODEL 2
REMARK VINA RESULT:      -9.6      1.660      4.926
REMARK  5 active torsions:
REMARK  status: ('A' for Active; 'I' for Inactive)
REMARK    1  A    between atoms: C_4  and  C_5 
REMARK    2  A    between atoms: C_5  and  C_6 
REMARK       I    between atoms: C_6  and  N_7 
REMARK    3  A    between atoms: N_7  and  C_8 
REMARK    4  A    between atoms: C_8  and  C_9 
REMARK    5  A    between atoms: N_11  and  C_12 
ROOT
HETATM    1  C   UNL     1      27.237  41.938  53.889  1.00  0.00     0.184 C 
ENDROOT
BRANCH   1   2
HETATM    2  N   UNL     1      26.897  41.904  52.481  1.00  0.00    -0.354 N 
HETATM    3  C   UNL     1      27.700  41.310  51.530  1.00  0.00     0.231 C 
HETATM    4  O   UNL     1      28.765  40.772  51.827  1.00  0.00    -0.272 OA
HETATM    5  H   UNL     1      26.091  42.444  52.187  1.00  0.00     0.162 HD
BRANCH   3   6
HETATM    6  C   UNL     1      27.143  41.347  50.078  1.00  0.00     0.072 C 
HETATM    7  C   UNL     1      26.156  40.153  49.939  1.00  0.00     0.050 C 
HETATM    8  C   UNL     1      25.796  39.846  48.488  1.00  0.00     0.169 C 
HETATM    9  O   UNL     1      26.965  39.626  47.706  1.00  0.00    -0.391 OA
HETATM   10  C   UNL     1      27.816  40.769  47.686  1.00  0.00     0.169 C 
HETATM   11  C   UNL     1      28.315  41.065  49.092  1.00  0.00     0.050 C 
BRANCH   6  12
HETATM   12  C   UNL     1      26.532  42.745  49.822  1.00  0.00    -0.040 A 
HETATM   13  C   UNL     1      27.342  43.892  49.942  1.00  0.00     0.008 A 
HETATM   14  C   UNL     1      26.830  45.174  49.730  1.00  0.00     0.001 A 
HETATM   15  C   UNL     1      25.488  45.343  49.410  1.00  0.00     0.000 A 
HETATM   16  C   UNL     1      24.660  44.231  49.312  1.00  0.00     0.001 A 
HETATM   17  C   UNL     1      25.173  42.946  49.521  1.00  0.00     0.008 A 
ENDBRANCH   6  12
ENDBRANCH   3   6
ENDBRANCH   1   2
BRANCH   1  18
HETATM   18  C   UNL     1      27.717  43.345  54.226  1.00  0.00     0.084 A 
HETATM   19  N   UNL     1      28.863  43.444  54.833  1.00  0.00    -0.171 NA
HETATM   20  N   UNL     1      29.364  44.683  55.148  1.00  0.00    -0.229 N 
HETATM   21  C   UNL     1      28.672  45.874  54.925  1.00  0.00     0.275 A 
HETATM   22  O   UNL     1      29.065  46.980  55.292  1.00  0.00    -0.266 OA
HETATM   23  C   UNL     1      27.395  45.771  54.197  1.00  0.00     0.046 A 
HETATM   24  C   UNL     1      26.906  44.520  53.838  1.00  0.00     0.008 A 
HETATM   25  C   UNL     1      26.682  46.933  53.872  1.00  0.00     0.018 A 
HETATM   26  C   UNL     1      25.694  44.431  53.140  1.00  0.00     0.014 A 
HETATM   27  C   UNL     1      24.985  45.590  52.812  1.00  0.00     0.001 A 
HETATM   28  C   UNL     1      25.476  46.840  53.178  1.00  0.00     0.001 A 
BRANCH  20  29
HETATM   29  C   UNL     1      30.586  44.726  55.951  1.00  0.00     0.114 C 
HETATM   30  C   UNL     1      30.298  45.028  57.424  1.00  0.00     0.027 C 
HETATM   31  C   UNL     1      31.567  44.570  58.120  1.00  0.00     0.002 C 
HETATM   32  C   UNL     1      31.904  43.265  57.415  1.00  0.00     0.002 C 
HETATM   33  C   UNL     1      31.433  43.442  55.969  1.00  0.00     0.027 C 
ENDBRANCH  20  29
ENDBRANCH   1  18
TORSDOF 5
ENDMDL
MODEL 3
REMARK VINA RESULT:      -9.4      5.929      9.789
REMARK  5 active torsions:
REMARK  status: ('A' for Active; 'I' for Inactive)
REMARK    1  A    between atoms: C_4  and  C_5 
REMARK    2  A    between atoms: C_5  and  C_6 
REMARK       I    between atoms: C_6  and  N_7 
REMARK    3  A    between atoms: N_7  and  C_8 
REMARK    4  A    between atoms: C_8  and  C_9 
REMARK    5  A    between atoms: N_11  and  C_12 
ROOT
HETATM    1  C   UNL     1      24.431  48.409  49.513  1.00  0.00     0.184 C 
ENDROOT
BRANCH   1   2
HETATM    2  N   UNL     1      23.059  48.874  49.475  1.00  0.00    -0.354 N 
HETATM    3  C   UNL     1      22.510  49.503  48.377  1.00  0.00     0.231 C 
HETATM    4  O   UNL     1      23.165  49.711  47.357  1.00  0.00    -0.272 OA
HETATM    5  H   UNL     1      22.532  48.829  50.340  1.00  0.00     0.162 HD
BRANCH   3   6
HETATM    6  C   UNL     1      21.012  49.894  48.519  1.00  0.00     0.072 C 
HETATM    7  C   UNL     1      20.931  51.441  48.373  1.00  0.00     0.050 C 
HETATM    8  C   UNL     1      19.591  52.011  48.831  1.00  0.00     0.169 C 
HETATM    9  O   UNL     1      19.295  51.615  50.166  1.00  0.00    -0.391 OA
HETATM   10  C   UNL     1      19.207  50.199  50.295  1.00  0.00     0.169 C 
HETATM   11  C   UNL     1      20.551  49.566  49.969  1.00  0.00     0.050 C 
BRANCH   6  12
HETATM   12  C   UNL     1      20.194  49.088  47.484  1.00  0.00    -0.040 A 
HETATM   13  C   UNL     1      20.342  47.688  47.417  1.00  0.00     0.008 A 
HETATM   14  C   UNL     1      19.632  46.921  46.491  1.00  0.00     0.001 A 
HETATM   15  C   UNL     1      18.766  47.537  45.595  1.00  0.00     0.000 A 
HETATM   16  C   UNL     1      18.621  48.919  45.620  1.00  0.00     0.001 A 
HETATM   17  C   UNL     1      19.330  49.688  46.550  1.00  0.00     0.008 A 
ENDBRANCH   6  12
ENDBRANCH   3   6
ENDBRANCH   1   2
BRANCH   1  18
HETATM   18  C   UNL     1      24.469  47.114  50.317  1.00  0.00     0.084 A 
HETATM   19  N   UNL     1      24.997  47.177  51.503  1.00  0.00    -0.171 NA
HETATM   20  N   UNL     1      25.045  46.051  52.289  1.00  0.00    -0.229 N 
HETATM   21  C   UNL     1      24.626  44.792  51.860  1.00  0.00     0.275 A 
HETATM   22  O   UNL     1      24.755  43.760  52.516  1.00  0.00    -0.266 OA
HETATM   23  C   UNL     1      23.985  44.725  50.534  1.00  0.00     0.046 A 
HETATM   24  C   UNL     1      23.895  45.872  49.753  1.00  0.00     0.008 A 
HETATM   25  C   UNL     1      23.471  43.507  50.068  1.00  0.00     0.018 A 
HETATM   26  C   UNL     1      23.280  45.801  48.497  1.00  0.00     0.014 A 
HETATM   27  C   UNL     1      22.763  44.587  48.034  1.00  0.00     0.001 A 
HETATM   28  C   UNL     1      22.860  43.440  48.818  1.00  0.00     0.001 A 
BRANCH  20  29
HETATM   29  C   UNL     1      25.773  46.150  53.555  1.00  0.00     0.114 C 
HETATM   30  C   UNL     1      27.171  45.533  53.465  1.00  0.00     0.027 C 
HETATM   31  C   UNL     1      27.888  46.140  54.658  1.00  0.00     0.002 C 
HETATM   32  C   UNL     1      27.433  47.592  54.641  1.00  0.00     0.002 C 
HETATM   33  C   UNL     1      26.001  47.571  54.099  1.00  0.00     0.027 C 
ENDBRANCH  20  29
ENDBRANCH   1  18
TORSDOF 5
ENDMDL
MODEL 4
REMARK VINA RESULT:      -9.3      1.938      7.378
REMARK  5 active torsions:
REMARK  status: ('A' for Active; 'I' for Inactive)
REMARK    1  A    between atoms: C_4  and  C_5 
REMARK    2  A    between atoms: C_5  and  C_6 
REMARK       I    between atoms: C_6  and  N_7 
REMARK    3  A    between atoms: N_7  and  C_8 
REMARK    4  A    between atoms: C_8  and  C_9 
REMARK    5  A    between atoms: N_11  and  C_12 
ROOT
HETATM    1  C   UNL     1      28.831  40.622  51.630  1.00  0.00     0.184 C 
ENDROOT
BRANCH   1   2
HETATM    2  N   UNL     1      28.329  41.580  52.595  1.00  0.00    -0.354 N 
HETATM    3  C   UNL     1      28.895  42.824  52.782  1.00  0.00     0.231 C 
HETATM    4  O   UNL     1      29.874  43.192  52.135  1.00  0.00    -0.272 OA
HETATM    5  H   UNL     1      27.604  41.261  53.228  1.00  0.00     0.162 HD
BRANCH   3   6
HETATM    6  C   UNL     1      28.189  43.720  53.838  1.00  0.00     0.072 C 
HETATM    7  C   UNL     1      26.946  42.932  54.345  1.00  0.00     0.050 C 
HETATM    8  C   UNL     1      25.964  43.808  55.118  1.00  0.00     0.169 C 
HETATM    9  O   UNL     1      25.564  44.934  54.346  1.00  0.00    -0.391 OA
HETATM   10  C   UNL     1      26.671  45.763  54.001  1.00  0.00     0.169 C 
HETATM   11  C   UNL     1      27.641  44.989  53.122  1.00  0.00     0.050 C 
BRANCH   6  12
HETATM   12  C   UNL     1      29.220  44.102  54.926  1.00  0.00    -0.040 A 
HETATM   13  C   UNL     1      30.167  43.149  55.353  1.00  0.00     0.008 A 
HETATM   14  C   UNL     1      31.109  43.448  56.340  1.00  0.00     0.001 A 
HETATM   15  C   UNL     1      31.117  44.702  56.939  1.00  0.00     0.000 A 
HETATM   16  C   UNL     1      30.177  45.652  56.556  1.00  0.00     0.001 A 
HETATM   17  C   UNL     1      29.235  45.355  55.565  1.00  0.00     0.008 A 
ENDBRANCH   6  12
ENDBRANCH   3   6
ENDBRANCH   1   2
BRANCH   1  18
HETATM   18  C   UNL     1      28.008  40.760  50.355  1.00  0.00     0.084 A 
HETATM   19  N   UNL     1      27.183  41.763  50.295  1.00  0.00    -0.171 NA
HETATM   20  N   UNL     1      26.425  41.958  49.167  1.00  0.00    -0.229 N 
HETATM   21  C   UNL     1      26.421  41.082  48.080  1.00  0.00     0.275 A 
HETATM   22  O   UNL     1      25.675  41.191  47.109  1.00  0.00    -0.266 OA
HETATM   23  C   UNL     1      27.385  39.969  48.124  1.00  0.00     0.046 A 
HETATM   24  C   UNL     1      28.186  39.795  49.248  1.00  0.00     0.008 A 
HETATM   25  C   UNL     1      27.490  39.093  47.035  1.00  0.00     0.018 A 
HETATM   26  C   UNL     1      29.105  38.738  49.278  1.00  0.00     0.014 A 
HETATM   27  C   UNL     1      29.212  37.867  48.191  1.00  0.00     0.001 A 
HETATM   28  C   UNL     1      28.404  38.042  47.070  1.00  0.00     0.001 A 
BRANCH  20  29
HETATM   29  C   UNL     1      25.419  43.019  49.211  1.00  0.00     0.114 C 
HETATM   30  C   UNL     1      24.293  42.705  50.198  1.00  0.00     0.027 C 
HETATM   31  C   UNL     1      23.659  44.064  50.437  1.00  0.00     0.002 C 
HETATM   32  C   UNL     1      24.856  44.995  50.550  1.00  0.00     0.002 C 
HETATM   33  C   UNL     1      25.922  44.415  49.617  1.00  0.00     0.027 C 
ENDBRANCH  20  29
ENDBRANCH   1  18
TORSDOF 5
ENDMDL
MODEL 5
REMARK VINA RESULT:      -9.3      1.302      1.575
REMARK  5 active torsions:
REMARK  status: ('A' for Active; 'I' for Inactive)
REMARK    1  A    between atoms: C_4  and  C_5 
REMARK    2  A    between atoms: C_5  and  C_6 
REMARK       I    between atoms: C_6  and  N_7 
REMARK    3  A    between atoms: N_7  and  C_8 
REMARK    4  A    between atoms: C_8  and  C_9 
REMARK    5  A    between atoms: N_11  and  C_12 
ROOT
HETATM    1  C   UNL     1      29.341  42.406  52.842  1.00  0.00     0.184 C 
ENDROOT
BRANCH   1   2
HETATM    2  N   UNL     1      28.455  42.125  51.730  1.00  0.00    -0.354 N 
HETATM    3  C   UNL     1      28.281  40.859  51.210  1.00  0.00     0.231 C 
HETATM    4  O   UNL     1      28.879  39.886  51.665  1.00  0.00    -0.272 OA
HETATM    5  H   UNL     1      28.044  42.920  51.254  1.00  0.00     0.162 HD
BRANCH   3   6
HETATM    6  C   UNL     1      27.260  40.758  50.041  1.00  0.00     0.072 C 
HETATM    7  C   UNL     1      27.430  42.041  49.178  1.00  0.00     0.050 C 
HETATM    8  C   UNL     1      26.275  42.258  48.203  1.00  0.00     0.169 C 
HETATM    9  O   UNL     1      25.026  42.273  48.885  1.00  0.00    -0.391 OA
HETATM   10  C   UNL     1      24.772  41.042  49.558  1.00  0.00     0.169 C 
HETATM   11  C   UNL     1      25.822  40.817  50.635  1.00  0.00     0.050 C 
BRANCH   6  12
HETATM   12  C   UNL     1      27.496  39.423  49.297  1.00  0.00    -0.040 A 
HETATM   13  C   UNL     1      28.455  39.361  48.265  1.00  0.00     0.008 A 
HETATM   14  C   UNL     1      28.693  38.179  47.560  1.00  0.00     0.001 A 
HETATM   15  C   UNL     1      27.966  37.032  47.857  1.00  0.00     0.000 A 
HETATM   16  C   UNL     1      26.995  37.073  48.852  1.00  0.00     0.001 A 
HETATM   17  C   UNL     1      26.758  38.255  49.561  1.00  0.00     0.008 A 
ENDBRANCH   6  12
ENDBRANCH   3   6
ENDBRANCH   1   2
BRANCH   1  18
HETATM   18  C   UNL     1      28.785  43.608  53.596  1.00  0.00     0.084 A 
HETATM   19  N   UNL     1      27.690  44.136  53.133  1.00  0.00    -0.171 NA
HETATM   20  N   UNL     1      27.125  45.209  53.777  1.00  0.00    -0.229 N 
HETATM   21  C   UNL     1      27.702  45.840  54.879  1.00  0.00     0.275 A 
HETATM   22  O   UNL     1      27.259  46.860  55.402  1.00  0.00    -0.266 OA
HETATM   23  C   UNL     1      28.918  45.219  55.434  1.00  0.00     0.046 A 
HETATM   24  C   UNL     1      29.469  44.104  54.811  1.00  0.00     0.008 A 
HETATM   25  C   UNL     1      29.511  45.753  56.587  1.00  0.00     0.018 A 
HETATM   26  C   UNL     1      30.621  43.516  55.349  1.00  0.00     0.014 A 
HETATM   27  C   UNL     1      31.210  44.047  56.500  1.00  0.00     0.001 A 
HETATM   28  C   UNL     1      30.658  45.166  57.118  1.00  0.00     0.001 A 
BRANCH  20  29
HETATM   29  C   UNL     1      25.975  45.845  53.134  1.00  0.00     0.114 C 
HETATM   30  C   UNL     1      26.398  46.897  52.105  1.00  0.00     0.027 C 
HETATM   31  C   UNL     1      25.148  47.070  51.260  1.00  0.00     0.002 C 
HETATM   32  C   UNL     1      24.643  45.646  51.083  1.00  0.00     0.002 C 
HETATM   33  C   UNL     1      25.020  44.910  52.372  1.00  0.00     0.027 C 
ENDBRANCH  20  29
ENDBRANCH   1  18
TORSDOF 5
ENDMDL
MODEL 6
REMARK VINA RESULT:      -9.2      5.410      9.567
REMARK  5 active torsions:
REMARK  status: ('A' for Active; 'I' for Inactive)
REMARK    1  A    between atoms: C_4  and  C_5 
REMARK    2  A    between atoms: C_5  and  C_6 
REMARK       I    between atoms: C_6  and  N_7 
REMARK    3  A    between atoms: N_7  and  C_8 
REMARK    4  A    between atoms: C_8  and  C_9 
REMARK    5  A    between atoms: N_11  and  C_12 
ROOT
HETATM    1  C   UNL     1      24.360  47.928  49.876  1.00  0.00     0.184 C 
ENDROOT
BRANCH   1   2
HETATM    2  N   UNL     1      22.952  47.895  49.533  1.00  0.00    -0.354 N 
HETATM    3  C   UNL     1      22.452  48.434  48.366  1.00  0.00     0.231 C 
HETATM    4  O   UNL     1      23.182  48.984  47.543  1.00  0.00    -0.272 OA
HETATM    5  H   UNL     1      22.311  47.561  50.243  1.00  0.00     0.162 HD
BRANCH   3   6
HETATM    6  C   UNL     1      20.919  48.266  48.163  1.00  0.00     0.072 C 
HETATM    7  C   UNL     1      20.510  46.943  48.872  1.00  0.00     0.050 C 
HETATM    8  C   UNL     1      19.118  46.462  48.472  1.00  0.00     0.169 C 
HETATM    9  O   UNL     1      19.008  46.330  47.059  1.00  0.00    -0.391 OA
HETATM   10  C   UNL     1      19.224  47.569  46.390  1.00  0.00     0.169 C 
HETATM   11  C   UNL     1      20.642  48.054  46.646  1.00  0.00     0.050 C 
BRANCH   6  12
HETATM   12  C   UNL     1      20.213  49.541  48.680  1.00  0.00    -0.040 A 
HETATM   13  C   UNL     1      20.398  50.763  48.002  1.00  0.00     0.008 A 
HETATM   14  C   UNL     1      19.788  51.941  48.440  1.00  0.00     0.001 A 
HETATM   15  C   UNL     1      18.991  51.930  49.579  1.00  0.00     0.000 A 
HETATM   16  C   UNL     1      18.814  50.745  50.283  1.00  0.00     0.001 A 
HETATM   17  C   UNL     1      19.422  49.564  49.842  1.00  0.00     0.008 A 
ENDBRANCH   6  12
ENDBRANCH   3   6
ENDBRANCH   1   2
BRANCH   1  18
HETATM   18  C   UNL     1      24.653  46.736  50.781  1.00  0.00     0.084 A 
HETATM   19  N   UNL     1      25.118  47.000  51.966  1.00  0.00    -0.171 NA
HETATM   20  N   UNL     1      25.385  45.974  52.838  1.00  0.00    -0.229 N 
HETATM   21  C   UNL     1      25.263  44.625  52.504  1.00  0.00     0.275 A 
HETATM   22  O   UNL     1      25.593  43.698  53.240  1.00  0.00    -0.266 OA
HETATM   23  C   UNL     1      24.695  44.321  51.178  1.00  0.00     0.046 A 
HETATM   24  C   UNL     1      24.382  45.360  50.308  1.00  0.00     0.008 A 
HETATM   25  C   UNL     1      24.473  42.989  50.802  1.00  0.00     0.018 A 
HETATM   26  C   UNL     1      23.836  45.063  49.053  1.00  0.00     0.014 A 
HETATM   27  C   UNL     1      23.611  43.735  48.679  1.00  0.00     0.001 A 
HETATM   28  C   UNL     1      23.931  42.698  49.552  1.00  0.00     0.001 A 
BRANCH  20  29
HETATM   29  C   UNL     1      26.033  46.323  54.103  1.00  0.00     0.114 C 
HETATM   30  C   UNL     1      27.504  45.900  54.132  1.00  0.00     0.027 C 
HETATM   31  C   UNL     1      28.078  46.739  55.260  1.00  0.00     0.002 C 
HETATM   32  C   UNL     1      27.434  48.100  55.049  1.00  0.00     0.002 C 
HETATM   33  C   UNL     1      26.044  47.816  54.472  1.00  0.00     0.027 C 
ENDBRANCH  20  29
ENDBRANCH   1  18
TORSDOF 5
ENDMDL
MODEL 7
REMARK VINA RESULT:      -9.1      6.777     10.313
REMARK  5 active torsions:
REMARK  status: ('A' for Active; 'I' for Inactive)
REMARK    1  A    between atoms: C_4  and  C_5 
REMARK    2  A    between atoms: C_5  and  C_6 
REMARK       I    between atoms: C_6  and  N_7 
REMARK    3  A    between atoms: N_7  and  C_8 
REMARK    4  A    between atoms: C_8  and  C_9 
REMARK    5  A    between atoms: N_11  and  C_12 
ROOT
HETATM    1  C   UNL     1      23.816  48.537  49.436  1.00  0.00     0.184 C 
ENDROOT
BRANCH   1   2
HETATM    2  N   UNL     1      22.441  48.993  49.391  1.00  0.00    -0.354 N 
HETATM    3  C   UNL     1      21.923  49.711  48.333  1.00  0.00     0.231 C 
HETATM    4  O   UNL     1      22.610  50.013  47.358  1.00  0.00    -0.272 OA
HETATM    5  H   UNL     1      21.885  48.870  50.230  1.00  0.00     0.162 HD
BRANCH   3   6
HETATM    6  C   UNL     1      20.416  50.077  48.456  1.00  0.00     0.072 C 
HETATM    7  C   UNL     1      20.340  51.612  48.699  1.00  0.00     0.050 C 
HETATM    8  C   UNL     1      18.967  52.069  49.183  1.00  0.00     0.169 C 
HETATM    9  O   UNL     1      18.572  51.355  50.349  1.00  0.00    -0.391 OA
HETATM   10  C   UNL     1      18.480  49.953  50.111  1.00  0.00     0.169 C 
HETATM   11  C   UNL     1      19.847  49.402  49.738  1.00  0.00     0.050 C 
BRANCH   6  12
HETATM   12  C   UNL     1      19.683  49.569  47.192  1.00  0.00    -0.040 A 
HETATM   13  C   UNL     1      19.622  48.185  46.932  1.00  0.00     0.008 A 
HETATM   14  C   UNL     1      18.980  47.683  45.798  1.00  0.00     0.001 A 
HETATM   15  C   UNL     1      18.397  48.554  44.885  1.00  0.00     0.000 A 
HETATM   16  C   UNL     1      18.466  49.925  45.103  1.00  0.00     0.001 A 
HETATM   17  C   UNL     1      19.107  50.429  46.240  1.00  0.00     0.008 A 
ENDBRANCH   6  12
ENDBRANCH   3   6
ENDBRANCH   1   2
BRANCH   1  18
HETATM   18  C   UNL     1      23.806  47.027  49.641  1.00  0.00     0.084 A 
HETATM   19  N   UNL     1      23.095  46.327  48.807  1.00  0.00    -0.171 NA
HETATM   20  N   UNL     1      23.058  44.959  48.922  1.00  0.00    -0.229 N 
HETATM   21  C   UNL     1      23.685  44.254  49.950  1.00  0.00     0.275 A 
HETATM   22  O   UNL     1      23.577  43.042  50.122  1.00  0.00    -0.266 OA
HETATM   23  C   UNL     1      24.527  45.038  50.871  1.00  0.00     0.046 A 
HETATM   24  C   UNL     1      24.602  46.419  50.730  1.00  0.00     0.008 A 
HETATM   25  C   UNL     1      25.247  44.387  51.883  1.00  0.00     0.018 A 
HETATM   26  C   UNL     1      25.410  47.156  51.606  1.00  0.00     0.014 A 
HETATM   27  C   UNL     1      26.131  46.507  52.612  1.00  0.00     0.001 A 
HETATM   28  C   UNL     1      26.049  45.124  52.753  1.00  0.00     0.001 A 
BRANCH  20  29
HETATM   29  C   UNL     1      22.136  44.238  48.044  1.00  0.00     0.114 C 
HETATM   30  C   UNL     1      20.731  44.846  48.061  1.00  0.00     0.027 C 
HETATM   31  C   UNL     1      20.104  44.289  46.795  1.00  0.00     0.002 C 
HETATM   32  C   UNL     1      21.225  44.393  45.772  1.00  0.00     0.002 C 
HETATM   33  C   UNL     1      22.522  44.178  46.556  1.00  0.00     0.027 C 
ENDBRANCH  20  29
ENDBRANCH   1  18
TORSDOF 5
ENDMDL
MODEL 8
REMARK VINA RESULT:      -9.0     13.240     15.791
REMARK  5 active torsions:
REMARK  status: ('A' for Active; 'I' for Inactive)
REMARK    1  A    between atoms: C_4  and  C_5 
REMARK    2  A    between atoms: C_5  and  C_6 
REMARK       I    between atoms: C_6  and  N_7 
REMARK    3  A    between atoms: N_7  and  C_8 
REMARK    4  A    between atoms: C_8  and  C_9 
REMARK    5  A    between atoms: N_11  and  C_12 
ROOT
HETATM    1  C   UNL     1      31.380  47.697  39.837  1.00  0.00     0.184 C 
ENDROOT
BRANCH   1   2
HETATM    2  N   UNL     1      32.005  48.980  40.091  1.00  0.00    -0.354 N 
HETATM    3  C   UNL     1      33.153  49.118  40.843  1.00  0.00     0.231 C 
HETATM    4  O   UNL     1      33.715  48.150  41.351  1.00  0.00    -0.272 OA
HETATM    5  H   UNL     1      31.501  49.807  39.792  1.00  0.00     0.162 HD
BRANCH   3   6
HETATM    6  C   UNL     1      33.689  50.573  40.970  1.00  0.00     0.072 C 
HETATM    7  C   UNL     1      33.356  51.298  39.635  1.00  0.00     0.050 C 
HETATM    8  C   UNL     1      34.115  52.611  39.467  1.00  0.00     0.169 C 
HETATM    9  O   UNL     1      35.518  52.411  39.594  1.00  0.00    -0.391 OA
HETATM   10  C   UNL     1      35.869  51.893  40.874  1.00  0.00     0.169 C 
HETATM   11  C   UNL     1      35.242  50.521  41.065  1.00  0.00     0.050 C 
BRANCH   6  12
HETATM   12  C   UNL     1      33.080  51.212  42.241  1.00  0.00    -0.040 A 
HETATM   13  C   UNL     1      31.760  51.706  42.207  1.00  0.00     0.008 A 
HETATM   14  C   UNL     1      31.174  52.299  43.328  1.00  0.00     0.001 A 
HETATM   15  C   UNL     1      31.899  52.430  44.506  1.00  0.00     0.000 A 
HETATM   16  C   UNL     1      33.212  51.976  44.558  1.00  0.00     0.001 A 
HETATM   17  C   UNL     1      33.799  51.378  43.437  1.00  0.00     0.008 A 
ENDBRANCH   6  12
ENDBRANCH   3   6
ENDBRANCH   1   2
BRANCH   1  18
HETATM   18  C   UNL     1      29.881  47.926  39.677  1.00  0.00     0.084 A 
HETATM   19  N   UNL     1      29.460  49.150  39.795  1.00  0.00    -0.171 NA
HETATM   20  N   UNL     1      28.124  49.430  39.642  1.00  0.00    -0.229 N 
HETATM   21  C   UNL     1      27.149  48.452  39.441  1.00  0.00     0.275 A 
HETATM   22  O   UNL     1      25.941  48.678  39.402  1.00  0.00    -0.266 OA
HETATM   23  C   UNL     1      27.627  47.069  39.262  1.00  0.00     0.046 A 
HETATM   24  C   UNL     1      28.984  46.789  39.372  1.00  0.00     0.008 A 
HETATM   25  C   UNL     1      26.711  46.046  38.981  1.00  0.00     0.018 A 
HETATM   26  C   UNL     1      29.430  45.474  39.194  1.00  0.00     0.014 A 
HETATM   27  C   UNL     1      28.518  44.454  38.911  1.00  0.00     0.001 A 
HETATM   28  C   UNL     1      27.159  44.738  38.806  1.00  0.00     0.001 A 
BRANCH  20  29
HETATM   29  C   UNL     1      27.690  50.799  39.921  1.00  0.00     0.114 C 
HETATM   30  C   UNL     1      27.899  51.182  41.389  1.00  0.00     0.027 C 
HETATM   31  C   UNL     1      27.847  52.699  41.357  1.00  0.00     0.002 C 
HETATM   32  C   UNL     1      28.643  53.052  40.109  1.00  0.00     0.002 C 
HETATM   33  C   UNL     1      28.391  51.910  39.120  1.00  0.00     0.027 C 
ENDBRANCH  20  29
ENDBRANCH   1  18
TORSDOF 5
ENDMDL
MODEL 9
REMARK VINA RESULT:      -8.9     12.874     15.167
REMARK  5 active torsions:
REMARK  status: ('A' for Active; 'I' for Inactive)
REMARK    1  A    between atoms: C_4  and  C_5 
REMARK    2  A    between atoms: C_5  and  C_6 
REMARK       I    between atoms: C_6  and  N_7 
REMARK    3  A    between atoms: N_7  and  C_8 
REMARK    4  A    between atoms: C_8  and  C_9 
REMARK    5  A    between atoms: N_11  and  C_12 
ROOT
HETATM    1  C   UNL     1      30.526  48.681  42.383  1.00  0.00     0.184 C 
ENDROOT
BRANCH   1   2
HETATM    2  N   UNL     1      29.598  48.094  41.438  1.00  0.00    -0.354 N 
HETATM    3  C   UNL     1      30.005  47.435  40.297  1.00  0.00     0.231 C 
HETATM    4  O   UNL     1      31.195  47.311  40.012  1.00  0.00    -0.272 OA
HETATM    5  H   UNL     1      28.612  48.285  41.579  1.00  0.00     0.162 HD
BRANCH   3   6
HETATM    6  C   UNL     1      28.858  46.844  39.429  1.00  0.00     0.072 C 
HETATM    7  C   UNL     1      28.308  45.602  40.188  1.00  0.00     0.050 C 
HETATM    8  C   UNL     1      27.425  44.716  39.314  1.00  0.00     0.169 C 
HETATM    9  O   UNL     1      28.109  44.319  38.132  1.00  0.00    -0.391 OA
HETATM   10  C   UNL     1      28.487  45.437  37.334  1.00  0.00     0.169 C 
HETATM   11  C   UNL     1      29.470  46.309  38.100  1.00  0.00     0.050 C 
BRANCH   6  12
HETATM   12  C   UNL     1      27.827  47.962  39.151  1.00  0.00    -0.040 A 
HETATM   13  C   UNL     1      28.187  49.057  38.340  1.00  0.00     0.008 A 
HETATM   14  C   UNL     1      27.291  50.094  38.072  1.00  0.00     0.001 A 
HETATM   15  C   UNL     1      26.015  50.071  38.623  1.00  0.00     0.000 A 
HETATM   16  C   UNL     1      25.642  49.017  39.448  1.00  0.00     0.001 A 
HETATM   17  C   UNL     1      26.538  47.976  39.715  1.00  0.00     0.008 A 
ENDBRANCH   6  12
ENDBRANCH   3   6
ENDBRANCH   1   2
BRANCH   1  18
HETATM   18  C   UNL     1      30.989  50.020  41.821  1.00  0.00     0.084 A 
HETATM   19  N   UNL     1      32.271  50.181  41.673  1.00  0.00    -0.171 NA
HETATM   20  N   UNL     1      32.755  51.356  41.153  1.00  0.00    -0.229 N 
HETATM   21  C   UNL     1      31.949  52.450  40.836  1.00  0.00     0.275 A 
HETATM   22  O   UNL     1      32.379  53.540  40.465  1.00  0.00    -0.266 OA
HETATM   23  C   UNL     1      30.493  52.256  40.960  1.00  0.00     0.046 A 
HETATM   24  C   UNL     1      29.997  51.051  41.445  1.00  0.00     0.008 A 
HETATM   25  C   UNL     1      29.618  53.286  40.588  1.00  0.00     0.018 A 
HETATM   26  C   UNL     1      28.612  50.873  41.553  1.00  0.00     0.014 A 
HETATM   27  C   UNL     1      27.739  51.898  41.178  1.00  0.00     0.001 A 
HETATM   28  C   UNL     1      28.241  53.105  40.698  1.00  0.00     0.001 A 
BRANCH  20  29
HETATM   29  C   UNL     1      34.208  51.533  41.138  1.00  0.00     0.114 C 
HETATM   30  C   UNL     1      34.907  50.640  42.166  1.00  0.00     0.027 C 
HETATM   31  C   UNL     1      36.345  50.619  41.677  1.00  0.00     0.002 C 
HETATM   32  C   UNL     1      36.201  50.483  40.169  1.00  0.00     0.002 C 
HETATM   33  C   UNL     1      34.916  51.232  39.806  1.00  0.00     0.027 C 
ENDBRANCH  20  29
ENDBRANCH   1  18
TORSDOF 5
ENDMDL
MODEL 10
REMARK VINA RESULT:      -8.9      6.886     10.479
REMARK  5 active torsions:
REMARK  status: ('A' for Active; 'I' for Inactive)
REMARK    1  A    between atoms: C_4  and  C_5 
REMARK    2  A    between atoms: C_5  and  C_6 
REMARK       I    between atoms: C_6  and  N_7 
REMARK    3  A    between atoms: N_7  and  C_8 
REMARK    4  A    between atoms: C_8  and  C_9 
REMARK    5  A    between atoms: N_11  and  C_12 
ROOT
HETATM    1  C   UNL     1      21.558  45.274  48.060  1.00  0.00     0.184 C 
ENDROOT
BRANCH   1   2
HETATM    2  N   UNL     1      20.387  46.108  48.241  1.00  0.00    -0.354 N 
HETATM    3  C   UNL     1      19.978  47.040  47.311  1.00  0.00     0.231 C 
HETATM    4  O   UNL     1      20.595  47.221  46.262  1.00  0.00    -0.272 OA
HETATM    5  H   UNL     1      19.929  46.071  49.145  1.00  0.00     0.162 HD
BRANCH   3   6
HETATM    6  C   UNL     1      18.676  47.810  47.673  1.00  0.00     0.072 C 
HETATM    7  C   UNL     1      17.845  46.883  48.606  1.00  0.00     0.050 C 
HETATM    8  C   UNL     1      16.399  47.345  48.766  1.00  0.00     0.169 C 
HETATM    9  O   UNL     1      15.763  47.486  47.501  1.00  0.00    -0.391 OA
HETATM   10  C   UNL     1      16.416  48.451  46.681  1.00  0.00     0.169 C 
HETATM   11  C   UNL     1      17.835  47.996  46.377  1.00  0.00     0.050 C 
BRANCH   6  12
HETATM   12  C   UNL     1      19.068  49.179  48.278  1.00  0.00    -0.040 A 
HETATM   13  C   UNL     1      19.118  49.333  49.678  1.00  0.00     0.008 A 
HETATM   14  C   UNL     1      19.457  50.554  50.267  1.00  0.00     0.001 A 
HETATM   15  C   UNL     1      19.738  51.657  49.469  1.00  0.00     0.000 A 
HETATM   16  C   UNL     1      19.669  51.540  48.086  1.00  0.00     0.001 A 
HETATM   17  C   UNL     1      19.333  50.317  47.496  1.00  0.00     0.008 A 
ENDBRANCH   6  12
ENDBRANCH   3   6
ENDBRANCH   1   2
BRANCH   1  18
HETATM   18  C   UNL     1      22.679  45.839  48.925  1.00  0.00     0.084 A 
HETATM   19  N   UNL     1      22.865  47.125  48.877  1.00  0.00    -0.171 NA
HETATM   20  N   UNL     1      23.845  47.702  49.646  1.00  0.00    -0.229 N 
HETATM   21  C   UNL     1      24.733  46.974  50.439  1.00  0.00     0.275 A 
HETATM   22  O   UNL     1      25.675  47.469  51.053  1.00  0.00    -0.266 OA
HETATM   23  C   UNL     1      24.498  45.522  50.531  1.00  0.00     0.046 A 
HETATM   24  C   UNL     1      23.477  44.940  49.787  1.00  0.00     0.008 A 
HETATM   25  C   UNL     1      25.303  44.737  51.368  1.00  0.00     0.018 A 
HETATM   26  C   UNL     1      23.257  43.560  49.886  1.00  0.00     0.014 A 
HETATM   27  C   UNL     1      24.057  42.778  50.723  1.00  0.00     0.001 A 
HETATM   28  C   UNL     1      25.081  43.364  51.462  1.00  0.00     0.001 A 
BRANCH  20  29
HETATM   29  C   UNL     1      24.098  49.130  49.447  1.00  0.00     0.114 C 
HETATM   30  C   UNL     1      25.054  49.389  48.280  1.00  0.00     0.027 C 
HETATM   31  C   UNL     1      24.809  50.852  47.957  1.00  0.00     0.002 C 
HETATM   32  C   UNL     1      23.297  50.986  48.059  1.00  0.00     0.002 C 
HETATM   33  C   UNL     1      22.866  50.003  49.150  1.00  0.00     0.027 C 
ENDBRANCH  20  29
ENDBRANCH   1  18
TORSDOF 5
ENDMDL
