MODEL 1
REMARK VINA RESULT:     -10.1      0.000      0.000
REMARK  6 active torsions:
REMARK  status: ('A' for Active; 'I' for Inactive)
REMARK    1  A    between atoms: C_4  and  N_5 
REMARK       I    between atoms: N_5  and  C_6 
REMARK    2  A    between atoms: C_6  and  C_7 
REMARK    3  A    between atoms: C_9  and  N_10 
REMARK       I    between atoms: N_10  and  C_11 
REMARK    4  A    between atoms: C_11  and  C_12 
REMARK    5  A    between atoms: C_12  and  O_13 
REMARK    6  A    between atoms: O_13  and  C_14 
ROOT
HETATM    1  C   UNL     1      24.907  49.355  48.722  1.00  0.00     0.034 A 
HETATM    2  C   UNL     1      25.072  48.180  49.467  1.00  0.00     0.046 A 
HETATM    3  C   UNL     1      26.322  47.794  49.950  1.00  0.00     0.035 A 
HETATM    4  C   UNL     1      27.443  48.544  49.584  1.00  0.00     0.029 A 
HETATM    5  C   UNL     1      27.298  49.690  48.790  1.00  0.00     0.003 A 
HETATM    6  C   UNL     1      26.030  50.102  48.366  1.00  0.00     0.017 A 
ENDROOT
BRANCH   3   7
HETATM    7  N   UNL     1      26.485  46.667  50.784  1.00  0.00    -0.325 N 
HETATM    8  C   UNL     1      26.055  46.573  52.101  1.00  0.00     0.246 C 
HETATM    9  O   UNL     1      25.547  47.480  52.760  1.00  0.00    -0.271 OA
HETATM   10  H   UNL     1      27.073  45.907  50.455  1.00  0.00     0.169 HD
BRANCH   8  11
HETATM   11  C   UNL     1      26.206  45.184  52.712  1.00  0.00     0.278 C 
BRANCH  11  12
HETATM   12  O   UNL     1      27.261  44.425  52.137  1.00  0.00    -0.342 OA
BRANCH  12  13
HETATM   13  C   UNL     1      28.268  44.083  53.006  1.00  0.00     0.069 A 
HETATM   14  C   UNL     1      29.163  43.123  52.529  1.00  0.00     0.037 A 
HETATM   15  C   UNL     1      30.238  42.703  53.317  1.00  0.00     0.003 A 
HETATM   16  C   UNL     1      30.420  43.237  54.591  1.00  0.00     0.000 A 
HETATM   17  C   UNL     1      29.526  44.186  55.078  1.00  0.00     0.003 A 
HETATM   18  C   UNL     1      28.450  44.607  54.291  1.00  0.00     0.037 A 
ENDBRANCH  12  13
ENDBRANCH  11  12
ENDBRANCH   8  11
ENDBRANCH   3   7
BRANCH   1  19
HETATM   19  C   UNL     1      23.539  49.789  48.295  1.00  0.00     0.257 C 
HETATM   20  N   UNL     1      22.607  49.752  49.312  1.00  0.00    -0.307 N 
HETATM   21  H   UNL     1      22.938  49.584  50.250  1.00  0.00     0.170 HD
HETATM   22  O   UNL     1      23.376  50.140  47.134  1.00  0.00    -0.267 OA
BRANCH  20  23
HETATM   23  C   UNL     1      21.219  49.867  49.184  1.00  0.00     0.130 A 
HETATM   24  C   UNL     1      20.732  51.132  48.849  1.00  0.00     0.057 A 
HETATM   25  C   UNL     1      19.353  51.348  48.778  1.00  0.00    -0.057 A 
HETATM   26  C   UNL     1      18.807  52.698  48.425  1.00  0.00     0.048 C 
HETATM   27  C   UNL     1      18.507  50.267  49.004  1.00  0.00     0.026 A 
HETATM   28  C   UNL     1      19.073  49.043  49.321  1.00  0.00     0.119 A 
HETATM   29  N   UNL     1      20.403  48.830  49.424  1.00  0.00    -0.243 NA
ENDBRANCH  20  23
ENDBRANCH   1  19
TORSDOF 6
ENDMDL
MODEL 2
REMARK VINA RESULT:      -9.4      1.854      9.779
REMARK  6 active torsions:
REMARK  status: ('A' for Active; 'I' for Inactive)
REMARK    1  A    between atoms: C_4  and  N_5 
REMARK       I    between atoms: N_5  and  C_6 
REMARK    2  A    between atoms: C_6  and  C_7 
REMARK    3  A    between atoms: C_9  and  N_10 
REMARK       I    between atoms: N_10  and  C_11 
REMARK    4  A    between atoms: C_11  and  C_12 
REMARK    5  A    between atoms: C_12  and  O_13 
REMARK    6  A    between atoms: O_13  and  C_14 
ROOT
HETATM    1  C   UNL     1      26.204  46.672  49.902  1.00  0.00     0.034 A 
HETATM    2  C   UNL     1      24.827  46.904  50.004  1.00  0.00     0.046 A 
HETATM    3  C   UNL     1      24.251  48.089  49.546  1.00  0.00     0.035 A 
HETATM    4  C   UNL     1      25.090  49.105  49.080  1.00  0.00     0.029 A 
HETATM    5  C   UNL     1      26.477  48.907  49.028  1.00  0.00     0.003 A 
HETATM    6  C   UNL     1      27.034  47.689  49.429  1.00  0.00     0.017 A 
ENDROOT
BRANCH   3   7
HETATM    7  N   UNL     1      22.855  48.292  49.552  1.00  0.00    -0.325 N 
HETATM    8  C   UNL     1      21.997  48.007  48.499  1.00  0.00     0.246 C 
HETATM    9  O   UNL     1      22.333  47.617  47.381  1.00  0.00    -0.271 OA
HETATM   10  H   UNL     1      22.448  48.805  50.328  1.00  0.00     0.169 HD
BRANCH   8  11
HETATM   11  C   UNL     1      20.518  48.162  48.836  1.00  0.00     0.278 C 
BRANCH  11  12
HETATM   12  O   UNL     1      20.276  49.022  49.943  1.00  0.00    -0.342 OA
BRANCH  12  13
HETATM   13  C   UNL     1      19.535  50.142  49.654  1.00  0.00     0.069 A 
HETATM   14  C   UNL     1      20.186  51.099  48.873  1.00  0.00     0.037 A 
HETATM   15  C   UNL     1      19.530  52.276  48.503  1.00  0.00     0.003 A 
HETATM   16  C   UNL     1      18.221  52.506  48.918  1.00  0.00     0.000 A 
HETATM   17  C   UNL     1      17.569  51.561  49.707  1.00  0.00     0.003 A 
HETATM   18  C   UNL     1      18.224  50.384  50.078  1.00  0.00     0.037 A 
ENDBRANCH  12  13
ENDBRANCH  11  12
ENDBRANCH   8  11
ENDBRANCH   3   7
BRANCH   1  19
HETATM   19  C   UNL     1      26.779  45.354  50.319  1.00  0.00     0.257 C 
HETATM   20  N   UNL     1      26.626  45.087  51.664  1.00  0.00    -0.307 N 
HETATM   21  H   UNL     1      26.040  45.706  52.205  1.00  0.00     0.170 HD
HETATM   22  O   UNL     1      27.297  44.648  49.463  1.00  0.00    -0.267 OA
BRANCH  20  23
HETATM   23  C   UNL     1      27.250  44.071  52.395  1.00  0.00     0.130 A 
HETATM   24  C   UNL     1      28.160  44.482  53.371  1.00  0.00     0.057 A 
HETATM   25  C   UNL     1      28.883  43.527  54.091  1.00  0.00    -0.057 A 
HETATM   26  C   UNL     1      29.869  43.944  55.139  1.00  0.00     0.048 C 
HETATM   27  C   UNL     1      28.630  42.182  53.836  1.00  0.00     0.026 A 
HETATM   28  C   UNL     1      27.702  41.861  52.858  1.00  0.00     0.119 A 
HETATM   29  N   UNL     1      27.022  42.776  52.133  1.00  0.00    -0.243 NA
ENDBRANCH  20  23
ENDBRANCH   1  19
TORSDOF 6
ENDMDL
MODEL 3
REMARK VINA RESULT:      -9.1      2.213      4.047
REMARK  6 active torsions:
REMARK  status: ('A' for Active; 'I' for Inactive)
REMARK    1  A    between atoms: C_4  and  N_5 
REMARK       I    between atoms: N_5  and  C_6 
REMARK    2  A    between atoms: C_6  and  C_7 
REMARK    3  A    between atoms: C_9  and  N_10 
REMARK       I    between atoms: N_10  and  C_11 
REMARK    4  A    between atoms: C_11  and  C_12 
REMARK    5  A    between atoms: C_12  and  O_13 
REMARK    6  A    between atoms: O_13  and  C_14 
ROOT
HETATM    1  C   UNL     1      24.441  45.623  50.519  1.00  0.00     0.034 A 
HETATM    2  C   UNL     1      25.244  45.040  51.507  1.00  0.00     0.046 A 
HETATM    3  C   UNL     1      25.258  43.661  51.714  1.00  0.00     0.035 A 
HETATM    4  C   UNL     1      24.366  42.865  50.989  1.00  0.00     0.029 A 
HETATM    5  C   UNL     1      23.515  43.445  50.038  1.00  0.00     0.003 A 
HETATM    6  C   UNL     1      23.558  44.821  49.795  1.00  0.00     0.017 A 
ENDROOT
BRANCH   3   7
HETATM    7  N   UNL     1      26.135  43.053  52.637  1.00  0.00    -0.325 N 
HETATM    8  C   UNL     1      27.312  42.392  52.312  1.00  0.00     0.246 C 
HETATM    9  O   UNL     1      27.721  42.166  51.174  1.00  0.00    -0.271 OA
HETATM   10  H   UNL     1      25.834  42.970  53.603  1.00  0.00     0.169 HD
BRANCH   8  11
HETATM   11  C   UNL     1      28.153  41.982  53.516  1.00  0.00     0.278 C 
BRANCH  11  12
HETATM   12  O   UNL     1      29.459  42.544  53.512  1.00  0.00    -0.342 OA
BRANCH  12  13
HETATM   13  C   UNL     1      29.648  43.574  54.401  1.00  0.00     0.069 A 
HETATM   14  C   UNL     1      30.659  43.368  55.342  1.00  0.00     0.037 A 
HETATM   15  C   UNL     1      30.954  44.350  56.291  1.00  0.00     0.003 A 
HETATM   16  C   UNL     1      30.236  45.543  56.307  1.00  0.00     0.000 A 
HETATM   17  C   UNL     1      29.219  45.752  55.379  1.00  0.00     0.003 A 
HETATM   18  C   UNL     1      28.923  44.770  54.430  1.00  0.00     0.037 A 
ENDBRANCH  12  13
ENDBRANCH  11  12
ENDBRANCH   8  11
ENDBRANCH   3   7
BRANCH   1  19
HETATM   19  C   UNL     1      24.516  47.096  50.261  1.00  0.00     0.257 C 
HETATM   20  N   UNL     1      23.347  47.627  49.753  1.00  0.00    -0.307 N 
HETATM   21  H   UNL     1      22.530  47.036  49.735  1.00  0.00     0.170 HD
HETATM   22  O   UNL     1      25.558  47.681  50.527  1.00  0.00    -0.267 OA
BRANCH  20  23
HETATM   23  C   UNL     1      23.174  48.898  49.196  1.00  0.00     0.130 A 
HETATM   24  C   UNL     1      21.913  49.475  49.355  1.00  0.00     0.057 A 
HETATM   25  C   UNL     1      21.635  50.709  48.761  1.00  0.00    -0.057 A 
HETATM   26  C   UNL     1      20.287  51.346  48.914  1.00  0.00     0.048 C 
HETATM   27  C   UNL     1      22.655  51.345  48.060  1.00  0.00     0.026 A 
HETATM   28  C   UNL     1      23.881  50.706  47.958  1.00  0.00     0.119 A 
HETATM   29  N   UNL     1      24.151  49.500  48.501  1.00  0.00    -0.243 NA
ENDBRANCH  20  23
ENDBRANCH   1  19
TORSDOF 6
ENDMDL
MODEL 4
REMARK VINA RESULT:      -8.9      2.122      9.960
REMARK  6 active torsions:
REMARK  status: ('A' for Active; 'I' for Inactive)
REMARK    1  A    between atoms: C_4  and  N_5 
REMARK       I    between atoms: N_5  and  C_6 
REMARK    2  A    between atoms: C_6  and  C_7 
REMARK    3  A    between atoms: C_9  and  N_10 
REMARK       I    between atoms: N_10  and  C_11 
REMARK    4  A    between atoms: C_11  and  C_12 
REMARK    5  A    between atoms: C_12  and  O_13 
REMARK    6  A    between atoms: O_13  and  C_14 
ROOT
HETATM    1  C   UNL     1      25.269  45.303  49.610  1.00  0.00     0.034 A 
HETATM    2  C   UNL     1      24.814  46.619  49.766  1.00  0.00     0.046 A 
HETATM    3  C   UNL     1      23.543  47.005  49.343  1.00  0.00     0.035 A 
HETATM    4  C   UNL     1      22.757  46.080  48.651  1.00  0.00     0.029 A 
HETATM    5  C   UNL     1      23.225  44.776  48.436  1.00  0.00     0.003 A 
HETATM    6  C   UNL     1      24.476  44.383  48.923  1.00  0.00     0.017 A 
ENDROOT
BRANCH   3   7
HETATM    7  N   UNL     1      23.037  48.300  49.584  1.00  0.00    -0.325 N 
HETATM    8  C   UNL     1      23.309  49.425  48.818  1.00  0.00     0.246 C 
HETATM    9  O   UNL     1      24.093  49.479  47.871  1.00  0.00    -0.271 OA
HETATM   10  H   UNL     1      22.539  48.467  50.454  1.00  0.00     0.169 HD
BRANCH   8  11
HETATM   11  C   UNL     1      22.496  50.657  49.201  1.00  0.00     0.278 C 
BRANCH  11  12
HETATM   12  O   UNL     1      21.524  51.018  48.228  1.00  0.00    -0.342 OA
BRANCH  12  13
HETATM   13  C   UNL     1      20.266  51.255  48.727  1.00  0.00     0.069 A 
HETATM   14  C   UNL     1      19.789  50.290  49.617  1.00  0.00     0.037 A 
HETATM   15  C   UNL     1      18.527  50.427  50.200  1.00  0.00     0.003 A 
HETATM   16  C   UNL     1      17.731  51.528  49.892  1.00  0.00     0.000 A 
HETATM   17  C   UNL     1      18.195  52.489  48.997  1.00  0.00     0.003 A 
HETATM   18  C   UNL     1      19.457  52.352  48.412  1.00  0.00     0.037 A 
ENDBRANCH  12  13
ENDBRANCH  11  12
ENDBRANCH   8  11
ENDBRANCH   3   7
BRANCH   1  19
HETATM   19  C   UNL     1      26.603  44.898  50.156  1.00  0.00     0.257 C 
HETATM   20  N   UNL     1      26.520  44.083  51.267  1.00  0.00    -0.307 N 
HETATM   21  H   UNL     1      25.612  43.725  51.522  1.00  0.00     0.170 HD
HETATM   22  O   UNL     1      27.610  45.294  49.584  1.00  0.00    -0.267 OA
BRANCH  20  23
HETATM   23  C   UNL     1      27.561  43.735  52.133  1.00  0.00     0.130 A 
HETATM   24  C   UNL     1      27.701  44.523  53.277  1.00  0.00     0.057 A 
HETATM   25  C   UNL     1      28.764  44.290  54.154  1.00  0.00    -0.057 A 
HETATM   26  C   UNL     1      28.938  45.125  55.386  1.00  0.00     0.048 C 
HETATM   27  C   UNL     1      29.628  43.236  53.872  1.00  0.00     0.026 A 
HETATM   28  C   UNL     1      29.411  42.497  52.720  1.00  0.00     0.119 A 
HETATM   29  N   UNL     1      28.407  42.734  51.849  1.00  0.00    -0.243 NA
ENDBRANCH  20  23
ENDBRANCH   1  19
TORSDOF 6
ENDMDL
MODEL 5
REMARK VINA RESULT:      -8.8      1.899      9.677
REMARK  6 active torsions:
REMARK  status: ('A' for Active; 'I' for Inactive)
REMARK    1  A    between atoms: C_4  and  N_5 
REMARK       I    between atoms: N_5  and  C_6 
REMARK    2  A    between atoms: C_6  and  C_7 
REMARK    3  A    between atoms: C_9  and  N_10 
REMARK       I    between atoms: N_10  and  C_11 
REMARK    4  A    between atoms: C_11  and  C_12 
REMARK    5  A    between atoms: C_12  and  O_13 
REMARK    6  A    between atoms: O_13  and  C_14 
ROOT
HETATM    1  C   UNL     1      25.851  47.842  49.698  1.00  0.00     0.034 A 
HETATM    2  C   UNL     1      24.541  48.282  49.472  1.00  0.00     0.046 A 
HETATM    3  C   UNL     1      24.272  49.375  48.649  1.00  0.00     0.035 A 
HETATM    4  C   UNL     1      25.345  50.106  48.133  1.00  0.00     0.029 A 
HETATM    5  C   UNL     1      26.663  49.711  48.400  1.00  0.00     0.003 A 
HETATM    6  C   UNL     1      26.918  48.574  49.174  1.00  0.00     0.017 A 
ENDROOT
BRANCH   3   7
HETATM    7  N   UNL     1      22.953  49.766  48.334  1.00  0.00    -0.325 N 
HETATM    8  C   UNL     1      22.133  50.547  49.137  1.00  0.00     0.246 C 
HETATM    9  O   UNL     1      22.400  50.943  50.271  1.00  0.00    -0.271 OA
HETATM   10  H   UNL     1      22.508  49.345  47.524  1.00  0.00     0.169 HD
BRANCH   8  11
HETATM   11  C   UNL     1      20.821  50.961  48.478  1.00  0.00     0.278 C 
BRANCH  11  12
HETATM   12  O   UNL     1      19.712  50.167  48.879  1.00  0.00    -0.342 OA
BRANCH  12  13
HETATM   13  C   UNL     1      18.537  50.859  49.050  1.00  0.00     0.069 A 
HETATM   14  C   UNL     1      17.414  50.276  48.459  1.00  0.00     0.037 A 
HETATM   15  C   UNL     1      16.159  50.880  48.574  1.00  0.00     0.003 A 
HETATM   16  C   UNL     1      16.021  52.074  49.278  1.00  0.00     0.000 A 
HETATM   17  C   UNL     1      17.138  52.667  49.861  1.00  0.00     0.003 A 
HETATM   18  C   UNL     1      18.393  52.065  49.745  1.00  0.00     0.037 A 
ENDBRANCH  12  13
ENDBRANCH  11  12
ENDBRANCH   8  11
ENDBRANCH   3   7
BRANCH   1  19
HETATM   19  C   UNL     1      26.102  46.611  50.514  1.00  0.00     0.257 C 
HETATM   20  N   UNL     1      25.540  46.662  51.773  1.00  0.00    -0.307 N 
HETATM   21  H   UNL     1      24.914  47.425  51.981  1.00  0.00     0.170 HD
HETATM   22  O   UNL     1      26.742  45.699  50.008  1.00  0.00    -0.267 OA
BRANCH  20  23
HETATM   23  C   UNL     1      25.789  45.791  52.839  1.00  0.00     0.130 A 
HETATM   24  C   UNL     1      26.973  46.004  53.547  1.00  0.00     0.057 A 
HETATM   25  C   UNL     1      27.333  45.130  54.576  1.00  0.00    -0.057 A 
HETATM   26  C   UNL     1      28.602  45.336  55.347  1.00  0.00     0.048 C 
HETATM   27  C   UNL     1      26.462  44.091  54.890  1.00  0.00     0.026 A 
HETATM   28  C   UNL     1      25.302  43.958  54.144  1.00  0.00     0.119 A 
HETATM   29  N   UNL     1      24.959  44.777  53.126  1.00  0.00    -0.243 NA
ENDBRANCH  20  23
ENDBRANCH   1  19
TORSDOF 6
ENDMDL
MODEL 6
REMARK VINA RESULT:      -8.7      2.003      2.642
REMARK  6 active torsions:
REMARK  status: ('A' for Active; 'I' for Inactive)
REMARK    1  A    between atoms: C_4  and  N_5 
REMARK       I    between atoms: N_5  and  C_6 
REMARK    2  A    between atoms: C_6  and  C_7 
REMARK    3  A    between atoms: C_9  and  N_10 
REMARK       I    between atoms: N_10  and  C_11 
REMARK    4  A    between atoms: C_11  and  C_12 
REMARK    5  A    between atoms: C_12  and  O_13 
REMARK    6  A    between atoms: O_13  and  C_14 
ROOT
HETATM    1  C   UNL     1      23.396  47.139  49.304  1.00  0.00     0.034 A 
HETATM    2  C   UNL     1      24.488  46.802  50.114  1.00  0.00     0.046 A 
HETATM    3  C   UNL     1      25.101  45.552  50.027  1.00  0.00     0.035 A 
HETATM    4  C   UNL     1      24.536  44.585  49.190  1.00  0.00     0.029 A 
HETATM    5  C   UNL     1      23.406  44.892  48.418  1.00  0.00     0.003 A 
HETATM    6  C   UNL     1      22.841  46.171  48.467  1.00  0.00     0.017 A 
ENDROOT
BRANCH   3   7
HETATM    7  N   UNL     1      26.262  45.236  50.764  1.00  0.00    -0.325 N 
HETATM    8  C   UNL     1      26.284  44.571  51.982  1.00  0.00     0.246 C 
HETATM    9  O   UNL     1      25.298  44.234  52.637  1.00  0.00    -0.271 OA
HETATM   10  H   UNL     1      27.146  45.632  50.460  1.00  0.00     0.169 HD
BRANCH   8  11
HETATM   11  C   UNL     1      27.682  44.209  52.473  1.00  0.00     0.278 C 
BRANCH  11  12
HETATM   12  O   UNL     1      27.688  43.575  53.745  1.00  0.00    -0.342 OA
BRANCH  12  13
HETATM   13  C   UNL     1      28.718  43.949  54.574  1.00  0.00     0.069 A 
HETATM   14  C   UNL     1      29.695  42.973  54.783  1.00  0.00     0.037 A 
HETATM   15  C   UNL     1      30.799  43.239  55.597  1.00  0.00     0.003 A 
HETATM   16  C   UNL     1      30.929  44.482  56.211  1.00  0.00     0.000 A 
HETATM   17  C   UNL     1      29.954  45.457  56.017  1.00  0.00     0.003 A 
HETATM   18  C   UNL     1      28.849  45.191  55.204  1.00  0.00     0.037 A 
ENDBRANCH  12  13
ENDBRANCH  11  12
ENDBRANCH   8  11
ENDBRANCH   3   7
BRANCH   1  19
HETATM   19  C   UNL     1      22.818  48.520  49.357  1.00  0.00     0.257 C 
HETATM   20  N   UNL     1      21.439  48.538  49.404  1.00  0.00    -0.307 N 
HETATM   21  H   UNL     1      20.959  47.660  49.539  1.00  0.00     0.170 HD
HETATM   22  O   UNL     1      23.587  49.472  49.371  1.00  0.00    -0.267 OA
BRANCH  20  23
HETATM   23  C   UNL     1      20.607  49.647  49.224  1.00  0.00     0.130 A 
HETATM   24  C   UNL     1      19.984  49.756  47.979  1.00  0.00     0.057 A 
HETATM   25  C   UNL     1      19.199  50.876  47.691  1.00  0.00    -0.057 A 
HETATM   26  C   UNL     1      18.525  51.017  46.360  1.00  0.00     0.048 C 
HETATM   27  C   UNL     1      19.028  51.832  48.689  1.00  0.00     0.026 A 
HETATM   28  C   UNL     1      19.674  51.641  49.900  1.00  0.00     0.119 A 
HETATM   29  N   UNL     1      20.461  50.579  50.177  1.00  0.00    -0.243 NA
ENDBRANCH  20  23
ENDBRANCH   1  19
TORSDOF 6
ENDMDL
MODEL 7
REMARK VINA RESULT:      -8.5      5.352      8.805
REMARK  6 active torsions:
REMARK  status: ('A' for Active; 'I' for Inactive)
REMARK    1  A    between atoms: C_4  and  N_5 
REMARK       I    between atoms: N_5  and  C_6 
REMARK    2  A    between atoms: C_6  and  C_7 
REMARK    3  A    between atoms: C_9  and  N_10 
REMARK       I    between atoms: N_10  and  C_11 
REMARK    4  A    between atoms: C_11  and  C_12 
REMARK    5  A    between atoms: C_12  and  O_13 
REMARK    6  A    between atoms: O_13  and  C_14 
ROOT
HETATM    1  C   UNL     1      26.144  43.357  50.330  1.00  0.00     0.034 A 
HETATM    2  C   UNL     1      26.806  44.035  51.362  1.00  0.00     0.046 A 
HETATM    3  C   UNL     1      26.198  45.084  52.052  1.00  0.00     0.035 A 
HETATM    4  C   UNL     1      24.946  45.532  51.621  1.00  0.00     0.029 A 
HETATM    5  C   UNL     1      24.299  44.900  50.551  1.00  0.00     0.003 A 
HETATM    6  C   UNL     1      24.892  43.807  49.910  1.00  0.00     0.017 A 
ENDROOT
BRANCH   3   7
HETATM    7  N   UNL     1      26.814  45.707  53.157  1.00  0.00    -0.325 N 
HETATM    8  C   UNL     1      26.825  45.214  54.455  1.00  0.00     0.246 C 
HETATM    9  O   UNL     1      26.231  44.211  54.849  1.00  0.00    -0.271 OA
HETATM   10  H   UNL     1      27.170  46.651  53.039  1.00  0.00     0.169 HD
BRANCH   8  11
HETATM   11  C   UNL     1      27.709  46.000  55.417  1.00  0.00     0.278 C 
BRANCH  11  12
HETATM   12  O   UNL     1      29.091  45.950  55.085  1.00  0.00    -0.342 OA
BRANCH  12  13
HETATM   13  C   UNL     1      29.883  45.303  56.002  1.00  0.00     0.069 A 
HETATM   14  C   UNL     1      30.437  44.099  55.562  1.00  0.00     0.037 A 
HETATM   15  C   UNL     1      31.272  43.355  56.401  1.00  0.00     0.003 A 
HETATM   16  C   UNL     1      31.552  43.809  57.687  1.00  0.00     0.000 A 
HETATM   17  C   UNL     1      30.994  45.003  58.137  1.00  0.00     0.003 A 
HETATM   18  C   UNL     1      30.159  45.747  57.300  1.00  0.00     0.037 A 
ENDBRANCH  12  13
ENDBRANCH  11  12
ENDBRANCH   8  11
ENDBRANCH   3   7
BRANCH   1  19
HETATM   19  C   UNL     1      26.788  42.177  49.670  1.00  0.00     0.257 C 
HETATM   20  N   UNL     1      26.773  41.036  50.446  1.00  0.00    -0.307 N 
HETATM   21  H   UNL     1      26.227  41.049  51.294  1.00  0.00     0.170 HD
HETATM   22  O   UNL     1      27.239  42.316  48.541  1.00  0.00    -0.267 OA
BRANCH  20  23
HETATM   23  C   UNL     1      27.488  39.856  50.219  1.00  0.00     0.130 A 
HETATM   24  C   UNL     1      26.815  38.850  49.523  1.00  0.00     0.057 A 
HETATM   25  C   UNL     1      27.432  37.612  49.324  1.00  0.00    -0.057 A 
HETATM   26  C   UNL     1      26.727  36.516  48.585  1.00  0.00     0.048 C 
HETATM   27  C   UNL     1      28.731  37.443  49.794  1.00  0.00     0.026 A 
HETATM   28  C   UNL     1      29.330  38.496  50.465  1.00  0.00     0.119 A 
HETATM   29  N   UNL     1      28.732  39.686  50.692  1.00  0.00    -0.243 NA
ENDBRANCH  20  23
ENDBRANCH   1  19
TORSDOF 6
ENDMDL
MODEL 8
REMARK VINA RESULT:      -8.5      1.940     10.148
REMARK  6 active torsions:
REMARK  status: ('A' for Active; 'I' for Inactive)
REMARK    1  A    between atoms: C_4  and  N_5 
REMARK       I    between atoms: N_5  and  C_6 
REMARK    2  A    between atoms: C_6  and  C_7 
REMARK    3  A    between atoms: C_9  and  N_10 
REMARK       I    between atoms: N_10  and  C_11 
REMARK    4  A    between atoms: C_11  and  C_12 
REMARK    5  A    between atoms: C_12  and  O_13 
REMARK    6  A    between atoms: O_13  and  C_14 
ROOT
HETATM    1  C   UNL     1      25.765  47.423  49.901  1.00  0.00     0.034 A 
HETATM    2  C   UNL     1      24.487  47.913  49.605  1.00  0.00     0.046 A 
HETATM    3  C   UNL     1      24.307  49.052  48.820  1.00  0.00     0.035 A 
HETATM    4  C   UNL     1      25.434  49.774  48.419  1.00  0.00     0.029 A 
HETATM    5  C   UNL     1      26.718  49.326  48.760  1.00  0.00     0.003 A 
HETATM    6  C   UNL     1      26.885  48.147  49.492  1.00  0.00     0.017 A 
ENDROOT
BRANCH   3   7
HETATM    7  N   UNL     1      23.025  49.497  48.433  1.00  0.00    -0.325 N 
HETATM    8  C   UNL     1      22.237  50.393  49.141  1.00  0.00     0.246 C 
HETATM    9  O   UNL     1      22.500  50.866  50.246  1.00  0.00    -0.271 OA
HETATM   10  H   UNL     1      22.575  49.038  47.646  1.00  0.00     0.169 HD
BRANCH   8  11
HETATM   11  C   UNL     1      20.973  50.832  48.409  1.00  0.00     0.278 C 
BRANCH  11  12
HETATM   12  O   UNL     1      20.156  51.712  49.169  1.00  0.00    -0.342 OA
BRANCH  12  13
HETATM   13  C   UNL     1      18.804  51.508  49.034  1.00  0.00     0.069 A 
HETATM   14  C   UNL     1      17.996  52.397  49.746  1.00  0.00     0.037 A 
HETATM   15  C   UNL     1      16.604  52.298  49.678  1.00  0.00     0.003 A 
HETATM   16  C   UNL     1      16.011  51.305  48.902  1.00  0.00     0.000 A 
HETATM   17  C   UNL     1      16.810  50.407  48.198  1.00  0.00     0.003 A 
HETATM   18  C   UNL     1      18.202  50.505  48.266  1.00  0.00     0.037 A 
ENDBRANCH  12  13
ENDBRANCH  11  12
ENDBRANCH   8  11
ENDBRANCH   3   7
BRANCH   1  19
HETATM   19  C   UNL     1      25.923  46.147  50.670  1.00  0.00     0.257 C 
HETATM   20  N   UNL     1      27.035  45.417  50.303  1.00  0.00    -0.307 N 
HETATM   21  H   UNL     1      27.699  45.850  49.679  1.00  0.00     0.170 HD
HETATM   22  O   UNL     1      25.096  45.882  51.533  1.00  0.00    -0.267 OA
BRANCH  20  23
HETATM   23  C   UNL     1      27.326  44.096  50.656  1.00  0.00     0.130 A 
HETATM   24  C   UNL     1      28.109  43.921  51.799  1.00  0.00     0.057 A 
HETATM   25  C   UNL     1      28.509  42.637  52.176  1.00  0.00    -0.057 A 
HETATM   26  C   UNL     1      29.353  42.425  53.396  1.00  0.00     0.048 C 
HETATM   27  C   UNL     1      28.069  41.561  51.411  1.00  0.00     0.026 A 
HETATM   28  C   UNL     1      27.286  41.822  50.298  1.00  0.00     0.119 A 
HETATM   29  N   UNL     1      26.920  43.061  49.906  1.00  0.00    -0.243 NA
ENDBRANCH  20  23
ENDBRANCH   1  19
TORSDOF 6
ENDMDL
MODEL 9
REMARK VINA RESULT:      -8.2      3.137     10.133
REMARK  6 active torsions:
REMARK  status: ('A' for Active; 'I' for Inactive)
REMARK    1  A    between atoms: C_4  and  N_5 
REMARK       I    between atoms: N_5  and  C_6 
REMARK    2  A    between atoms: C_6  and  C_7 
REMARK    3  A    between atoms: C_9  and  N_10 
REMARK       I    between atoms: N_10  and  C_11 
REMARK    4  A    between atoms: C_11  and  C_12 
REMARK    5  A    between atoms: C_12  and  O_13 
REMARK    6  A    between atoms: O_13  and  C_14 
ROOT
HETATM    1  C   UNL     1      25.711  44.371  51.163  1.00  0.00     0.034 A 
HETATM    2  C   UNL     1      24.806  45.242  50.544  1.00  0.00     0.046 A 
HETATM    3  C   UNL     1      24.680  46.571  50.948  1.00  0.00     0.035 A 
HETATM    4  C   UNL     1      25.397  47.001  52.068  1.00  0.00     0.029 A 
HETATM    5  C   UNL     1      26.263  46.122  52.733  1.00  0.00     0.003 A 
HETATM    6  C   UNL     1      26.428  44.810  52.276  1.00  0.00     0.017 A 
ENDROOT
BRANCH   3   7
HETATM    7  N   UNL     1      23.845  47.482  50.268  1.00  0.00    -0.325 N 
HETATM    8  C   UNL     1      24.272  48.435  49.354  1.00  0.00     0.246 C 
HETATM    9  O   UNL     1      25.442  48.683  49.065  1.00  0.00    -0.271 OA
HETATM   10  H   UNL     1      22.872  47.547  50.554  1.00  0.00     0.169 HD
BRANCH   8  11
HETATM   11  C   UNL     1      23.142  49.171  48.641  1.00  0.00     0.278 C 
BRANCH  11  12
HETATM   12  O   UNL     1      21.848  48.795  49.095  1.00  0.00    -0.342 OA
BRANCH  12  13
HETATM   13  C   UNL     1      20.933  49.819  49.148  1.00  0.00     0.069 A 
HETATM   14  C   UNL     1      19.865  49.615  50.024  1.00  0.00     0.037 A 
HETATM   15  C   UNL     1      18.877  50.591  50.175  1.00  0.00     0.003 A 
HETATM   16  C   UNL     1      18.947  51.775  49.444  1.00  0.00     0.000 A 
HETATM   17  C   UNL     1      20.003  51.981  48.560  1.00  0.00     0.003 A 
HETATM   18  C   UNL     1      20.992  51.005  48.408  1.00  0.00     0.037 A 
ENDBRANCH  12  13
ENDBRANCH  11  12
ENDBRANCH   8  11
ENDBRANCH   3   7
BRANCH   1  19
HETATM   19  C   UNL     1      25.887  42.976  50.647  1.00  0.00     0.257 C 
HETATM   20  N   UNL     1      27.161  42.719  50.181  1.00  0.00    -0.307 N 
HETATM   21  H   UNL     1      27.875  43.411  50.351  1.00  0.00     0.170 HD
HETATM   22  O   UNL     1      24.932  42.213  50.697  1.00  0.00    -0.267 OA
BRANCH  20  23
HETATM   23  C   UNL     1      27.573  41.611  49.433  1.00  0.00     0.130 A 
HETATM   24  C   UNL     1      28.127  40.551  50.153  1.00  0.00     0.057 A 
HETATM   25  C   UNL     1      28.635  39.441  49.473  1.00  0.00    -0.057 A 
HETATM   26  C   UNL     1      29.239  38.294  50.224  1.00  0.00     0.048 C 
HETATM   27  C   UNL     1      28.526  39.414  48.086  1.00  0.00     0.026 A 
HETATM   28  C   UNL     1      27.953  40.504  47.450  1.00  0.00     0.119 A 
HETATM   29  N   UNL     1      27.488  41.596  48.094  1.00  0.00    -0.243 NA
ENDBRANCH  20  23
ENDBRANCH   1  19
TORSDOF 6
ENDMDL
MODEL 10
REMARK VINA RESULT:      -8.1      3.225      4.345
REMARK  6 active torsions:
REMARK  status: ('A' for Active; 'I' for Inactive)
REMARK    1  A    between atoms: C_4  and  N_5 
REMARK       I    between atoms: N_5  and  C_6 
REMARK    2  A    between atoms: C_6  and  C_7 
REMARK    3  A    between atoms: C_9  and  N_10 
REMARK       I    between atoms: N_10  and  C_11 
REMARK    4  A    between atoms: C_11  and  C_12 
REMARK    5  A    between atoms: C_12  and  O_13 
REMARK    6  A    between atoms: O_13  and  C_14 
ROOT
HETATM    1  C   UNL     1      22.766  43.825  49.164  1.00  0.00     0.034 A 
HETATM    2  C   UNL     1      23.505  43.930  50.349  1.00  0.00     0.046 A 
HETATM    3  C   UNL     1      24.471  42.984  50.691  1.00  0.00     0.035 A 
HETATM    4  C   UNL     1      24.617  41.853  49.882  1.00  0.00     0.029 A 
HETATM    5  C   UNL     1      23.841  41.708  48.725  1.00  0.00     0.003 A 
HETATM    6  C   UNL     1      22.922  42.697  48.359  1.00  0.00     0.017 A 
ENDROOT
BRANCH   3   7
HETATM    7  N   UNL     1      25.291  43.132  51.830  1.00  0.00    -0.325 N 
HETATM    8  C   UNL     1      26.473  43.858  51.881  1.00  0.00     0.246 C 
HETATM    9  O   UNL     1      27.022  44.408  50.926  1.00  0.00    -0.271 OA
HETATM   10  H   UNL     1      25.085  42.565  52.647  1.00  0.00     0.169 HD
BRANCH   8  11
HETATM   11  C   UNL     1      27.066  43.993  53.279  1.00  0.00     0.278 C 
BRANCH  11  12
HETATM   12  O   UNL     1      28.262  43.247  53.461  1.00  0.00    -0.342 OA
BRANCH  12  13
HETATM   13  C   UNL     1      29.103  43.728  54.435  1.00  0.00     0.069 A 
HETATM   14  C   UNL     1      28.771  44.990  54.933  1.00  0.00     0.037 A 
HETATM   15  C   UNL     1      29.545  45.580  55.936  1.00  0.00     0.003 A 
HETATM   16  C   UNL     1      30.658  44.914  56.443  1.00  0.00     0.000 A 
HETATM   17  C   UNL     1      31.001  43.660  55.943  1.00  0.00     0.003 A 
HETATM   18  C   UNL     1      30.229  43.069  54.940  1.00  0.00     0.037 A 
ENDBRANCH  12  13
ENDBRANCH  11  12
ENDBRANCH   8  11
ENDBRANCH   3   7
BRANCH   1  19
HETATM   19  C   UNL     1      21.800  44.905  48.781  1.00  0.00     0.257 C 
HETATM   20  N   UNL     1      22.413  46.053  48.322  1.00  0.00    -0.307 N 
HETATM   21  H   UNL     1      23.407  46.023  48.152  1.00  0.00     0.170 HD
HETATM   22  O   UNL     1      20.602  44.678  48.888  1.00  0.00    -0.267 OA
BRANCH  20  23
HETATM   23  C   UNL     1      21.813  47.299  48.116  1.00  0.00     0.130 A 
HETATM   24  C   UNL     1      22.409  48.386  48.759  1.00  0.00     0.057 A 
HETATM   25  C   UNL     1      21.826  49.652  48.667  1.00  0.00    -0.057 A 
HETATM   26  C   UNL     1      22.445  50.832  49.352  1.00  0.00     0.048 C 
HETATM   27  C   UNL     1      20.680  49.792  47.888  1.00  0.00     0.026 A 
HETATM   28  C   UNL     1      20.160  48.664  47.275  1.00  0.00     0.119 A 
HETATM   29  N   UNL     1      20.697  47.429  47.383  1.00  0.00    -0.243 NA
ENDBRANCH  20  23
ENDBRANCH   1  19
TORSDOF 6
ENDMDL
