MODEL 1
REMARK VINA RESULT:      -9.6      0.000      0.000
REMARK  5 active torsions:
REMARK  status: ('A' for Active; 'I' for Inactive)
REMARK    1  A    between atoms: C_6  and  S_7 
REMARK    2  A    between atoms: S_7  and  C_8 
REMARK    3  A    between atoms: C_8  and  C_9 
REMARK       I    between atoms: C_9  and  N_10 
REMARK    4  A    between atoms: N_10  and  C_11 
REMARK    5  A    between atoms: N_22  and  C_23 
ROOT
HETATM    1  C   UNL     1      18.675  51.404  49.769  1.00  0.00     0.001 A 
HETATM    2  C   UNL     1      20.047  51.246  49.964  1.00  0.00     0.019 A 
HETATM    3  C   UNL     1      20.682  50.085  49.510  1.00  0.00     0.061 A 
HETATM    4  C   UNL     1      19.963  49.083  48.864  1.00  0.00     0.075 A 
HETATM    5  N   UNL     1      20.568  47.913  48.392  1.00  0.00    -0.223 NA
HETATM    6  C   UNL     1      21.840  47.758  48.574  1.00  0.00     0.177 A 
HETATM    7  N   UNL     1      22.660  48.691  49.194  1.00  0.00    -0.255 N 
HETATM    8  C   UNL     1      22.128  49.875  49.712  1.00  0.00     0.267 A 
HETATM    9  O   UNL     1      22.759  50.716  50.351  1.00  0.00    -0.267 OA
HETATM   10  C   UNL     1      18.588  49.249  48.678  1.00  0.00     0.032 A 
HETATM   11  C   UNL     1      17.946  50.405  49.127  1.00  0.00     0.002 A 
ENDROOT
BRANCH   6  12
HETATM   12  S   UNL     1      22.535  46.291  47.899  1.00  0.00    -0.082 SA
BRANCH  12  13
HETATM   13  C   UNL     1      21.515  45.032  48.730  1.00  0.00     0.185 C 
BRANCH  13  14
HETATM   14  C   UNL     1      22.319  44.087  49.621  1.00  0.00     0.231 C 
HETATM   15  N   UNL     1      23.631  43.909  49.231  1.00  0.00    -0.326 N 
HETATM   16  H   UNL     1      23.925  44.460  48.427  1.00  0.00     0.169 HD
HETATM   17  O   UNL     1      21.768  43.506  50.554  1.00  0.00    -0.272 OA
BRANCH  15  18
HETATM   18  C   UNL     1      24.608  43.066  49.794  1.00  0.00     0.037 A 
HETATM   19  C   UNL     1      25.350  43.392  50.934  1.00  0.00     0.061 A 
HETATM   20  C   UNL     1      26.250  42.451  51.383  1.00  0.00     0.065 A 
HETATM   21  C   UNL     1      26.440  41.230  50.742  1.00  0.00     0.063 A 
HETATM   22  N   UNL     1      27.095  42.488  52.488  1.00  0.00    -0.306 N 
HETATM   23  N   UNL     1      27.404  40.520  51.445  1.00  0.00    -0.307 N 
HETATM   24  C   UNL     1      25.738  40.881  49.616  1.00  0.00     0.034 A 
HETATM   25  C   UNL     1      27.821  41.290  52.541  1.00  0.00     0.325 A 
HETATM   26  H   UNL     1      27.764  39.603  51.238  1.00  0.00     0.170 HD
HETATM   27  O   UNL     1      28.649  40.975  53.376  1.00  0.00    -0.247 OA
HETATM   28  C   UNL     1      24.807  41.816  49.147  1.00  0.00     0.032 A 
HETATM   29  H   UNL     1      27.188  43.235  53.156  1.00  0.00     0.170 HD
ENDBRANCH  15  18
ENDBRANCH  13  14
ENDBRANCH  12  13
ENDBRANCH   6  12
BRANCH   7  30
HETATM   30  C   UNL     1      24.065  48.501  49.352  1.00  0.00     0.066 A 
HETATM   31  C   UNL     1      24.994  49.297  48.659  1.00  0.00     0.061 A 
HETATM   32 CL   UNL     1      24.500  50.455  47.473  1.00  0.00    -0.082 Cl
HETATM   33  C   UNL     1      26.364  49.120  48.868  1.00  0.00     0.026 A 
HETATM   34  C   UNL     1      26.816  48.152  49.766  1.00  0.00     0.002 A 
HETATM   35  C   UNL     1      25.901  47.358  50.456  1.00  0.00     0.002 A 
HETATM   36  C   UNL     1      24.530  47.530  50.255  1.00  0.00     0.032 A 
ENDBRANCH   7  30
TORSDOF 5
ENDMDL
MODEL 2
REMARK VINA RESULT:      -9.6      3.057      4.265
REMARK  5 active torsions:
REMARK  status: ('A' for Active; 'I' for Inactive)
REMARK    1  A    between atoms: C_6  and  S_7 
REMARK    2  A    between atoms: S_7  and  C_8 
REMARK    3  A    between atoms: C_8  and  C_9 
REMARK       I    between atoms: C_9  and  N_10 
REMARK    4  A    between atoms: N_10  and  C_11 
REMARK    5  A    between atoms: N_22  and  C_23 
ROOT
HETATM    1  C   UNL     1      24.051  50.573  48.032  1.00  0.00     0.001 A 
HETATM    2  C   UNL     1      24.987  49.855  48.774  1.00  0.00     0.019 A 
HETATM    3  C   UNL     1      24.710  48.534  49.146  1.00  0.00     0.061 A 
HETATM    4  C   UNL     1      23.512  47.926  48.785  1.00  0.00     0.075 A 
HETATM    5  N   UNL     1      23.207  46.607  49.134  1.00  0.00    -0.223 NA
HETATM    6  C   UNL     1      24.069  45.935  49.826  1.00  0.00     0.177 A 
HETATM    7  N   UNL     1      25.300  46.431  50.235  1.00  0.00    -0.255 N 
HETATM    8  C   UNL     1      25.669  47.748  49.944  1.00  0.00     0.267 A 
HETATM    9  O   UNL     1      26.697  48.299  50.337  1.00  0.00    -0.267 OA
HETATM   10  C   UNL     1      22.578  48.657  48.045  1.00  0.00     0.032 A 
HETATM   11  C   UNL     1      22.845  49.975  47.669  1.00  0.00     0.002 A 
ENDROOT
BRANCH   6  12
HETATM   12  S   UNL     1      23.638  44.266  50.173  1.00  0.00    -0.082 SA
BRANCH  12  13
HETATM   13  C   UNL     1      23.889  43.514  48.534  1.00  0.00     0.185 C 
BRANCH  13  14
HETATM   14  C   UNL     1      24.549  42.139  48.588  1.00  0.00     0.231 C 
HETATM   15  N   UNL     1      25.918  42.166  48.766  1.00  0.00    -0.326 N 
HETATM   16  H   UNL     1      26.322  43.093  48.887  1.00  0.00     0.169 HD
HETATM   17  O   UNL     1      23.875  41.127  48.409  1.00  0.00    -0.272 OA
BRANCH  15  18
HETATM   18  C   UNL     1      26.822  41.088  48.796  1.00  0.00     0.037 A 
HETATM   19  C   UNL     1      27.377  40.575  49.973  1.00  0.00     0.061 A 
HETATM   20  C   UNL     1      28.225  39.497  49.845  1.00  0.00     0.065 A 
HETATM   21  C   UNL     1      28.540  38.934  48.611  1.00  0.00     0.063 A 
HETATM   22  N   UNL     1      28.895  38.774  50.827  1.00  0.00    -0.306 N 
HETATM   23  N   UNL     1      29.407  37.872  48.831  1.00  0.00    -0.307 N 
HETATM   24  C   UNL     1      28.023  39.418  47.437  1.00  0.00     0.034 A 
HETATM   25  C   UNL     1      29.636  37.755  50.210  1.00  0.00     0.325 A 
HETATM   26  H   UNL     1      29.819  37.262  48.144  1.00  0.00     0.170 HD
HETATM   27  O   UNL     1      30.338  36.929  50.762  1.00  0.00    -0.247 OA
HETATM   28  C   UNL     1      27.148  40.506  47.541  1.00  0.00     0.032 A 
HETATM   29  H   UNL     1      28.868  38.930  51.821  1.00  0.00     0.170 HD
ENDBRANCH  15  18
ENDBRANCH  13  14
ENDBRANCH  12  13
ENDBRANCH   6  12
BRANCH   7  30
HETATM   30  C   UNL     1      26.241  45.653  50.974  1.00  0.00     0.066 A 
HETATM   31  C   UNL     1      26.293  45.709  52.378  1.00  0.00     0.061 A 
HETATM   32 CL   UNL     1      25.325  46.820  53.285  1.00  0.00    -0.082 Cl
HETATM   33  C   UNL     1      27.193  44.903  53.079  1.00  0.00     0.026 A 
HETATM   34  C   UNL     1      28.042  44.038  52.388  1.00  0.00     0.002 A 
HETATM   35  C   UNL     1      27.997  43.977  50.996  1.00  0.00     0.002 A 
HETATM   36  C   UNL     1      27.099  44.779  50.288  1.00  0.00     0.032 A 
ENDBRANCH   7  30
TORSDOF 5
ENDMDL
MODEL 3
REMARK VINA RESULT:      -9.3     11.976     13.359
REMARK  5 active torsions:
REMARK  status: ('A' for Active; 'I' for Inactive)
REMARK    1  A    between atoms: C_6  and  S_7 
REMARK    2  A    between atoms: S_7  and  C_8 
REMARK    3  A    between atoms: C_8  and  C_9 
REMARK       I    between atoms: C_9  and  N_10 
REMARK    4  A    between atoms: N_10  and  C_11 
REMARK    5  A    between atoms: N_22  and  C_23 
ROOT
HETATM    1  C   UNL     1      24.435  46.361  37.701  1.00  0.00     0.001 A 
HETATM    2  C   UNL     1      24.819  47.587  38.241  1.00  0.00     0.019 A 
HETATM    3  C   UNL     1      26.179  47.878  38.400  1.00  0.00     0.061 A 
HETATM    4  C   UNL     1      27.156  46.960  38.025  1.00  0.00     0.075 A 
HETATM    5  N   UNL     1      28.522  47.222  38.164  1.00  0.00    -0.223 NA
HETATM    6  C   UNL     1      28.886  48.357  38.668  1.00  0.00     0.177 A 
HETATM    7  N   UNL     1      28.005  49.353  39.068  1.00  0.00    -0.255 N 
HETATM    8  C   UNL     1      26.623  49.158  38.982  1.00  0.00     0.267 A 
HETATM    9  O   UNL     1      25.771  49.945  39.390  1.00  0.00    -0.267 OA
HETATM   10  C   UNL     1      26.759  45.732  37.489  1.00  0.00     0.032 A 
HETATM   11  C   UNL     1      25.405  45.432  37.326  1.00  0.00     0.002 A 
ENDROOT
BRANCH   6  12
HETATM   12  S   UNL     1      30.620  48.634  38.753  1.00  0.00    -0.082 SA
BRANCH  12  13
HETATM   13  C   UNL     1      31.071  47.488  40.094  1.00  0.00     0.185 C 
BRANCH  13  14
HETATM   14  C   UNL     1      32.170  48.022  41.009  1.00  0.00     0.231 C 
HETATM   15  N   UNL     1      32.088  49.374  41.277  1.00  0.00    -0.326 N 
HETATM   16  H   UNL     1      31.282  49.848  40.874  1.00  0.00     0.169 HD
HETATM   17  O   UNL     1      33.071  47.275  41.388  1.00  0.00    -0.272 OA
BRANCH  15  18
HETATM   18  C   UNL     1      32.970  50.177  42.024  1.00  0.00     0.037 A 
HETATM   19  C   UNL     1      34.319  50.354  41.701  1.00  0.00     0.061 A 
HETATM   20  C   UNL     1      35.049  51.195  42.511  1.00  0.00     0.065 A 
HETATM   21  C   UNL     1      34.496  51.840  43.615  1.00  0.00     0.063 A 
HETATM   22  N   UNL     1      36.385  51.574  42.422  1.00  0.00    -0.306 N 
HETATM   23  N   UNL     1      35.490  52.608  44.207  1.00  0.00    -0.307 N 
HETATM   24  C   UNL     1      33.180  51.681  43.967  1.00  0.00     0.034 A 
HETATM   25  C   UNL     1      36.675  52.457  43.472  1.00  0.00     0.325 A 
HETATM   26  H   UNL     1      35.410  53.193  45.023  1.00  0.00     0.170 HD
HETATM   27  O   UNL     1      37.744  52.991  43.701  1.00  0.00    -0.247 OA
HETATM   28  C   UNL     1      32.413  50.840  43.151  1.00  0.00     0.032 A 
HETATM   29  H   UNL     1      37.054  51.282  41.728  1.00  0.00     0.170 HD
ENDBRANCH  15  18
ENDBRANCH  13  14
ENDBRANCH  12  13
ENDBRANCH   6  12
BRANCH   7  30
HETATM   30  C   UNL     1      28.442  50.605  39.594  1.00  0.00     0.066 A 
HETATM   31  C   UNL     1      28.817  50.740  40.943  1.00  0.00     0.061 A 
HETATM   32 CL   UNL     1      28.642  49.444  42.075  1.00  0.00    -0.082 Cl
HETATM   33  C   UNL     1      29.284  51.967  41.422  1.00  0.00     0.026 A 
HETATM   34  C   UNL     1      29.381  53.062  40.563  1.00  0.00     0.002 A 
HETATM   35  C   UNL     1      29.010  52.936  39.225  1.00  0.00     0.002 A 
HETATM   36  C   UNL     1      28.544  51.713  38.738  1.00  0.00     0.032 A 
ENDBRANCH   7  30
TORSDOF 5
ENDMDL
MODEL 4
REMARK VINA RESULT:      -9.2      2.826      5.446
REMARK  5 active torsions:
REMARK  status: ('A' for Active; 'I' for Inactive)
REMARK    1  A    between atoms: C_6  and  S_7 
REMARK    2  A    between atoms: S_7  and  C_8 
REMARK    3  A    between atoms: C_8  and  C_9 
REMARK       I    between atoms: C_9  and  N_10 
REMARK    4  A    between atoms: N_10  and  C_11 
REMARK    5  A    between atoms: N_22  and  C_23 
ROOT
HETATM    1  C   UNL     1      20.090  44.893  45.151  1.00  0.00     0.001 A 
HETATM    2  C   UNL     1      19.418  46.006  45.654  1.00  0.00     0.019 A 
HETATM    3  C   UNL     1      20.088  46.895  46.502  1.00  0.00     0.061 A 
HETATM    4  C   UNL     1      21.419  46.685  46.851  1.00  0.00     0.075 A 
HETATM    5  N   UNL     1      22.120  47.557  47.689  1.00  0.00    -0.223 NA
HETATM    6  C   UNL     1      21.501  48.590  48.163  1.00  0.00     0.177 A 
HETATM    7  N   UNL     1      20.180  48.908  47.878  1.00  0.00    -0.255 N 
HETATM    8  C   UNL     1      19.406  48.075  47.066  1.00  0.00     0.267 A 
HETATM    9  O   UNL     1      18.209  48.229  46.830  1.00  0.00    -0.267 OA
HETATM   10  C   UNL     1      22.082  45.563  46.345  1.00  0.00     0.032 A 
HETATM   11  C   UNL     1      21.421  44.670  45.498  1.00  0.00     0.002 A 
ENDROOT
BRANCH   6  12
HETATM   12  S   UNL     1      22.468  49.669  49.160  1.00  0.00    -0.082 SA
BRANCH  12  13
HETATM   13  C   UNL     1      24.063  49.582  48.287  1.00  0.00     0.185 C 
BRANCH  13  14
HETATM   14  C   UNL     1      25.128  48.787  49.039  1.00  0.00     0.231 C 
HETATM   15  N   UNL     1      24.671  47.618  49.614  1.00  0.00    -0.326 N 
HETATM   16  H   UNL     1      23.694  47.397  49.433  1.00  0.00     0.169 HD
HETATM   17  O   UNL     1      26.266  49.238  49.151  1.00  0.00    -0.272 OA
BRANCH  15  18
HETATM   18  C   UNL     1      25.374  46.701  50.418  1.00  0.00     0.037 A 
HETATM   19  C   UNL     1      26.036  45.577  49.913  1.00  0.00     0.061 A 
HETATM   20  C   UNL     1      26.707  44.787  50.821  1.00  0.00     0.065 A 
HETATM   21  C   UNL     1      26.728  45.067  52.185  1.00  0.00     0.063 A 
HETATM   22  N   UNL     1      27.461  43.638  50.610  1.00  0.00    -0.306 N 
HETATM   23  N   UNL     1      27.488  44.089  52.813  1.00  0.00    -0.307 N 
HETATM   24  C   UNL     1      26.082  46.154  52.716  1.00  0.00     0.034 A 
HETATM   25  C   UNL     1      27.956  43.190  51.843  1.00  0.00     0.325 A 
HETATM   26  H   UNL     1      27.695  44.008  53.795  1.00  0.00     0.170 HD
HETATM   27  O   UNL     1      28.659  42.215  52.036  1.00  0.00    -0.247 OA
HETATM   28  C   UNL     1      25.403  46.980  51.811  1.00  0.00     0.032 A 
HETATM   29  H   UNL     1      27.641  43.183  49.730  1.00  0.00     0.170 HD
ENDBRANCH  15  18
ENDBRANCH  13  14
ENDBRANCH  12  13
ENDBRANCH   6  12
BRANCH   7  30
HETATM   30  C   UNL     1      19.537  50.072  48.396  1.00  0.00     0.066 A 
HETATM   31  C   UNL     1      18.857  50.045  49.627  1.00  0.00     0.061 A 
HETATM   32 CL   UNL     1      18.639  48.579  50.519  1.00  0.00    -0.082 Cl
HETATM   33  C   UNL     1      18.275  51.210  50.132  1.00  0.00     0.026 A 
HETATM   34  C   UNL     1      18.366  52.405  49.417  1.00  0.00     0.002 A 
HETATM   35  C   UNL     1      19.037  52.439  48.196  1.00  0.00     0.002 A 
HETATM   36  C   UNL     1      19.624  51.279  47.685  1.00  0.00     0.032 A 
ENDBRANCH   7  30
TORSDOF 5
ENDMDL
MODEL 5
REMARK VINA RESULT:      -9.1     11.430     14.771
REMARK  5 active torsions:
REMARK  status: ('A' for Active; 'I' for Inactive)
REMARK    1  A    between atoms: C_6  and  S_7 
REMARK    2  A    between atoms: S_7  and  C_8 
REMARK    3  A    between atoms: C_8  and  C_9 
REMARK       I    between atoms: C_9  and  N_10 
REMARK    4  A    between atoms: N_10  and  C_11 
REMARK    5  A    between atoms: N_22  and  C_23 
ROOT
HETATM    1  C   UNL     1      37.347  52.041  40.739  1.00  0.00     0.001 A 
HETATM    2  C   UNL     1      36.160  52.450  40.132  1.00  0.00     0.019 A 
HETATM    3  C   UNL     1      34.971  51.763  40.402  1.00  0.00     0.061 A 
HETATM    4  C   UNL     1      34.954  50.676  41.270  1.00  0.00     0.075 A 
HETATM    5  N   UNL     1      33.783  49.972  41.567  1.00  0.00    -0.223 NA
HETATM    6  C   UNL     1      32.679  50.344  41.004  1.00  0.00     0.177 A 
HETATM    7  N   UNL     1      32.570  51.418  40.131  1.00  0.00    -0.255 N 
HETATM    8  C   UNL     1      33.699  52.157  39.766  1.00  0.00     0.267 A 
HETATM    9  O   UNL     1      33.714  53.066  38.937  1.00  0.00    -0.267 OA
HETATM   10  C   UNL     1      36.150  50.270  41.870  1.00  0.00     0.032 A 
HETATM   11  C   UNL     1      37.342  50.950  41.606  1.00  0.00     0.002 A 
ENDROOT
BRANCH   6  12
HETATM   12  S   UNL     1      31.241  49.448  41.475  1.00  0.00    -0.082 SA
BRANCH  12  13
HETATM   13  C   UNL     1      31.167  48.218  40.136  1.00  0.00     0.185 C 
BRANCH  13  14
HETATM   14  C   UNL     1      29.771  48.046  39.541  1.00  0.00     0.231 C 
HETATM   15  N   UNL     1      28.778  48.745  40.198  1.00  0.00    -0.326 N 
HETATM   16  H   UNL     1      29.095  49.328  40.971  1.00  0.00     0.169 HD
HETATM   17  O   UNL     1      29.596  47.278  38.597  1.00  0.00    -0.272 OA
BRANCH  15  18
HETATM   18  C   UNL     1      27.394  48.752  39.945  1.00  0.00     0.037 A 
HETATM   19  C   UNL     1      26.751  49.729  39.177  1.00  0.00     0.061 A 
HETATM   20  C   UNL     1      25.394  49.584  38.992  1.00  0.00     0.065 A 
HETATM   21  C   UNL     1      24.670  48.531  39.545  1.00  0.00     0.063 A 
HETATM   22  N   UNL     1      24.508  50.376  38.268  1.00  0.00    -0.306 N 
HETATM   23  N   UNL     1      23.342  48.677  39.169  1.00  0.00    -0.307 N 
HETATM   24  C   UNL     1      25.265  47.562  40.312  1.00  0.00     0.034 A 
HETATM   25  C   UNL     1      23.224  49.822  38.367  1.00  0.00     0.325 A 
HETATM   26  H   UNL     1      22.566  48.080  39.406  1.00  0.00     0.170 HD
HETATM   27  O   UNL     1      22.205  50.248  37.855  1.00  0.00    -0.247 OA
HETATM   28  C   UNL     1      26.648  47.679  40.503  1.00  0.00     0.032 A 
HETATM   29  H   UNL     1      24.725  51.210  37.747  1.00  0.00     0.170 HD
ENDBRANCH  15  18
ENDBRANCH  13  14
ENDBRANCH  12  13
ENDBRANCH   6  12
BRANCH   7  30
HETATM   30  C   UNL     1      31.331  51.819  39.549  1.00  0.00     0.066 A 
HETATM   31  C   UNL     1      30.454  52.687  40.223  1.00  0.00     0.061 A 
HETATM   32 CL   UNL     1      30.751  53.209  41.845  1.00  0.00    -0.082 Cl
HETATM   33  C   UNL     1      29.267  53.100  39.612  1.00  0.00     0.026 A 
HETATM   34  C   UNL     1      28.949  52.653  38.329  1.00  0.00     0.002 A 
HETATM   35  C   UNL     1      29.813  51.792  37.654  1.00  0.00     0.002 A 
HETATM   36  C   UNL     1      31.002  51.376  38.258  1.00  0.00     0.032 A 
ENDBRANCH   7  30
TORSDOF 5
ENDMDL
MODEL 6
REMARK VINA RESULT:      -9.0     11.326     13.456
REMARK  5 active torsions:
REMARK  status: ('A' for Active; 'I' for Inactive)
REMARK    1  A    between atoms: C_6  and  S_7 
REMARK    2  A    between atoms: S_7  and  C_8 
REMARK    3  A    between atoms: C_8  and  C_9 
REMARK       I    between atoms: C_9  and  N_10 
REMARK    4  A    between atoms: N_10  and  C_11 
REMARK    5  A    between atoms: N_22  and  C_23 
ROOT
HETATM    1  C   UNL     1      24.487  48.804  38.009  1.00  0.00     0.001 A 
HETATM    2  C   UNL     1      25.596  49.643  37.914  1.00  0.00     0.019 A 
HETATM    3  C   UNL     1      26.607  49.568  38.878  1.00  0.00     0.061 A 
HETATM    4  C   UNL     1      26.523  48.665  39.933  1.00  0.00     0.075 A 
HETATM    5  N   UNL     1      27.519  48.559  40.909  1.00  0.00    -0.223 NA
HETATM    6  C   UNL     1      28.549  49.338  40.828  1.00  0.00     0.177 A 
HETATM    7  N   UNL     1      28.747  50.269  39.818  1.00  0.00    -0.255 N 
HETATM    8  C   UNL     1      27.787  50.451  38.818  1.00  0.00     0.267 A 
HETATM    9  O   UNL     1      27.836  51.307  37.936  1.00  0.00    -0.267 OA
HETATM   10  C   UNL     1      25.405  47.831  40.023  1.00  0.00     0.032 A 
HETATM   11  C   UNL     1      24.391  47.898  39.065  1.00  0.00     0.002 A 
ENDROOT
BRANCH   6  12
HETATM   12  S   UNL     1      29.784  49.101  42.058  1.00  0.00    -0.082 SA
BRANCH  12  13
HETATM   13  C   UNL     1      30.957  48.048  41.146  1.00  0.00     0.185 C 
BRANCH  13  14
HETATM   14  C   UNL     1      32.420  48.400  41.403  1.00  0.00     0.231 C 
HETATM   15  N   UNL     1      32.645  49.726  41.715  1.00  0.00    -0.326 N 
HETATM   16  H   UNL     1      31.809  50.304  41.783  1.00  0.00     0.169 HD
HETATM   17  O   UNL     1      33.292  47.545  41.259  1.00  0.00    -0.272 OA
BRANCH  15  18
HETATM   18  C   UNL     1      33.870  50.380  41.943  1.00  0.00     0.037 A 
HETATM   19  C   UNL     1      34.077  51.301  42.976  1.00  0.00     0.061 A 
HETATM   20  C   UNL     1      35.341  51.836  43.091  1.00  0.00     0.065 A 
HETATM   21  C   UNL     1      36.378  51.502  42.224  1.00  0.00     0.063 A 
HETATM   22  N   UNL     1      35.838  52.743  44.020  1.00  0.00    -0.306 N 
HETATM   23  N   UNL     1      37.509  52.207  42.614  1.00  0.00    -0.307 N 
HETATM   24  C   UNL     1      36.208  50.612  41.194  1.00  0.00     0.034 A 
HETATM   25  C   UNL     1      37.190  52.984  43.737  1.00  0.00     0.325 A 
HETATM   26  H   UNL     1      38.422  52.185  42.191  1.00  0.00     0.170 HD
HETATM   27  O   UNL     1      37.944  53.720  44.348  1.00  0.00    -0.247 OA
HETATM   28  C   UNL     1      34.935  50.043  41.064  1.00  0.00     0.032 A 
HETATM   29  H   UNL     1      35.336  53.169  44.782  1.00  0.00     0.170 HD
ENDBRANCH  15  18
ENDBRANCH  13  14
ENDBRANCH  12  13
ENDBRANCH   6  12
BRANCH   7  30
HETATM   30  C   UNL     1      29.909  51.093  39.744  1.00  0.00     0.066 A 
HETATM   31  C   UNL     1      30.070  52.209  40.585  1.00  0.00     0.061 A 
HETATM   32 CL   UNL     1      28.817  52.733  41.657  1.00  0.00    -0.082 Cl
HETATM   33  C   UNL     1      31.238  52.972  40.523  1.00  0.00     0.026 A 
HETATM   34  C   UNL     1      32.251  52.630  39.626  1.00  0.00     0.002 A 
HETATM   35  C   UNL     1      32.099  51.526  38.788  1.00  0.00     0.002 A 
HETATM   36  C   UNL     1      30.935  50.756  38.846  1.00  0.00     0.032 A 
ENDBRANCH   7  30
TORSDOF 5
ENDMDL
MODEL 7
REMARK VINA RESULT:      -8.9      2.431      4.975
REMARK  5 active torsions:
REMARK  status: ('A' for Active; 'I' for Inactive)
REMARK    1  A    between atoms: C_6  and  S_7 
REMARK    2  A    between atoms: S_7  and  C_8 
REMARK    3  A    between atoms: C_8  and  C_9 
REMARK       I    between atoms: C_9  and  N_10 
REMARK    4  A    between atoms: N_10  and  C_11 
REMARK    5  A    between atoms: N_22  and  C_23 
ROOT
HETATM    1  C   UNL     1      24.210  50.900  48.195  1.00  0.00     0.001 A 
HETATM    2  C   UNL     1      22.845  50.746  47.957  1.00  0.00     0.019 A 
HETATM    3  C   UNL     1      22.255  49.485  48.096  1.00  0.00     0.061 A 
HETATM    4  C   UNL     1      23.013  48.379  48.471  1.00  0.00     0.075 A 
HETATM    5  N   UNL     1      22.453  47.107  48.627  1.00  0.00    -0.223 NA
HETATM    6  C   UNL     1      21.188  46.956  48.403  1.00  0.00     0.177 A 
HETATM    7  N   UNL     1      20.331  47.984  48.035  1.00  0.00    -0.255 N 
HETATM    8  C   UNL     1      20.818  49.280  47.838  1.00  0.00     0.267 A 
HETATM    9  O   UNL     1      20.154  50.232  47.429  1.00  0.00    -0.267 OA
HETATM   10  C   UNL     1      24.381  48.543  48.703  1.00  0.00     0.032 A 
HETATM   11  C   UNL     1      24.979  49.798  48.567  1.00  0.00     0.002 A 
ENDROOT
BRANCH   6  12
HETATM   12  S   UNL     1      20.550  45.340  48.679  1.00  0.00    -0.082 SA
BRANCH  12  13
HETATM   13  C   UNL     1      22.071  44.353  48.511  1.00  0.00     0.185 C 
BRANCH  13  14
HETATM   14  C   UNL     1      22.827  44.170  49.825  1.00  0.00     0.231 C 
HETATM   15  N   UNL     1      23.966  44.939  49.944  1.00  0.00    -0.326 N 
HETATM   16  H   UNL     1      24.147  45.572  49.166  1.00  0.00     0.169 HD
HETATM   17  O   UNL     1      22.442  43.336  50.643  1.00  0.00    -0.272 OA
BRANCH  15  18
HETATM   18  C   UNL     1      24.908  44.959  50.989  1.00  0.00     0.037 A 
HETATM   19  C   UNL     1      25.663  43.846  51.374  1.00  0.00     0.061 A 
HETATM   20  C   UNL     1      26.567  44.028  52.397  1.00  0.00     0.065 A 
HETATM   21  C   UNL     1      26.732  45.250  53.042  1.00  0.00     0.063 A 
HETATM   22  N   UNL     1      27.456  43.122  52.966  1.00  0.00    -0.306 N 
HETATM   23  N   UNL     1      27.714  45.097  54.011  1.00  0.00    -0.307 N 
HETATM   24  C   UNL     1      26.002  46.360  52.699  1.00  0.00     0.034 A 
HETATM   25  C   UNL     1      28.181  43.774  53.975  1.00  0.00     0.325 A 
HETATM   26  H   UNL     1      28.065  45.794  54.648  1.00  0.00     0.170 HD
HETATM   27  O   UNL     1      29.047  43.290  54.679  1.00  0.00    -0.247 OA
HETATM   28  C   UNL     1      25.085  46.204  51.652  1.00  0.00     0.032 A 
HETATM   29  H   UNL     1      27.583  42.156  52.715  1.00  0.00     0.170 HD
ENDBRANCH  15  18
ENDBRANCH  13  14
ENDBRANCH  12  13
ENDBRANCH   6  12
BRANCH   7  30
HETATM   30  C   UNL     1      18.934  47.789  47.824  1.00  0.00     0.066 A 
HETATM   31  C   UNL     1      18.003  47.986  48.860  1.00  0.00     0.061 A 
HETATM   32 CL   UNL     1      18.499  48.337  50.479  1.00  0.00    -0.082 Cl
HETATM   33  C   UNL     1      16.637  47.831  48.613  1.00  0.00     0.026 A 
HETATM   34  C   UNL     1      16.190  47.483  47.338  1.00  0.00     0.002 A 
HETATM   35  C   UNL     1      17.107  47.286  46.307  1.00  0.00     0.002 A 
HETATM   36  C   UNL     1      18.474  47.440  46.544  1.00  0.00     0.032 A 
ENDBRANCH   7  30
TORSDOF 5
ENDMDL
MODEL 8
REMARK VINA RESULT:      -8.7     11.523     14.596
REMARK  5 active torsions:
REMARK  status: ('A' for Active; 'I' for Inactive)
REMARK    1  A    between atoms: C_6  and  S_7 
REMARK    2  A    between atoms: S_7  and  C_8 
REMARK    3  A    between atoms: C_8  and  C_9 
REMARK       I    between atoms: C_9  and  N_10 
REMARK    4  A    between atoms: N_10  and  C_11 
REMARK    5  A    between atoms: N_22  and  C_23 
ROOT
HETATM    1  C   UNL     1      37.624  51.540  40.132  1.00  0.00     0.001 A 
HETATM    2  C   UNL     1      36.381  51.917  39.624  1.00  0.00     0.019 A 
HETATM    3  C   UNL     1      35.224  51.671  40.372  1.00  0.00     0.061 A 
HETATM    4  C   UNL     1      35.294  51.056  41.618  1.00  0.00     0.075 A 
HETATM    5  N   UNL     1      34.159  50.802  42.393  1.00  0.00    -0.223 NA
HETATM    6  C   UNL     1      33.002  51.145  41.926  1.00  0.00     0.177 A 
HETATM    7  N   UNL     1      32.808  51.774  40.704  1.00  0.00    -0.255 N 
HETATM    8  C   UNL     1      33.891  52.041  39.860  1.00  0.00     0.267 A 
HETATM    9  O   UNL     1      33.807  52.513  38.728  1.00  0.00    -0.267 OA
HETATM   10  C   UNL     1      36.545  50.677  42.116  1.00  0.00     0.032 A 
HETATM   11  C   UNL     1      37.705  50.919  41.377  1.00  0.00     0.002 A 
ENDROOT
BRANCH   6  12
HETATM   12  S   UNL     1      31.631  50.848  42.987  1.00  0.00    -0.082 SA
BRANCH  12  13
HETATM   13  C   UNL     1      31.212  49.141  42.512  1.00  0.00     0.185 C 
BRANCH  13  14
HETATM   14  C   UNL     1      29.822  49.003  41.896  1.00  0.00     0.231 C 
HETATM   15  N   UNL     1      29.689  47.953  41.009  1.00  0.00    -0.326 N 
HETATM   16  H   UNL     1      30.515  47.367  40.902  1.00  0.00     0.169 HD
HETATM   17  O   UNL     1      28.952  49.832  42.153  1.00  0.00    -0.272 OA
BRANCH  15  18
HETATM   18  C   UNL     1      28.571  47.594  40.234  1.00  0.00     0.037 A 
HETATM   19  C   UNL     1      28.136  48.319  39.119  1.00  0.00     0.061 A 
HETATM   20  C   UNL     1      27.042  47.826  38.442  1.00  0.00     0.065 A 
HETATM   21  C   UNL     1      26.375  46.669  38.838  1.00  0.00     0.063 A 
HETATM   22  N   UNL     1      26.410  48.314  37.303  1.00  0.00    -0.306 N 
HETATM   23  N   UNL     1      25.331  46.449  37.949  1.00  0.00    -0.307 N 
HETATM   24  C   UNL     1      26.767  45.940  39.931  1.00  0.00     0.034 A 
HETATM   25  C   UNL     1      25.341  47.465  36.982  1.00  0.00     0.325 A 
HETATM   26  H   UNL     1      24.662  45.696  37.961  1.00  0.00     0.170 HD
HETATM   27  O   UNL     1      24.573  47.582  36.045  1.00  0.00    -0.247 OA
HETATM   28  C   UNL     1      27.886  46.414  40.629  1.00  0.00     0.032 A 
HETATM   29  H   UNL     1      26.658  49.134  36.775  1.00  0.00     0.170 HD
ENDBRANCH  15  18
ENDBRANCH  13  14
ENDBRANCH  12  13
ENDBRANCH   6  12
BRANCH   7  30
HETATM   30  C   UNL     1      31.520  52.165  40.231  1.00  0.00     0.066 A 
HETATM   31  C   UNL     1      30.777  51.340  39.368  1.00  0.00     0.061 A 
HETATM   32 CL   UNL     1      31.428  49.877  38.715  1.00  0.00    -0.082 Cl
HETATM   33  C   UNL     1      29.499  51.727  38.956  1.00  0.00     0.026 A 
HETATM   34  C   UNL     1      28.954  52.932  39.402  1.00  0.00     0.002 A 
HETATM   35  C   UNL     1      29.685  53.754  40.258  1.00  0.00     0.002 A 
HETATM   36  C   UNL     1      30.963  53.375  40.675  1.00  0.00     0.032 A 
ENDBRANCH   7  30
TORSDOF 5
ENDMDL
MODEL 9
REMARK VINA RESULT:      -8.7      2.769      8.032
REMARK  5 active torsions:
REMARK  status: ('A' for Active; 'I' for Inactive)
REMARK    1  A    between atoms: C_6  and  S_7 
REMARK    2  A    between atoms: S_7  and  C_8 
REMARK    3  A    between atoms: C_8  and  C_9 
REMARK       I    between atoms: C_9  and  N_10 
REMARK    4  A    between atoms: N_10  and  C_11 
REMARK    5  A    between atoms: N_22  and  C_23 
ROOT
HETATM    1  C   UNL     1      26.979  49.626  48.768  1.00  0.00     0.001 A 
HETATM    2  C   UNL     1      27.385  48.319  49.035  1.00  0.00     0.019 A 
HETATM    3  C   UNL     1      26.428  47.348  49.353  1.00  0.00     0.061 A 
HETATM    4  C   UNL     1      25.075  47.668  49.407  1.00  0.00     0.075 A 
HETATM    5  N   UNL     1      24.093  46.721  49.714  1.00  0.00    -0.223 NA
HETATM    6  C   UNL     1      24.463  45.507  49.967  1.00  0.00     0.177 A 
HETATM    7  N   UNL     1      25.779  45.068  49.935  1.00  0.00    -0.255 N 
HETATM    8  C   UNL     1      26.821  45.959  49.657  1.00  0.00     0.267 A 
HETATM    9  O   UNL     1      28.018  45.681  49.691  1.00  0.00    -0.267 OA
HETATM   10  C   UNL     1      24.679  48.982  49.142  1.00  0.00     0.032 A 
HETATM   11  C   UNL     1      25.627  49.958  48.823  1.00  0.00     0.002 A 
ENDROOT
BRANCH   6  12
HETATM   12  S   UNL     1      23.165  44.364  50.285  1.00  0.00    -0.082 SA
BRANCH  12  13
HETATM   13  C   UNL     1      22.402  44.265  48.635  1.00  0.00     0.185 C 
BRANCH  13  14
HETATM   14  C   UNL     1      21.142  45.115  48.494  1.00  0.00     0.231 C 
HETATM   15  N   UNL     1      21.365  46.477  48.497  1.00  0.00    -0.326 N 
HETATM   16  H   UNL     1      22.343  46.757  48.545  1.00  0.00     0.169 HD
HETATM   17  O   UNL     1      20.038  44.575  48.457  1.00  0.00    -0.272 OA
BRANCH  15  18
HETATM   18  C   UNL     1      20.424  47.522  48.447  1.00  0.00     0.037 A 
HETATM   19  C   UNL     1      19.989  48.227  49.574  1.00  0.00     0.061 A 
HETATM   20  C   UNL     1      19.084  49.245  49.363  1.00  0.00     0.065 A 
HETATM   21  C   UNL     1      18.601  49.567  48.098  1.00  0.00     0.063 A 
HETATM   22  N   UNL     1      18.503  50.118  50.276  1.00  0.00    -0.306 N 
HETATM   23  N   UNL     1      17.719  50.631  48.232  1.00  0.00    -0.307 N 
HETATM   24  C   UNL     1      18.997  48.891  46.972  1.00  0.00     0.034 A 
HETATM   25  C   UNL     1      17.649  50.991  49.586  1.00  0.00     0.325 A 
HETATM   26  H   UNL     1      17.203  51.097  47.504  1.00  0.00     0.170 HD
HETATM   27  O   UNL     1      16.981  51.888  50.065  1.00  0.00    -0.247 OA
HETATM   28  C   UNL     1      19.927  47.859  47.159  1.00  0.00     0.032 A 
HETATM   29  H   UNL     1      18.654  50.145  51.271  1.00  0.00     0.170 HD
ENDBRANCH  15  18
ENDBRANCH  13  14
ENDBRANCH  12  13
ENDBRANCH   6  12
BRANCH   7  30
HETATM   30  C   UNL     1      26.150  43.715  50.191  1.00  0.00     0.066 A 
HETATM   31  C   UNL     1      26.529  43.292  51.478  1.00  0.00     0.061 A 
HETATM   32 CL   UNL     1      26.705  44.404  52.791  1.00  0.00    -0.082 Cl
HETATM   33  C   UNL     1      26.842  41.950  51.711  1.00  0.00     0.026 A 
HETATM   34  C   UNL     1      26.780  41.025  50.668  1.00  0.00     0.002 A 
HETATM   35  C   UNL     1      26.405  41.437  49.390  1.00  0.00     0.002 A 
HETATM   36  C   UNL     1      26.088  42.776  49.149  1.00  0.00     0.032 A 
ENDBRANCH   7  30
TORSDOF 5
ENDMDL
MODEL 10
REMARK VINA RESULT:      -8.6      2.836      5.700
REMARK  5 active torsions:
REMARK  status: ('A' for Active; 'I' for Inactive)
REMARK    1  A    between atoms: C_6  and  S_7 
REMARK    2  A    between atoms: S_7  and  C_8 
REMARK    3  A    between atoms: C_8  and  C_9 
REMARK       I    between atoms: C_9  and  N_10 
REMARK    4  A    between atoms: N_10  and  C_11 
REMARK    5  A    between atoms: N_22  and  C_23 
ROOT
HETATM    1  C   UNL     1      24.004  50.497  48.781  1.00  0.00     0.001 A 
HETATM    2  C   UNL     1      22.785  51.164  48.666  1.00  0.00     0.019 A 
HETATM    3  C   UNL     1      21.589  50.445  48.768  1.00  0.00     0.061 A 
HETATM    4  C   UNL     1      21.598  49.070  48.984  1.00  0.00     0.075 A 
HETATM    5  N   UNL     1      20.422  48.323  49.097  1.00  0.00    -0.223 NA
HETATM    6  C   UNL     1      19.287  48.935  48.987  1.00  0.00     0.177 A 
HETATM    7  N   UNL     1      19.153  50.301  48.781  1.00  0.00    -0.255 N 
HETATM    8  C   UNL     1      20.281  51.114  48.635  1.00  0.00     0.267 A 
HETATM    9  O   UNL     1      20.260  52.313  48.365  1.00  0.00    -0.267 OA
HETATM   10  C   UNL     1      22.825  48.410  49.093  1.00  0.00     0.032 A 
HETATM   11  C   UNL     1      24.024  49.120  48.994  1.00  0.00     0.002 A 
ENDROOT
BRANCH   6  12
HETATM   12  S   UNL     1      17.856  47.936  49.202  1.00  0.00    -0.082 SA
BRANCH  12  13
HETATM   13  C   UNL     1      17.965  46.882  47.721  1.00  0.00     0.185 C 
BRANCH  13  14
HETATM   14  C   UNL     1      18.778  45.608  47.938  1.00  0.00     0.231 C 
HETATM   15  N   UNL     1      20.137  45.754  47.741  1.00  0.00    -0.326 N 
HETATM   16  H   UNL     1      20.445  46.699  47.520  1.00  0.00     0.169 HD
HETATM   17  O   UNL     1      18.206  44.551  48.197  1.00  0.00    -0.272 OA
BRANCH  15  18
HETATM   18  C   UNL     1      21.143  44.773  47.799  1.00  0.00     0.037 A 
HETATM   19  C   UNL     1      21.872  44.477  48.957  1.00  0.00     0.061 A 
HETATM   20  C   UNL     1      22.806  43.469  48.866  1.00  0.00     0.065 A 
HETATM   21  C   UNL     1      23.042  42.770  47.684  1.00  0.00     0.063 A 
HETATM   22  N   UNL     1      23.648  42.949  49.843  1.00  0.00    -0.306 N 
HETATM   23  N   UNL     1      24.031  41.828  47.932  1.00  0.00    -0.307 N 
HETATM   24  C   UNL     1      22.355  43.040  46.529  1.00  0.00     0.034 A 
HETATM   25  C   UNL     1      24.418  41.923  49.277  1.00  0.00     0.325 A 
HETATM   26  H   UNL     1      24.426  41.166  47.283  1.00  0.00     0.170 HD
HETATM   27  O   UNL     1      25.256  41.244  49.841  1.00  0.00    -0.247 OA
HETATM   28  C   UNL     1      21.389  44.053  46.599  1.00  0.00     0.032 A 
HETATM   29  H   UNL     1      23.713  43.238  50.805  1.00  0.00     0.170 HD
ENDBRANCH  15  18
ENDBRANCH  13  14
ENDBRANCH  12  13
ENDBRANCH   6  12
BRANCH   7  30
HETATM   30  C   UNL     1      17.885  50.949  48.692  1.00  0.00     0.066 A 
HETATM   31  C   UNL     1      17.155  50.964  47.490  1.00  0.00     0.061 A 
HETATM   32 CL   UNL     1      17.802  50.328  46.018  1.00  0.00    -0.082 Cl
HETATM   33  C   UNL     1      15.895  51.567  47.443  1.00  0.00     0.026 A 
HETATM   34  C   UNL     1      15.356  52.154  48.589  1.00  0.00     0.002 A 
HETATM   35  C   UNL     1      16.074  52.143  49.783  1.00  0.00     0.002 A 
HETATM   36  C   UNL     1      17.333  51.541  49.840  1.00  0.00     0.032 A 
ENDBRANCH   7  30
TORSDOF 5
ENDMDL
