MODEL 1
REMARK VINA RESULT:     -10.6      0.000      0.000
REMARK  8 active torsions:
REMARK  status: ('A' for Active; 'I' for Inactive)
REMARK    1  A    between atoms: C_4  and  C_5 
REMARK    2  A    between atoms: C_5  and  N_6 
REMARK    3  A    between atoms: C_5  and  C_36 
REMARK    4  A    between atoms: N_10  and  C_11 
REMARK    5  A    between atoms: C_13  and  C_14 
REMARK       I    between atoms: C_14  and  N_15 
REMARK    6  A    between atoms: N_15  and  C_16 
REMARK    7  A    between atoms: C_19  and  O_20 
REMARK    8  A    between atoms: O_20  and  C_21 
ROOT
HETATM    1  C   UNL     1      20.810  48.875  49.233  1.00  0.00     0.181 C 
HETATM    2  N   UNL     1      21.982  49.182  48.631  1.00  0.00    -0.351 N 
HETATM    3  C   UNL     1      22.833  48.085  48.195  1.00  0.00     0.185 C 
HETATM    4  C   UNL     1      21.969  47.027  47.548  1.00  0.00     0.140 C 
HETATM    5  C   UNL     1      20.782  46.727  48.429  1.00  0.00     0.248 C 
HETATM    6  O   UNL     1      20.314  45.591  48.449  1.00  0.00    -0.271 OA
HETATM    7  N   UNL     1      20.199  47.745  49.146  1.00  0.00    -0.185 NA
HETATM    8  H   UNL     1      22.479  49.963  49.050  1.00  0.00     0.163 HD
ENDROOT
BRANCH   1   9
HETATM    9  N   UNL     1      20.344  49.909  50.014  1.00  0.00    -0.250 NA
HETATM   10  C   UNL     1      18.992  49.694  50.590  1.00  0.00     0.126 C 
HETATM   11  C   UNL     1      17.898  49.898  49.518  1.00  0.00     0.251 C 
HETATM   12  N   UNL     1      18.000  51.318  48.951  1.00  0.00    -0.057 N 
HETATM   13  H   UNL     1      17.903  51.956  49.745  1.00  0.00     0.281 HD
HETATM   14  C   UNL     1      19.393  51.587  48.391  1.00  0.00     0.251 C 
HETATM   15  C   UNL     1      20.476  51.277  49.450  1.00  0.00     0.126 C 
BRANCH  12  16
HETATM   16  C   UNL     1      16.827  51.677  48.036  1.00  0.00     0.254 C 
BRANCH  16  17
HETATM   17  C   UNL     1      15.697  52.484  48.671  1.00  0.00    -0.023 A 
HETATM   18  C   UNL     1      14.960  53.376  47.864  1.00  0.00     0.009 A 
HETATM   19  C   UNL     1      13.943  54.169  48.402  1.00  0.00     0.001 A 
HETATM   20  C   UNL     1      13.637  54.088  49.755  1.00  0.00     0.000 A 
HETATM   21  C   UNL     1      14.339  53.207  50.569  1.00  0.00     0.001 A 
HETATM   22  C   UNL     1      15.354  52.409  50.032  1.00  0.00     0.009 A 
ENDBRANCH  16  17
BRANCH  16  23
HETATM   23  C   UNL     1      16.448  50.510  47.124  1.00  0.00    -0.023 A 
HETATM   24  C   UNL     1      15.351  49.699  47.488  1.00  0.00     0.009 A 
HETATM   25  C   UNL     1      14.925  48.646  46.676  1.00  0.00     0.001 A 
HETATM   26  C   UNL     1      15.587  48.381  45.482  1.00  0.00     0.000 A 
HETATM   27  C   UNL     1      16.673  49.165  45.104  1.00  0.00     0.001 A 
HETATM   28  C   UNL     1      17.100  50.221  45.915  1.00  0.00     0.009 A 
ENDBRANCH  16  23
ENDBRANCH  12  16
ENDBRANCH   1   9
BRANCH   3  29
HETATM   29  C   UNL     1      23.668  47.532  49.379  1.00  0.00     0.245 C 
HETATM   30  N   UNL     1      23.960  46.181  49.252  1.00  0.00    -0.325 N 
HETATM   31  H   UNL     1      23.521  45.670  48.495  1.00  0.00     0.169 HD
HETATM   32  O   UNL     1      24.041  48.271  50.290  1.00  0.00    -0.271 OA
BRANCH  30  33
HETATM   33  C   UNL     1      24.842  45.417  50.048  1.00  0.00     0.035 A 
HETATM   34  C   UNL     1      26.229  45.391  49.874  1.00  0.00     0.032 A 
HETATM   35  C   UNL     1      27.028  44.566  50.672  1.00  0.00     0.039 A 
HETATM   36  C   UNL     1      26.450  43.777  51.664  1.00  0.00     0.076 A 
HETATM   37  C   UNL     1      25.068  43.782  51.840  1.00  0.00     0.039 A 
HETATM   38  C   UNL     1      24.269  44.604  51.038  1.00  0.00     0.032 A 
BRANCH  36  39
HETATM   39  O   UNL     1      27.285  42.945  52.371  1.00  0.00    -0.311 OA
BRANCH  39  40
HETATM   40  C   UNL     1      28.031  43.493  53.389  1.00  0.00     0.076 A 
HETATM   41  C   UNL     1      29.290  42.930  53.608  1.00  0.00     0.037 A 
HETATM   42  C   UNL     1      30.132  43.459  54.587  1.00  0.00     0.003 A 
HETATM   43  C   UNL     1      29.721  44.559  55.338  1.00  0.00     0.000 A 
HETATM   44  C   UNL     1      28.472  45.135  55.107  1.00  0.00     0.003 A 
HETATM   45  C   UNL     1      27.628  44.610  54.127  1.00  0.00     0.037 A 
ENDBRANCH  39  40
ENDBRANCH  36  39
ENDBRANCH  30  33
ENDBRANCH   3  29
TORSDOF 8
ENDMDL
MODEL 2
REMARK VINA RESULT:     -10.3      0.734      3.030
REMARK  8 active torsions:
REMARK  status: ('A' for Active; 'I' for Inactive)
REMARK    1  A    between atoms: C_4  and  C_5 
REMARK    2  A    between atoms: C_5  and  N_6 
REMARK    3  A    between atoms: C_5  and  C_36 
REMARK    4  A    between atoms: N_10  and  C_11 
REMARK    5  A    between atoms: C_13  and  C_14 
REMARK       I    between atoms: C_14  and  N_15 
REMARK    6  A    between atoms: N_15  and  C_16 
REMARK    7  A    between atoms: C_19  and  O_20 
REMARK    8  A    between atoms: O_20  and  C_21 
ROOT
HETATM    1  C   UNL     1      20.776  48.800  49.210  1.00  0.00     0.181 C 
HETATM    2  N   UNL     1      21.924  49.087  48.554  1.00  0.00    -0.351 N 
HETATM    3  C   UNL     1      22.765  47.976  48.133  1.00  0.00     0.185 C 
HETATM    4  C   UNL     1      21.885  46.888  47.563  1.00  0.00     0.140 C 
HETATM    5  C   UNL     1      20.732  46.620  48.499  1.00  0.00     0.248 C 
HETATM    6  O   UNL     1      20.271  45.484  48.584  1.00  0.00    -0.271 OA
HETATM    7  N   UNL     1      20.169  47.665  49.193  1.00  0.00    -0.185 NA
HETATM    8  H   UNL     1      22.430  49.887  48.921  1.00  0.00     0.163 HD
ENDROOT
BRANCH   1   9
HETATM    9  N   UNL     1      20.332  49.865  49.963  1.00  0.00    -0.250 NA
HETATM   10  C   UNL     1      19.034  49.642  50.651  1.00  0.00     0.126 C 
HETATM   11  C   UNL     1      17.858  49.747  49.655  1.00  0.00     0.251 C 
HETATM   12  N   UNL     1      17.867  51.133  49.001  1.00  0.00    -0.057 N 
HETATM   13  H   UNL     1      17.807  51.814  49.763  1.00  0.00     0.281 HD
HETATM   14  C   UNL     1      19.204  51.411  48.323  1.00  0.00     0.251 C 
HETATM   15  C   UNL     1      20.373  51.200  49.313  1.00  0.00     0.126 C 
BRANCH  12  16
HETATM   16  C   UNL     1      16.617  51.399  48.159  1.00  0.00     0.254 C 
BRANCH  16  17
HETATM   17  C   UNL     1      16.789  51.297  46.645  1.00  0.00    -0.023 A 
HETATM   18  C   UNL     1      16.573  50.052  46.018  1.00  0.00     0.009 A 
HETATM   19  C   UNL     1      16.755  49.893  44.641  1.00  0.00     0.001 A 
HETATM   20  C   UNL     1      17.154  50.971  43.861  1.00  0.00     0.000 A 
HETATM   21  C   UNL     1      17.359  52.212  44.453  1.00  0.00     0.001 A 
HETATM   22  C   UNL     1      17.173  52.375  45.828  1.00  0.00     0.009 A 
ENDBRANCH  16  17
BRANCH  16  23
HETATM   23  C   UNL     1      15.808  52.573  48.711  1.00  0.00    -0.023 A 
HETATM   24  C   UNL     1      16.108  53.048  50.006  1.00  0.00     0.009 A 
HETATM   25  C   UNL     1      15.437  54.144  50.550  1.00  0.00     0.001 A 
HETATM   26  C   UNL     1      14.453  54.791  49.810  1.00  0.00     0.000 A 
HETATM   27  C   UNL     1      14.138  54.340  48.533  1.00  0.00     0.001 A 
HETATM   28  C   UNL     1      14.810  53.242  47.985  1.00  0.00     0.009 A 
ENDBRANCH  16  23
ENDBRANCH  12  16
ENDBRANCH   1   9
BRANCH   3  29
HETATM   29  C   UNL     1      23.645  47.477  49.308  1.00  0.00     0.245 C 
HETATM   30  N   UNL     1      23.902  46.115  49.253  1.00  0.00    -0.325 N 
HETATM   31  H   UNL     1      23.416  45.569  48.551  1.00  0.00     0.169 HD
HETATM   32  O   UNL     1      24.077  48.262  50.153  1.00  0.00    -0.271 OA
BRANCH  30  33
HETATM   33  C   UNL     1      24.807  45.380  50.052  1.00  0.00     0.035 A 
HETATM   34  C   UNL     1      26.193  45.393  49.876  1.00  0.00     0.032 A 
HETATM   35  C   UNL     1      27.016  44.595  50.679  1.00  0.00     0.039 A 
HETATM   36  C   UNL     1      26.461  43.796  51.675  1.00  0.00     0.076 A 
HETATM   37  C   UNL     1      25.081  43.763  51.852  1.00  0.00     0.039 A 
HETATM   38  C   UNL     1      24.258  44.558  51.047  1.00  0.00     0.032 A 
BRANCH  36  39
HETATM   39  O   UNL     1      27.320  42.992  52.386  1.00  0.00    -0.311 OA
BRANCH  39  40
HETATM   40  C   UNL     1      28.034  43.562  53.416  1.00  0.00     0.076 A 
HETATM   41  C   UNL     1      29.264  42.972  53.719  1.00  0.00     0.037 A 
HETATM   42  C   UNL     1      30.073  43.519  54.716  1.00  0.00     0.003 A 
HETATM   43  C   UNL     1      29.660  44.660  55.401  1.00  0.00     0.000 A 
HETATM   44  C   UNL     1      28.441  45.261  55.085  1.00  0.00     0.003 A 
HETATM   45  C   UNL     1      27.630  44.719  54.087  1.00  0.00     0.037 A 
ENDBRANCH  39  40
ENDBRANCH  36  39
ENDBRANCH  30  33
ENDBRANCH   3  29
TORSDOF 8
ENDMDL
MODEL 3
REMARK VINA RESULT:      -9.9      4.035     10.583
REMARK  8 active torsions:
REMARK  status: ('A' for Active; 'I' for Inactive)
REMARK    1  A    between atoms: C_4  and  C_5 
REMARK    2  A    between atoms: C_5  and  N_6 
REMARK    3  A    between atoms: C_5  and  C_36 
REMARK    4  A    between atoms: N_10  and  C_11 
REMARK    5  A    between atoms: C_13  and  C_14 
REMARK       I    between atoms: C_14  and  N_15 
REMARK    6  A    between atoms: N_15  and  C_16 
REMARK    7  A    between atoms: C_19  and  O_20 
REMARK    8  A    between atoms: O_20  and  C_21 
ROOT
HETATM    1  C   UNL     1      19.353  44.672  46.919  1.00  0.00     0.181 C 
HETATM    2  N   UNL     1      18.010  44.634  47.081  1.00  0.00    -0.351 N 
HETATM    3  C   UNL     1      17.176  45.017  45.951  1.00  0.00     0.185 C 
HETATM    4  C   UNL     1      17.747  44.401  44.694  1.00  0.00     0.140 C 
HETATM    5  C   UNL     1      19.232  44.660  44.629  1.00  0.00     0.248 C 
HETATM    6  O   UNL     1      19.774  44.806  43.536  1.00  0.00    -0.271 OA
HETATM    7  N   UNL     1      19.969  44.661  45.789  1.00  0.00    -0.185 NA
HETATM    8  H   UNL     1      17.685  44.973  47.981  1.00  0.00     0.163 HD
ENDROOT
BRANCH   1   9
HETATM    9  N   UNL     1      20.015  44.775  48.122  1.00  0.00    -0.250 NA
HETATM   10  C   UNL     1      19.579  45.907  48.978  1.00  0.00     0.126 C 
HETATM   11  C   UNL     1      20.149  47.244  48.455  1.00  0.00     0.251 C 
HETATM   12  N   UNL     1      21.679  47.171  48.432  1.00  0.00    -0.057 N 
HETATM   13  H   UNL     1      21.975  46.959  49.389  1.00  0.00     0.281 HD
HETATM   14  C   UNL     1      22.160  45.989  47.597  1.00  0.00     0.251 C 
HETATM   15  C   UNL     1      21.497  44.677  48.074  1.00  0.00     0.126 C 
BRANCH  12  16
HETATM   16  C   UNL     1      22.334  48.520  48.127  1.00  0.00     0.254 C 
BRANCH  16  17
HETATM   17  C   UNL     1      23.795  48.673  48.546  1.00  0.00    -0.023 A 
HETATM   18  C   UNL     1      24.557  49.721  47.990  1.00  0.00     0.009 A 
HETATM   19  C   UNL     1      25.908  49.882  48.306  1.00  0.00     0.001 A 
HETATM   20  C   UNL     1      26.527  49.004  49.187  1.00  0.00     0.000 A 
HETATM   21  C   UNL     1      25.795  47.971  49.760  1.00  0.00     0.001 A 
HETATM   22  C   UNL     1      24.442  47.811  49.448  1.00  0.00     0.009 A 
ENDBRANCH  16  17
BRANCH  16  23
HETATM   23  C   UNL     1      21.382  49.683  48.411  1.00  0.00    -0.023 A 
HETATM   24  C   UNL     1      21.238  50.125  49.744  1.00  0.00     0.009 A 
HETATM   25  C   UNL     1      20.420  51.210  50.063  1.00  0.00     0.001 A 
HETATM   26  C   UNL     1      19.729  51.878  49.057  1.00  0.00     0.000 A 
HETATM   27  C   UNL     1      19.853  51.457  47.737  1.00  0.00     0.001 A 
HETATM   28  C   UNL     1      20.673  50.371  47.414  1.00  0.00     0.009 A 
ENDBRANCH  16  23
ENDBRANCH  12  16
ENDBRANCH   1   9
BRANCH   3  29
HETATM   29  C   UNL     1      17.050  46.559  45.857  1.00  0.00     0.245 C 
HETATM   30  N   UNL     1      16.406  47.118  46.951  1.00  0.00    -0.325 N 
HETATM   31  H   UNL     1      15.986  46.490  47.626  1.00  0.00     0.169 HD
HETATM   32  O   UNL     1      17.528  47.176  44.904  1.00  0.00    -0.271 OA
BRANCH  30  33
HETATM   33  C   UNL     1      16.289  48.491  47.267  1.00  0.00     0.035 A 
HETATM   34  C   UNL     1      15.635  49.426  46.461  1.00  0.00     0.032 A 
HETATM   35  C   UNL     1      15.608  50.777  46.822  1.00  0.00     0.039 A 
HETATM   36  C   UNL     1      16.216  51.199  48.002  1.00  0.00     0.076 A 
HETATM   37  C   UNL     1      16.884  50.281  48.808  1.00  0.00     0.039 A 
HETATM   38  C   UNL     1      16.913  48.930  48.445  1.00  0.00     0.032 A 
BRANCH  36  39
HETATM   39  O   UNL     1      16.206  52.548  48.266  1.00  0.00    -0.311 OA
BRANCH  39  40
HETATM   40  C   UNL     1      15.047  53.099  48.766  1.00  0.00     0.076 A 
HETATM   41  C   UNL     1      14.756  52.820  50.103  1.00  0.00     0.037 A 
HETATM   42  C   UNL     1      13.627  53.380  50.704  1.00  0.00     0.003 A 
HETATM   43  C   UNL     1      12.798  54.228  49.972  1.00  0.00     0.000 A 
HETATM   44  C   UNL     1      13.099  54.523  48.642  1.00  0.00     0.003 A 
HETATM   45  C   UNL     1      14.228  53.967  48.039  1.00  0.00     0.037 A 
ENDBRANCH  39  40
ENDBRANCH  36  39
ENDBRANCH  30  33
ENDBRANCH   3  29
TORSDOF 8
ENDMDL
MODEL 4
REMARK VINA RESULT:      -9.7      2.385      4.720
REMARK  8 active torsions:
REMARK  status: ('A' for Active; 'I' for Inactive)
REMARK    1  A    between atoms: C_4  and  C_5 
REMARK    2  A    between atoms: C_5  and  N_6 
REMARK    3  A    between atoms: C_5  and  C_36 
REMARK    4  A    between atoms: N_10  and  C_11 
REMARK    5  A    between atoms: C_13  and  C_14 
REMARK       I    between atoms: C_14  and  N_15 
REMARK    6  A    between atoms: N_15  and  C_16 
REMARK    7  A    between atoms: C_19  and  O_20 
REMARK    8  A    between atoms: O_20  and  C_21 
ROOT
HETATM    1  C   UNL     1      20.874  44.285  46.563  1.00  0.00     0.181 C 
HETATM    2  N   UNL     1      21.993  45.040  46.472  1.00  0.00    -0.351 N 
HETATM    3  C   UNL     1      23.227  44.500  47.024  1.00  0.00     0.185 C 
HETATM    4  C   UNL     1      23.333  43.041  46.641  1.00  0.00     0.140 C 
HETATM    5  C   UNL     1      22.030  42.340  46.936  1.00  0.00     0.248 C 
HETATM    6  O   UNL     1      22.041  41.159  47.275  1.00  0.00    -0.271 OA
HETATM    7  N   UNL     1      20.845  43.012  46.754  1.00  0.00    -0.185 NA
HETATM    8  H   UNL     1      21.848  46.030  46.647  1.00  0.00     0.163 HD
ENDROOT
BRANCH   1   9
HETATM    9  N   UNL     1      19.728  45.045  46.473  1.00  0.00    -0.250 NA
HETATM   10  C   UNL     1      19.907  46.364  45.814  1.00  0.00     0.126 C 
HETATM   11  C   UNL     1      20.598  47.366  46.766  1.00  0.00     0.251 C 
HETATM   12  N   UNL     1      19.753  47.529  48.034  1.00  0.00    -0.057 N 
HETATM   13  H   UNL     1      18.827  47.844  47.728  1.00  0.00     0.281 HD
HETATM   14  C   UNL     1      19.512  46.184  48.710  1.00  0.00     0.251 C 
HETATM   15  C   UNL     1      18.915  45.168  47.710  1.00  0.00     0.126 C 
BRANCH  12  16
HETATM   16  C   UNL     1      20.252  48.658  48.939  1.00  0.00     0.254 C 
BRANCH  16  17
HETATM   17  C   UNL     1      19.277  49.807  49.187  1.00  0.00    -0.023 A 
HETATM   18  C   UNL     1      17.959  49.699  48.697  1.00  0.00     0.009 A 
HETATM   19  C   UNL     1      17.037  50.737  48.860  1.00  0.00     0.001 A 
HETATM   20  C   UNL     1      17.410  51.903  49.517  1.00  0.00     0.000 A 
HETATM   21  C   UNL     1      18.699  52.029  50.021  1.00  0.00     0.001 A 
HETATM   22  C   UNL     1      19.620  50.989  49.864  1.00  0.00     0.009 A 
ENDBRANCH  16  17
BRANCH  16  23
HETATM   23  C   UNL     1      21.712  49.008  48.647  1.00  0.00    -0.023 A 
HETATM   24  C   UNL     1      21.986  50.148  47.862  1.00  0.00     0.009 A 
HETATM   25  C   UNL     1      23.298  50.547  47.597  1.00  0.00     0.001 A 
HETATM   26  C   UNL     1      24.362  49.816  48.113  1.00  0.00     0.000 A 
HETATM   27  C   UNL     1      24.115  48.687  48.887  1.00  0.00     0.001 A 
HETATM   28  C   UNL     1      22.802  48.286  49.154  1.00  0.00     0.009 A 
ENDBRANCH  16  23
ENDBRANCH  12  16
ENDBRANCH   1   9
BRANCH   3  29
HETATM   29  C   UNL     1      23.287  44.721  48.557  1.00  0.00     0.245 C 
HETATM   30  N   UNL     1      24.559  44.544  49.081  1.00  0.00    -0.325 N 
HETATM   31  H   UNL     1      25.280  44.184  48.465  1.00  0.00     0.169 HD
HETATM   32  O   UNL     1      22.284  45.057  49.188  1.00  0.00    -0.271 OA
BRANCH  30  33
HETATM   33  C   UNL     1      24.996  44.843  50.391  1.00  0.00     0.035 A 
HETATM   34  C   UNL     1      24.670  44.081  51.516  1.00  0.00     0.032 A 
HETATM   35  C   UNL     1      25.102  44.475  52.787  1.00  0.00     0.039 A 
HETATM   36  C   UNL     1      25.879  45.620  52.940  1.00  0.00     0.076 A 
HETATM   37  C   UNL     1      26.200  46.396  51.830  1.00  0.00     0.039 A 
HETATM   38  C   UNL     1      25.765  46.004  50.559  1.00  0.00     0.032 A 
BRANCH  36  39
HETATM   39  O   UNL     1      26.217  45.983  54.222  1.00  0.00    -0.311 OA
BRANCH  39  40
HETATM   40  C   UNL     1      27.444  45.585  54.703  1.00  0.00     0.076 A 
HETATM   41  C   UNL     1      27.871  44.307  54.333  1.00  0.00     0.037 A 
HETATM   42  C   UNL     1      29.124  43.845  54.735  1.00  0.00     0.003 A 
HETATM   43  C   UNL     1      29.956  44.664  55.497  1.00  0.00     0.000 A 
HETATM   44  C   UNL     1      29.540  45.948  55.850  1.00  0.00     0.003 A 
HETATM   45  C   UNL     1      28.288  46.414  55.447  1.00  0.00     0.037 A 
ENDBRANCH  39  40
ENDBRANCH  36  39
ENDBRANCH  30  33
ENDBRANCH   3  29
TORSDOF 8
ENDMDL
MODEL 5
REMARK VINA RESULT:      -9.6      2.476     12.515
REMARK  8 active torsions:
REMARK  status: ('A' for Active; 'I' for Inactive)
REMARK    1  A    between atoms: C_4  and  C_5 
REMARK    2  A    between atoms: C_5  and  N_6 
REMARK    3  A    between atoms: C_5  and  C_36 
REMARK    4  A    between atoms: N_10  and  C_11 
REMARK    5  A    between atoms: C_13  and  C_14 
REMARK       I    between atoms: C_14  and  N_15 
REMARK    6  A    between atoms: N_15  and  C_16 
REMARK    7  A    between atoms: C_19  and  O_20 
REMARK    8  A    between atoms: O_20  and  C_21 
ROOT
HETATM    1  C   UNL     1      23.406  45.105  49.127  1.00  0.00     0.181 C 
HETATM    2  N   UNL     1      22.207  44.684  49.592  1.00  0.00    -0.351 N 
HETATM    3  C   UNL     1      21.148  44.438  48.624  1.00  0.00     0.185 C 
HETATM    4  C   UNL     1      21.735  43.709  47.437  1.00  0.00     0.140 C 
HETATM    5  C   UNL     1      22.996  44.402  46.983  1.00  0.00     0.248 C 
HETATM    6  O   UNL     1      23.294  44.396  45.791  1.00  0.00    -0.271 OA
HETATM    7  N   UNL     1      23.827  44.970  47.918  1.00  0.00    -0.185 NA
HETATM    8  H   UNL     1      21.902  45.142  50.446  1.00  0.00     0.163 HD
ENDROOT
BRANCH   1   9
HETATM    9  N   UNL     1      24.137  45.754  50.097  1.00  0.00    -0.250 NA
HETATM   10  C   UNL     1      25.473  46.230  49.656  1.00  0.00     0.126 C 
HETATM   11  C   UNL     1      26.474  45.056  49.569  1.00  0.00     0.251 C 
HETATM   12  N   UNL     1      26.591  44.384  50.940  1.00  0.00    -0.057 N 
HETATM   13  H   UNL     1      26.886  45.112  51.597  1.00  0.00     0.281 HD
HETATM   14  C   UNL     1      25.227  43.923  51.443  1.00  0.00     0.251 C 
HETATM   15  C   UNL     1      24.215  45.092  51.425  1.00  0.00     0.126 C 
BRANCH  12  16
HETATM   16  C   UNL     1      27.714  43.347  50.999  1.00  0.00     0.254 C 
BRANCH  16  17
HETATM   17  C   UNL     1      27.383  41.959  50.454  1.00  0.00    -0.023 A 
HETATM   18  C   UNL     1      26.680  41.054  51.276  1.00  0.00     0.009 A 
HETATM   19  C   UNL     1      26.387  39.759  50.842  1.00  0.00     0.001 A 
HETATM   20  C   UNL     1      26.786  39.339  49.579  1.00  0.00     0.000 A 
HETATM   21  C   UNL     1      27.468  40.216  48.745  1.00  0.00     0.001 A 
HETATM   22  C   UNL     1      27.758  41.514  49.175  1.00  0.00     0.009 A 
ENDBRANCH  16  17
BRANCH  16  23
HETATM   23  C   UNL     1      28.490  43.433  52.314  1.00  0.00    -0.023 A 
HETATM   24  C   UNL     1      27.995  44.276  53.333  1.00  0.00     0.009 A 
HETATM   25  C   UNL     1      28.630  44.365  54.573  1.00  0.00     0.001 A 
HETATM   26  C   UNL     1      29.774  43.612  54.821  1.00  0.00     0.000 A 
HETATM   27  C   UNL     1      30.281  42.778  53.831  1.00  0.00     0.001 A 
HETATM   28  C   UNL     1      29.646  42.686  52.589  1.00  0.00     0.009 A 
ENDBRANCH  16  23
ENDBRANCH  12  16
ENDBRANCH   1   9
BRANCH   3  29
HETATM   29  C   UNL     1      20.450  45.763  48.224  1.00  0.00     0.245 C 
HETATM   30  N   UNL     1      20.387  46.679  49.264  1.00  0.00    -0.325 N 
HETATM   31  H   UNL     1      20.680  46.372  50.185  1.00  0.00     0.169 HD
HETATM   32  O   UNL     1      20.047  45.945  47.075  1.00  0.00    -0.271 OA
BRANCH  30  33
HETATM   33  C   UNL     1      19.987  48.032  49.193  1.00  0.00     0.035 A 
HETATM   34  C   UNL     1      20.704  49.025  48.520  1.00  0.00     0.032 A 
HETATM   35  C   UNL     1      20.266  50.353  48.541  1.00  0.00     0.039 A 
HETATM   36  C   UNL     1      19.096  50.694  49.216  1.00  0.00     0.076 A 
HETATM   37  C   UNL     1      18.379  49.718  49.902  1.00  0.00     0.039 A 
HETATM   38  C   UNL     1      18.820  48.391  49.884  1.00  0.00     0.032 A 
BRANCH  36  39
HETATM   39  O   UNL     1      18.756  52.026  49.248  1.00  0.00    -0.311 OA
BRANCH  39  40
HETATM   40  C   UNL     1      17.443  52.362  49.005  1.00  0.00     0.076 A 
HETATM   41  C   UNL     1      16.787  53.070  50.014  1.00  0.00     0.037 A 
HETATM   42  C   UNL     1      15.470  53.494  49.827  1.00  0.00     0.003 A 
HETATM   43  C   UNL     1      14.814  53.221  48.628  1.00  0.00     0.000 A 
HETATM   44  C   UNL     1      15.476  52.531  47.611  1.00  0.00     0.003 A 
HETATM   45  C   UNL     1      16.793  52.108  47.794  1.00  0.00     0.037 A 
ENDBRANCH  39  40
ENDBRANCH  36  39
ENDBRANCH  30  33
ENDBRANCH   3  29
TORSDOF 8
ENDMDL
MODEL 6
REMARK VINA RESULT:      -9.5      2.560      5.290
REMARK  8 active torsions:
REMARK  status: ('A' for Active; 'I' for Inactive)
REMARK    1  A    between atoms: C_4  and  C_5 
REMARK    2  A    between atoms: C_5  and  N_6 
REMARK    3  A    between atoms: C_5  and  C_36 
REMARK    4  A    between atoms: N_10  and  C_11 
REMARK    5  A    between atoms: C_13  and  C_14 
REMARK       I    between atoms: C_14  and  N_15 
REMARK    6  A    between atoms: N_15  and  C_16 
REMARK    7  A    between atoms: C_19  and  O_20 
REMARK    8  A    between atoms: O_20  and  C_21 
ROOT
HETATM    1  C   UNL     1      20.773  44.413  47.029  1.00  0.00     0.181 C 
HETATM    2  N   UNL     1      21.891  45.174  46.998  1.00  0.00    -0.351 N 
HETATM    3  C   UNL     1      23.155  44.543  47.351  1.00  0.00     0.185 C 
HETATM    4  C   UNL     1      23.216  43.180  46.700  1.00  0.00     0.140 C 
HETATM    5  C   UNL     1      21.930  42.435  46.954  1.00  0.00     0.248 C 
HETATM    6  O   UNL     1      21.951  41.211  47.069  1.00  0.00    -0.271 OA
HETATM    7  N   UNL     1      20.743  43.127  46.985  1.00  0.00    -0.185 NA
HETATM    8  H   UNL     1      21.771  46.114  47.362  1.00  0.00     0.163 HD
ENDROOT
BRANCH   1   9
HETATM    9  N   UNL     1      19.633  45.176  47.164  1.00  0.00    -0.250 NA
HETATM   10  C   UNL     1      19.371  46.107  46.037  1.00  0.00     0.126 C 
HETATM   11  C   UNL     1      20.303  47.337  46.113  1.00  0.00     0.251 C 
HETATM   12  N   UNL     1      20.085  48.060  47.445  1.00  0.00    -0.057 N 
HETATM   13  H   UNL     1      19.093  48.310  47.482  1.00  0.00     0.281 HD
HETATM   14  C   UNL     1      20.303  47.117  48.624  1.00  0.00     0.251 C 
HETATM   15  C   UNL     1      19.435  45.847  48.474  1.00  0.00     0.126 C 
BRANCH  12  16
HETATM   16  C   UNL     1      20.813  49.405  47.517  1.00  0.00     0.254 C 
BRANCH  16  17
HETATM   17  C   UNL     1      22.272  49.361  47.966  1.00  0.00    -0.023 A 
HETATM   18  C   UNL     1      22.698  48.301  48.792  1.00  0.00     0.009 A 
HETATM   19  C   UNL     1      24.012  48.233  49.265  1.00  0.00     0.001 A 
HETATM   20  C   UNL     1      24.928  49.220  48.922  1.00  0.00     0.000 A 
HETATM   21  C   UNL     1      24.536  50.268  48.098  1.00  0.00     0.001 A 
HETATM   22  C   UNL     1      23.224  50.335  47.620  1.00  0.00     0.009 A 
ENDBRANCH  16  17
BRANCH  16  23
HETATM   23  C   UNL     1      19.916  50.498  48.100  1.00  0.00    -0.023 A 
HETATM   24  C   UNL     1      18.930  51.074  47.270  1.00  0.00     0.009 A 
HETATM   25  C   UNL     1      18.051  52.044  47.755  1.00  0.00     0.001 A 
HETATM   26  C   UNL     1      18.137  52.458  49.079  1.00  0.00     0.000 A 
HETATM   27  C   UNL     1      19.103  51.907  49.915  1.00  0.00     0.001 A 
HETATM   28  C   UNL     1      19.985  50.934  49.432  1.00  0.00     0.009 A 
ENDBRANCH  16  23
ENDBRANCH  12  16
ENDBRANCH   1   9
BRANCH   3  29
HETATM   29  C   UNL     1      23.327  44.478  48.890  1.00  0.00     0.245 C 
HETATM   30  N   UNL     1      24.655  44.431  49.286  1.00  0.00    -0.325 N 
HETATM   31  H   UNL     1      25.361  44.326  48.567  1.00  0.00     0.169 HD
HETATM   32  O   UNL     1      22.349  44.509  49.638  1.00  0.00    -0.271 OA
BRANCH  30  33
HETATM   33  C   UNL     1      25.163  44.549  50.600  1.00  0.00     0.035 A 
HETATM   34  C   UNL     1      24.944  43.609  51.610  1.00  0.00     0.032 A 
HETATM   35  C   UNL     1      25.440  43.827  52.900  1.00  0.00     0.039 A 
HETATM   36  C   UNL     1      26.176  44.974  53.183  1.00  0.00     0.076 A 
HETATM   37  C   UNL     1      26.391  45.926  52.190  1.00  0.00     0.039 A 
HETATM   38  C   UNL     1      25.891  45.710  50.901  1.00  0.00     0.032 A 
BRANCH  36  39
HETATM   39  O   UNL     1      26.581  45.155  54.485  1.00  0.00    -0.311 OA
BRANCH  39  40
HETATM   40  C   UNL     1      27.853  44.753  54.826  1.00  0.00     0.076 A 
HETATM   41  C   UNL     1      28.279  43.530  54.303  1.00  0.00     0.037 A 
HETATM   42  C   UNL     1      29.573  43.074  54.558  1.00  0.00     0.003 A 
HETATM   43  C   UNL     1      30.444  43.845  55.325  1.00  0.00     0.000 A 
HETATM   44  C   UNL     1      30.027  45.076  55.832  1.00  0.00     0.003 A 
HETATM   45  C   UNL     1      28.734  45.537  55.576  1.00  0.00     0.037 A 
ENDBRANCH  39  40
ENDBRANCH  36  39
ENDBRANCH  30  33
ENDBRANCH   3  29
TORSDOF 8
ENDMDL
MODEL 7
REMARK VINA RESULT:      -9.4      2.985     13.108
REMARK  8 active torsions:
REMARK  status: ('A' for Active; 'I' for Inactive)
REMARK    1  A    between atoms: C_4  and  C_5 
REMARK    2  A    between atoms: C_5  and  N_6 
REMARK    3  A    between atoms: C_5  and  C_36 
REMARK    4  A    between atoms: N_10  and  C_11 
REMARK    5  A    between atoms: C_13  and  C_14 
REMARK       I    between atoms: C_14  and  N_15 
REMARK    6  A    between atoms: N_15  and  C_16 
REMARK    7  A    between atoms: C_19  and  O_20 
REMARK    8  A    between atoms: O_20  and  C_21 
ROOT
HETATM    1  C   UNL     1      24.727  45.272  50.257  1.00  0.00     0.181 C 
HETATM    2  N   UNL     1      24.899  45.958  49.104  1.00  0.00    -0.351 N 
HETATM    3  C   UNL     1      24.844  47.412  49.160  1.00  0.00     0.185 C 
HETATM    4  C   UNL     1      25.611  47.880  50.376  1.00  0.00     0.140 C 
HETATM    5  C   UNL     1      25.188  47.083  51.585  1.00  0.00     0.248 C 
HETATM    6  O   UNL     1      25.186  47.617  52.692  1.00  0.00    -0.271 OA
HETATM    7  N   UNL     1      24.876  45.752  51.442  1.00  0.00    -0.185 NA
HETATM    8  H   UNL     1      24.438  45.548  48.297  1.00  0.00     0.163 HD
ENDROOT
BRANCH   1   9
HETATM    9  N   UNL     1      24.316  43.976  50.030  1.00  0.00    -0.250 NA
HETATM   10  C   UNL     1      24.382  43.086  51.217  1.00  0.00     0.126 C 
HETATM   11  C   UNL     1      25.839  42.662  51.507  1.00  0.00     0.251 C 
HETATM   12  N   UNL     1      26.412  41.939  50.285  1.00  0.00    -0.057 N 
HETATM   13  H   UNL     1      25.794  41.143  50.101  1.00  0.00     0.281 HD
HETATM   14  C   UNL     1      26.318  42.811  49.037  1.00  0.00     0.251 C 
HETATM   15  C   UNL     1      24.869  43.306  48.825  1.00  0.00     0.126 C 
BRANCH  12  16
HETATM   16  C   UNL     1      27.776  41.300  50.558  1.00  0.00     0.254 C 
BRANCH  16  17
HETATM   17  C   UNL     1      27.900  39.811  50.243  1.00  0.00    -0.023 A 
HETATM   18  C   UNL     1      26.765  39.117  49.775  1.00  0.00     0.009 A 
HETATM   19  C   UNL     1      26.812  37.746  49.510  1.00  0.00     0.001 A 
HETATM   20  C   UNL     1      27.992  37.038  49.706  1.00  0.00     0.000 A 
HETATM   21  C   UNL     1      29.128  37.701  50.154  1.00  0.00     0.001 A 
HETATM   22  C   UNL     1      29.084  39.074  50.414  1.00  0.00     0.009 A 
ENDBRANCH  16  17
BRANCH  16  23
HETATM   23  C   UNL     1      28.383  41.809  51.866  1.00  0.00    -0.023 A 
HETATM   24  C   UNL     1      28.133  41.083  53.051  1.00  0.00     0.009 A 
HETATM   25  C   UNL     1      28.695  41.469  54.269  1.00  0.00     0.001 A 
HETATM   26  C   UNL     1      29.518  42.588  54.330  1.00  0.00     0.000 A 
HETATM   27  C   UNL     1      29.775  43.321  53.175  1.00  0.00     0.001 A 
HETATM   28  C   UNL     1      29.214  42.936  51.953  1.00  0.00     0.009 A 
ENDBRANCH  16  23
ENDBRANCH  12  16
ENDBRANCH   1   9
BRANCH   3  29
HETATM   29  C   UNL     1      23.375  47.907  49.154  1.00  0.00     0.245 C 
HETATM   30  N   UNL     1      23.267  49.283  49.299  1.00  0.00    -0.325 N 
HETATM   31  H   UNL     1      24.109  49.806  49.508  1.00  0.00     0.169 HD
HETATM   32  O   UNL     1      22.442  47.120  48.992  1.00  0.00    -0.271 OA
BRANCH  30  33
HETATM   33  C   UNL     1      22.103  50.071  49.153  1.00  0.00     0.035 A 
HETATM   34  C   UNL     1      21.436  50.684  50.218  1.00  0.00     0.032 A 
HETATM   35  C   UNL     1      20.259  51.406  49.994  1.00  0.00     0.039 A 
HETATM   36  C   UNL     1      19.753  51.539  48.704  1.00  0.00     0.076 A 
HETATM   37  C   UNL     1      20.399  50.923  47.635  1.00  0.00     0.039 A 
HETATM   38  C   UNL     1      21.574  50.197  47.860  1.00  0.00     0.032 A 
BRANCH  36  39
HETATM   39  O   UNL     1      18.561  52.209  48.563  1.00  0.00    -0.311 OA
BRANCH  39  40
HETATM   40  C   UNL     1      17.489  51.518  48.044  1.00  0.00     0.076 A 
HETATM   41  C   UNL     1      17.061  51.901  46.772  1.00  0.00     0.037 A 
HETATM   42  C   UNL     1      16.014  51.218  46.152  1.00  0.00     0.003 A 
HETATM   43  C   UNL     1      15.403  50.145  46.798  1.00  0.00     0.000 A 
HETATM   44  C   UNL     1      15.844  49.747  48.061  1.00  0.00     0.003 A 
HETATM   45  C   UNL     1      16.893  50.427  48.682  1.00  0.00     0.037 A 
ENDBRANCH  39  40
ENDBRANCH  36  39
ENDBRANCH  30  33
ENDBRANCH   3  29
TORSDOF 8
ENDMDL
MODEL 8
REMARK VINA RESULT:      -9.4      1.954      3.818
REMARK  8 active torsions:
REMARK  status: ('A' for Active; 'I' for Inactive)
REMARK    1  A    between atoms: C_4  and  C_5 
REMARK    2  A    between atoms: C_5  and  N_6 
REMARK    3  A    between atoms: C_5  and  C_36 
REMARK    4  A    between atoms: N_10  and  C_11 
REMARK    5  A    between atoms: C_13  and  C_14 
REMARK       I    between atoms: C_14  and  N_15 
REMARK    6  A    between atoms: N_15  and  C_16 
REMARK    7  A    between atoms: C_19  and  O_20 
REMARK    8  A    between atoms: O_20  and  C_21 
ROOT
HETATM    1  C   UNL     1      20.496  48.246  48.478  1.00  0.00     0.181 C 
HETATM    2  N   UNL     1      21.707  48.570  47.968  1.00  0.00    -0.351 N 
HETATM    3  C   UNL     1      22.777  47.589  48.074  1.00  0.00     0.185 C 
HETATM    4  C   UNL     1      22.220  46.224  47.742  1.00  0.00     0.140 C 
HETATM    5  C   UNL     1      20.939  45.996  48.505  1.00  0.00     0.248 C 
HETATM    6  O   UNL     1      20.645  44.859  48.870  1.00  0.00    -0.271 OA
HETATM    7  N   UNL     1      20.085  47.050  48.723  1.00  0.00    -0.185 NA
HETATM    8  H   UNL     1      21.992  49.529  48.140  1.00  0.00     0.163 HD
ENDROOT
BRANCH   1   9
HETATM    9  N   UNL     1      19.740  49.361  48.764  1.00  0.00    -0.250 NA
HETATM   10  C   UNL     1      18.288  49.101  48.937  1.00  0.00     0.126 C 
HETATM   11  C   UNL     1      17.601  48.882  47.571  1.00  0.00     0.251 C 
HETATM   12  N   UNL     1      17.805  50.122  46.694  1.00  0.00    -0.057 N 
HETATM   13  H   UNL     1      17.415  50.913  47.214  1.00  0.00     0.281 HD
HETATM   14  C   UNL     1      19.287  50.443  46.534  1.00  0.00     0.251 C 
HETATM   15  C   UNL     1      19.974  50.556  47.914  1.00  0.00     0.126 C 
BRANCH  12  16
HETATM   16  C   UNL     1      16.982  50.078  45.405  1.00  0.00     0.254 C 
BRANCH  16  17
HETATM   17  C   UNL     1      17.763  49.847  44.112  1.00  0.00    -0.023 A 
HETATM   18  C   UNL     1      18.168  50.965  43.353  1.00  0.00     0.009 A 
HETATM   19  C   UNL     1      18.849  50.810  42.142  1.00  0.00     0.001 A 
HETATM   20  C   UNL     1      19.142  49.538  41.665  1.00  0.00     0.000 A 
HETATM   21  C   UNL     1      18.766  48.421  42.402  1.00  0.00     0.001 A 
HETATM   22  C   UNL     1      18.089  48.574  43.615  1.00  0.00     0.009 A 
ENDBRANCH  16  17
BRANCH  16  23
HETATM   23  C   UNL     1      15.888  51.147  45.400  1.00  0.00    -0.023 A 
HETATM   24  C   UNL     1      14.728  50.919  44.628  1.00  0.00     0.009 A 
HETATM   25  C   UNL     1      13.674  51.834  44.616  1.00  0.00     0.001 A 
HETATM   26  C   UNL     1      13.756  52.996  45.376  1.00  0.00     0.000 A 
HETATM   27  C   UNL     1      14.891  53.243  46.141  1.00  0.00     0.001 A 
HETATM   28  C   UNL     1      15.948  52.328  46.155  1.00  0.00     0.009 A 
ENDBRANCH  16  23
ENDBRANCH  12  16
ENDBRANCH   1   9
BRANCH   3  29
HETATM   29  C   UNL     1      23.433  47.641  49.478  1.00  0.00     0.245 C 
HETATM   30  N   UNL     1      23.878  46.402  49.914  1.00  0.00    -0.325 N 
HETATM   31  H   UNL     1      23.639  45.589  49.358  1.00  0.00     0.169 HD
HETATM   32  O   UNL     1      23.557  48.708  50.080  1.00  0.00    -0.271 OA
BRANCH  30  33
HETATM   33  C   UNL     1      24.674  46.127  51.050  1.00  0.00     0.035 A 
HETATM   34  C   UNL     1      25.674  46.978  51.527  1.00  0.00     0.032 A 
HETATM   35  C   UNL     1      26.453  46.607  52.629  1.00  0.00     0.039 A 
HETATM   36  C   UNL     1      26.223  45.395  53.274  1.00  0.00     0.076 A 
HETATM   37  C   UNL     1      25.239  44.531  52.800  1.00  0.00     0.039 A 
HETATM   38  C   UNL     1      24.463  44.900  51.696  1.00  0.00     0.032 A 
BRANCH  36  39
HETATM   39  O   UNL     1      27.063  45.065  54.310  1.00  0.00    -0.311 OA
BRANCH  39  40
HETATM   40  C   UNL     1      28.199  44.345  54.016  1.00  0.00     0.076 A 
HETATM   41  C   UNL     1      29.191  44.321  54.998  1.00  0.00     0.037 A 
HETATM   42  C   UNL     1      30.352  43.573  54.801  1.00  0.00     0.003 A 
HETATM   43  C   UNL     1      30.517  42.839  53.628  1.00  0.00     0.000 A 
HETATM   44  C   UNL     1      29.517  42.845  52.654  1.00  0.00     0.003 A 
HETATM   45  C   UNL     1      28.354  43.591  52.849  1.00  0.00     0.037 A 
ENDBRANCH  39  40
ENDBRANCH  36  39
ENDBRANCH  30  33
ENDBRANCH   3  29
TORSDOF 8
ENDMDL
MODEL 9
REMARK VINA RESULT:      -9.3      1.514      2.219
REMARK  8 active torsions:
REMARK  status: ('A' for Active; 'I' for Inactive)
REMARK    1  A    between atoms: C_4  and  C_5 
REMARK    2  A    between atoms: C_5  and  N_6 
REMARK    3  A    between atoms: C_5  and  C_36 
REMARK    4  A    between atoms: N_10  and  C_11 
REMARK    5  A    between atoms: C_13  and  C_14 
REMARK       I    between atoms: C_14  and  N_15 
REMARK    6  A    between atoms: N_15  and  C_16 
REMARK    7  A    between atoms: C_19  and  O_20 
REMARK    8  A    between atoms: O_20  and  C_21 
ROOT
HETATM    1  C   UNL     1      20.104  47.061  48.654  1.00  0.00     0.181 C 
HETATM    2  N   UNL     1      21.384  47.320  48.301  1.00  0.00    -0.351 N 
HETATM    3  C   UNL     1      22.200  46.211  47.830  1.00  0.00     0.185 C 
HETATM    4  C   UNL     1      21.373  45.363  46.892  1.00  0.00     0.140 C 
HETATM    5  C   UNL     1      20.031  45.071  47.516  1.00  0.00     0.248 C 
HETATM    6  O   UNL     1      19.470  44.004  47.277  1.00  0.00    -0.271 OA
HETATM    7  N   UNL     1      19.423  46.031  48.289  1.00  0.00    -0.185 NA
HETATM    8  H   UNL     1      21.866  47.971  48.914  1.00  0.00     0.163 HD
ENDROOT
BRANCH   1   9
HETATM    9  N   UNL     1      19.601  48.015  49.511  1.00  0.00    -0.250 NA
HETATM   10  C   UNL     1      18.145  47.900  49.784  1.00  0.00     0.126 C 
HETATM   11  C   UNL     1      17.318  48.418  48.586  1.00  0.00     0.251 C 
HETATM   12  N   UNL     1      17.680  49.881  48.312  1.00  0.00    -0.057 N 
HETATM   13  H   UNL     1      17.493  50.395  49.177  1.00  0.00     0.281 HD
HETATM   14  C   UNL     1      19.178  50.040  48.071  1.00  0.00     0.251 C 
HETATM   15  C   UNL     1      19.986  49.423  49.236  1.00  0.00     0.126 C 
BRANCH  12  16
HETATM   16  C   UNL     1      16.760  50.537  47.280  1.00  0.00     0.254 C 
BRANCH  16  17
HETATM   17  C   UNL     1      15.944  51.733  47.765  1.00  0.00    -0.023 A 
HETATM   18  C   UNL     1      15.797  51.939  49.152  1.00  0.00     0.009 A 
HETATM   19  C   UNL     1      15.027  52.993  49.651  1.00  0.00     0.001 A 
HETATM   20  C   UNL     1      14.390  53.865  48.777  1.00  0.00     0.000 A 
HETATM   21  C   UNL     1      14.530  53.692  47.406  1.00  0.00     0.001 A 
HETATM   22  C   UNL     1      15.303  52.641  46.905  1.00  0.00     0.009 A 
ENDBRANCH  16  17
BRANCH  16  23
HETATM   23  C   UNL     1      16.056  49.494  46.412  1.00  0.00    -0.023 A 
HETATM   24  C   UNL     1      16.779  48.898  45.355  1.00  0.00     0.009 A 
HETATM   25  C   UNL     1      16.209  47.907  44.554  1.00  0.00     0.001 A 
HETATM   26  C   UNL     1      14.904  47.489  44.793  1.00  0.00     0.000 A 
HETATM   27  C   UNL     1      14.171  48.063  45.827  1.00  0.00     0.001 A 
HETATM   28  C   UNL     1      14.741  49.056  46.631  1.00  0.00     0.009 A 
ENDBRANCH  16  23
ENDBRANCH  12  16
ENDBRANCH   1   9
BRANCH   3  29
HETATM   29  C   UNL     1      22.769  45.401  49.023  1.00  0.00     0.245 C 
HETATM   30  N   UNL     1      23.860  46.012  49.623  1.00  0.00    -0.325 N 
HETATM   31  H   UNL     1      24.249  46.834  49.176  1.00  0.00     0.169 HD
HETATM   32  O   UNL     1      22.240  44.349  49.383  1.00  0.00    -0.271 OA
BRANCH  30  33
HETATM   33  C   UNL     1      24.494  45.641  50.830  1.00  0.00     0.035 A 
HETATM   34  C   UNL     1      24.580  44.327  51.296  1.00  0.00     0.032 A 
HETATM   35  C   UNL     1      25.181  44.050  52.529  1.00  0.00     0.039 A 
HETATM   36  C   UNL     1      25.719  45.082  53.294  1.00  0.00     0.076 A 
HETATM   37  C   UNL     1      25.629  46.398  52.848  1.00  0.00     0.039 A 
HETATM   38  C   UNL     1      25.024  46.675  51.617  1.00  0.00     0.032 A 
BRANCH  36  39
HETATM   39  O   UNL     1      26.239  44.748  54.521  1.00  0.00    -0.311 OA
BRANCH  39  40
HETATM   40  C   UNL     1      27.546  44.317  54.573  1.00  0.00     0.076 A 
HETATM   41  C   UNL     1      28.449  45.151  55.235  1.00  0.00     0.037 A 
HETATM   42  C   UNL     1      29.782  44.765  55.376  1.00  0.00     0.003 A 
HETATM   43  C   UNL     1      30.210  43.540  54.867  1.00  0.00     0.000 A 
HETATM   44  C   UNL     1      29.305  42.697  54.223  1.00  0.00     0.003 A 
HETATM   45  C   UNL     1      27.970  43.079  54.082  1.00  0.00     0.037 A 
ENDBRANCH  39  40
ENDBRANCH  36  39
ENDBRANCH  30  33
ENDBRANCH   3  29
TORSDOF 8
ENDMDL
MODEL 10
REMARK VINA RESULT:      -9.3      2.531      4.573
REMARK  8 active torsions:
REMARK  status: ('A' for Active; 'I' for Inactive)
REMARK    1  A    between atoms: C_4  and  C_5 
REMARK    2  A    between atoms: C_5  and  N_6 
REMARK    3  A    between atoms: C_5  and  C_36 
REMARK    4  A    between atoms: N_10  and  C_11 
REMARK    5  A    between atoms: C_13  and  C_14 
REMARK       I    between atoms: C_14  and  N_15 
REMARK    6  A    between atoms: N_15  and  C_16 
REMARK    7  A    between atoms: C_19  and  O_20 
REMARK    8  A    between atoms: O_20  and  C_21 
ROOT
HETATM    1  C   UNL     1      20.378  44.396  47.124  1.00  0.00     0.181 C 
HETATM    2  N   UNL     1      21.507  45.136  47.216  1.00  0.00    -0.351 N 
HETATM    3  C   UNL     1      22.776  44.482  46.935  1.00  0.00     0.185 C 
HETATM    4  C   UNL     1      22.612  43.603  45.716  1.00  0.00     0.140 C 
HETATM    5  C   UNL     1      21.369  42.760  45.859  1.00  0.00     0.248 C 
HETATM    6  O   UNL     1      21.341  41.634  45.367  1.00  0.00    -0.271 OA
HETATM    7  N   UNL     1      20.261  43.288  46.478  1.00  0.00    -0.185 NA
HETATM    8  H   UNL     1      21.526  45.779  48.002  1.00  0.00     0.163 HD
ENDROOT
BRANCH   1   9
HETATM    9  N   UNL     1      19.344  44.938  47.855  1.00  0.00    -0.250 NA
HETATM   10  C   UNL     1      18.304  45.625  47.046  1.00  0.00     0.126 C 
HETATM   11  C   UNL     1      18.802  47.007  46.568  1.00  0.00     0.251 C 
HETATM   12  N   UNL     1      19.164  47.866  47.784  1.00  0.00    -0.057 N 
HETATM   13  H   UNL     1      18.321  47.924  48.361  1.00  0.00     0.281 HD
HETATM   14  C   UNL     1      20.199  47.168  48.660  1.00  0.00     0.251 C 
HETATM   15  C   UNL     1      19.722  45.747  49.041  1.00  0.00     0.126 C 
BRANCH  12  16
HETATM   16  C   UNL     1      19.467  49.320  47.414  1.00  0.00     0.254 C 
BRANCH  16  17
HETATM   17  C   UNL     1      20.705  49.938  48.061  1.00  0.00    -0.023 A 
HETATM   18  C   UNL     1      21.900  50.009  47.316  1.00  0.00     0.009 A 
HETATM   19  C   UNL     1      23.072  50.527  47.872  1.00  0.00     0.001 A 
HETATM   20  C   UNL     1      23.076  50.988  49.183  1.00  0.00     0.000 A 
HETATM   21  C   UNL     1      21.908  50.942  49.934  1.00  0.00     0.001 A 
HETATM   22  C   UNL     1      20.733  50.429  49.378  1.00  0.00     0.009 A 
ENDBRANCH  16  17
BRANCH  16  23
HETATM   23  C   UNL     1      18.192  50.162  47.356  1.00  0.00    -0.023 A 
HETATM   24  C   UNL     1      17.163  49.889  48.283  1.00  0.00     0.009 A 
HETATM   25  C   UNL     1      15.993  50.650  48.313  1.00  0.00     0.001 A 
HETATM   26  C   UNL     1      15.828  51.701  47.418  1.00  0.00     0.000 A 
HETATM   27  C   UNL     1      16.827  51.987  46.493  1.00  0.00     0.001 A 
HETATM   28  C   UNL     1      18.000  51.226  46.462  1.00  0.00     0.009 A 
ENDBRANCH  16  23
ENDBRANCH  12  16
ENDBRANCH   1   9
BRANCH   3  29
HETATM   29  C   UNL     1      23.276  43.696  48.175  1.00  0.00     0.245 C 
HETATM   30  N   UNL     1      24.587  43.261  48.049  1.00  0.00    -0.325 N 
HETATM   31  H   UNL     1      25.044  43.383  47.152  1.00  0.00     0.169 HD
HETATM   32  O   UNL     1      22.552  43.539  49.159  1.00  0.00    -0.271 OA
BRANCH  30  33
HETATM   33  C   UNL     1      25.399  42.684  49.051  1.00  0.00     0.035 A 
HETATM   34  C   UNL     1      25.209  41.400  49.568  1.00  0.00     0.032 A 
HETATM   35  C   UNL     1      26.028  40.923  50.597  1.00  0.00     0.039 A 
HETATM   36  C   UNL     1      27.055  41.717  51.102  1.00  0.00     0.076 A 
HETATM   37  C   UNL     1      27.247  43.004  50.606  1.00  0.00     0.039 A 
HETATM   38  C   UNL     1      26.426  43.482  49.579  1.00  0.00     0.032 A 
BRANCH  36  39
HETATM   39  O   UNL     1      27.781  41.211  52.153  1.00  0.00    -0.311 OA
BRANCH  39  40
HETATM   40  C   UNL     1      28.428  42.102  52.979  1.00  0.00     0.076 A 
HETATM   41  C   UNL     1      27.617  42.869  53.819  1.00  0.00     0.037 A 
HETATM   42  C   UNL     1      28.194  43.761  54.724  1.00  0.00     0.003 A 
HETATM   43  C   UNL     1      29.581  43.877  54.798  1.00  0.00     0.000 A 
HETATM   44  C   UNL     1      30.393  43.097  53.974  1.00  0.00     0.003 A 
HETATM   45  C   UNL     1      29.819  42.202  53.069  1.00  0.00     0.037 A 
ENDBRANCH  39  40
ENDBRANCH  36  39
ENDBRANCH  30  33
ENDBRANCH   3  29
TORSDOF 8
ENDMDL
