MODEL 1
REMARK VINA RESULT:      -8.8      0.000      0.000
REMARK  5 active torsions:
REMARK  status: ('A' for Active; 'I' for Inactive)
REMARK    1  A    between atoms: C_2  and  N_3 
REMARK    2  A    between atoms: C_2  and  C_19 
REMARK       I    between atoms: N_3  and  C_4 
REMARK    3  A    between atoms: C_4  and  C_5 
REMARK    4  A    between atoms: C_6  and  O_7 
REMARK    5  A    between atoms: O_7  and  C_8 
ROOT
HETATM    1  C   UNL     1      27.043  45.342  54.398  1.00  0.00     0.065 A 
HETATM    2  C   UNL     1      28.283  45.906  54.721  1.00  0.00     0.091 A 
HETATM    3  C   UNL     1      28.383  47.291  54.915  1.00  0.00     0.038 A 
HETATM    4  C   UNL     1      27.246  48.098  54.833  1.00  0.00     0.003 A 
HETATM    5  C   UNL     1      26.008  47.533  54.539  1.00  0.00     0.001 A 
HETATM    6  C   UNL     1      25.902  46.159  54.321  1.00  0.00     0.020 A 
ENDROOT
BRANCH   1   7
HETATM    7  C   UNL     1      26.901  43.881  54.179  1.00  0.00     0.255 C 
HETATM    8  N   UNL     1      27.593  43.379  53.097  1.00  0.00    -0.348 N 
HETATM    9  H   UNL     1      28.269  43.967  52.626  1.00  0.00     0.163 HD
HETATM   10  O   UNL     1      26.193  43.198  54.909  1.00  0.00    -0.268 OA
BRANCH   8  11
HETATM   11  C   UNL     1      27.604  41.954  52.785  1.00  0.00     0.115 C 
HETATM   12  C   UNL     1      28.808  41.305  53.475  1.00  0.00     0.037 C 
BRANCH  11  13
HETATM   13  C   UNL     1      27.523  41.759  51.284  1.00  0.00    -0.018 A 
HETATM   14  C   UNL     1      27.072  42.733  50.397  1.00  0.00     0.125 A 
HETATM   15  N   UNL     1      27.017  42.583  49.052  1.00  0.00    -0.273 NA
HETATM   16  C   UNL     1      27.444  41.406  48.551  1.00  0.00     0.116 A 
HETATM   17  C   UNL     1      27.922  40.371  49.332  1.00  0.00     0.020 A 
HETATM   18  C   UNL     1      27.966  40.556  50.710  1.00  0.00     0.012 A 
ENDBRANCH  11  13
ENDBRANCH   8  11
ENDBRANCH   1   7
BRANCH   2  19
HETATM   19  O   UNL     1      29.407  45.108  54.734  1.00  0.00    -0.310 OA
BRANCH  19  20
HETATM   20  C   UNL     1      30.057  44.956  55.938  1.00  0.00     0.076 A 
HETATM   21  C   UNL     1      29.795  45.769  57.043  1.00  0.00     0.037 A 
HETATM   22  C   UNL     1      30.479  45.551  58.240  1.00  0.00     0.003 A 
HETATM   23  C   UNL     1      31.404  44.511  58.337  1.00  0.00     0.000 A 
HETATM   24  C   UNL     1      31.640  43.680  57.241  1.00  0.00     0.003 A 
HETATM   25  C   UNL     1      30.960  43.898  56.043  1.00  0.00     0.037 A 
ENDBRANCH  19  20
ENDBRANCH   2  19
TORSDOF 5
ENDMDL
MODEL 2
REMARK VINA RESULT:      -8.8      3.560      7.148
REMARK  5 active torsions:
REMARK  status: ('A' for Active; 'I' for Inactive)
REMARK    1  A    between atoms: C_2  and  N_3 
REMARK    2  A    between atoms: C_2  and  C_19 
REMARK       I    between atoms: N_3  and  C_4 
REMARK    3  A    between atoms: C_4  and  C_5 
REMARK    4  A    between atoms: C_6  and  O_7 
REMARK    5  A    between atoms: O_7  and  C_8 
ROOT
HETATM    1  C   UNL     1      25.165  44.370  51.441  1.00  0.00     0.065 A 
HETATM    2  C   UNL     1      24.689  45.344  50.554  1.00  0.00     0.091 A 
HETATM    3  C   UNL     1      24.402  44.990  49.228  1.00  0.00     0.038 A 
HETATM    4  C   UNL     1      24.544  43.667  48.805  1.00  0.00     0.003 A 
HETATM    5  C   UNL     1      24.990  42.692  49.695  1.00  0.00     0.001 A 
HETATM    6  C   UNL     1      25.301  43.040  51.010  1.00  0.00     0.020 A 
ENDROOT
BRANCH   1   7
HETATM    7  C   UNL     1      25.486  44.710  52.849  1.00  0.00     0.255 C 
HETATM    8  N   UNL     1      26.687  45.361  53.038  1.00  0.00    -0.348 N 
HETATM    9  H   UNL     1      27.192  45.712  52.233  1.00  0.00     0.163 HD
HETATM   10  O   UNL     1      24.731  44.401  53.762  1.00  0.00    -0.268 OA
BRANCH   8  11
HETATM   11  C   UNL     1      27.117  45.815  54.355  1.00  0.00     0.115 C 
HETATM   12  C   UNL     1      27.181  47.345  54.355  1.00  0.00     0.037 C 
BRANCH  11  13
HETATM   13  C   UNL     1      28.398  45.104  54.749  1.00  0.00    -0.018 A 
HETATM   14  C   UNL     1      29.293  45.586  55.700  1.00  0.00     0.125 A 
HETATM   15  N   UNL     1      30.428  44.952  56.080  1.00  0.00    -0.273 NA
HETATM   16  C   UNL     1      30.688  43.764  55.497  1.00  0.00     0.116 A 
HETATM   17  C   UNL     1      29.867  43.182  54.549  1.00  0.00     0.020 A 
HETATM   18  C   UNL     1      28.709  43.859  54.179  1.00  0.00     0.012 A 
ENDBRANCH  11  13
ENDBRANCH   8  11
ENDBRANCH   1   7
BRANCH   2  19
HETATM   19  O   UNL     1      24.618  46.657  50.966  1.00  0.00    -0.310 OA
BRANCH  19  20
HETATM   20  C   UNL     1      25.266  47.595  50.193  1.00  0.00     0.076 A 
HETATM   21  C   UNL     1      26.658  47.657  50.093  1.00  0.00     0.037 A 
HETATM   22  C   UNL     1      27.251  48.622  49.279  1.00  0.00     0.003 A 
HETATM   23  C   UNL     1      26.455  49.508  48.551  1.00  0.00     0.000 A 
HETATM   24  C   UNL     1      25.065  49.422  48.627  1.00  0.00     0.003 A 
HETATM   25  C   UNL     1      24.469  48.460  49.442  1.00  0.00     0.037 A 
ENDBRANCH  19  20
ENDBRANCH   2  19
TORSDOF 5
ENDMDL
MODEL 3
REMARK VINA RESULT:      -8.3      4.307      7.810
REMARK  5 active torsions:
REMARK  status: ('A' for Active; 'I' for Inactive)
REMARK    1  A    between atoms: C_2  and  N_3 
REMARK    2  A    between atoms: C_2  and  C_19 
REMARK       I    between atoms: N_3  and  C_4 
REMARK    3  A    between atoms: C_4  and  C_5 
REMARK    4  A    between atoms: C_6  and  O_7 
REMARK    5  A    between atoms: O_7  and  C_8 
ROOT
HETATM    1  C   UNL     1      24.966  44.776  49.542  1.00  0.00     0.065 A 
HETATM    2  C   UNL     1      24.118  45.890  49.516  1.00  0.00     0.091 A 
HETATM    3  C   UNL     1      22.995  45.885  48.676  1.00  0.00     0.038 A 
HETATM    4  C   UNL     1      22.697  44.760  47.905  1.00  0.00     0.003 A 
HETATM    5  C   UNL     1      23.525  43.641  47.952  1.00  0.00     0.001 A 
HETATM    6  C   UNL     1      24.658  43.646  48.766  1.00  0.00     0.020 A 
ENDROOT
BRANCH   1   7
HETATM    7  C   UNL     1      26.167  44.749  50.413  1.00  0.00     0.255 C 
HETATM    8  N   UNL     1      25.918  44.885  51.762  1.00  0.00    -0.348 N 
HETATM    9  H   UNL     1      24.964  44.829  52.098  1.00  0.00     0.163 HD
HETATM   10  O   UNL     1      27.290  44.638  49.938  1.00  0.00    -0.268 OA
BRANCH   8  11
HETATM   11  C   UNL     1      26.987  44.819  52.752  1.00  0.00     0.115 C 
HETATM   12  C   UNL     1      26.963  43.439  53.415  1.00  0.00     0.037 C 
BRANCH  11  13
HETATM   13  C   UNL     1      26.886  46.003  53.695  1.00  0.00    -0.018 A 
HETATM   14  C   UNL     1      25.896  46.979  53.612  1.00  0.00     0.125 A 
HETATM   15  N   UNL     1      25.777  48.029  54.460  1.00  0.00    -0.273 NA
HETATM   16  C   UNL     1      26.681  48.113  55.457  1.00  0.00     0.116 A 
HETATM   17  C   UNL     1      27.700  47.198  55.646  1.00  0.00     0.020 A 
HETATM   18  C   UNL     1      27.795  46.131  54.757  1.00  0.00     0.012 A 
ENDBRANCH  11  13
ENDBRANCH   8  11
ENDBRANCH   1   7
BRANCH   2  19
HETATM   19  O   UNL     1      24.460  47.017  50.231  1.00  0.00    -0.310 OA
BRANCH  19  20
HETATM   20  C   UNL     1      25.113  48.020  49.550  1.00  0.00     0.076 A 
HETATM   21  C   UNL     1      24.438  48.979  48.791  1.00  0.00     0.037 A 
HETATM   22  C   UNL     1      25.160  49.979  48.137  1.00  0.00     0.003 A 
HETATM   23  C   UNL     1      26.549  50.032  48.261  1.00  0.00     0.000 A 
HETATM   24  C   UNL     1      27.218  49.092  49.047  1.00  0.00     0.003 A 
HETATM   25  C   UNL     1      26.499  48.091  49.698  1.00  0.00     0.037 A 
ENDBRANCH  19  20
ENDBRANCH   2  19
TORSDOF 5
ENDMDL
MODEL 4
REMARK VINA RESULT:      -8.2      2.241      7.034
REMARK  5 active torsions:
REMARK  status: ('A' for Active; 'I' for Inactive)
REMARK    1  A    between atoms: C_2  and  N_3 
REMARK    2  A    between atoms: C_2  and  C_19 
REMARK       I    between atoms: N_3  and  C_4 
REMARK    3  A    between atoms: C_4  and  C_5 
REMARK    4  A    between atoms: C_6  and  O_7 
REMARK    5  A    between atoms: O_7  and  C_8 
ROOT
HETATM    1  C   UNL     1      27.421  42.702  53.012  1.00  0.00     0.065 A 
HETATM    2  C   UNL     1      26.478  42.736  51.978  1.00  0.00     0.091 A 
HETATM    3  C   UNL     1      26.619  41.868  50.886  1.00  0.00     0.038 A 
HETATM    4  C   UNL     1      27.665  40.944  50.850  1.00  0.00     0.003 A 
HETATM    5  C   UNL     1      28.587  40.891  51.893  1.00  0.00     0.001 A 
HETATM    6  C   UNL     1      28.468  41.768  52.973  1.00  0.00     0.020 A 
ENDROOT
BRANCH   1   7
HETATM    7  C   UNL     1      27.307  43.612  54.180  1.00  0.00     0.255 C 
HETATM    8  N   UNL     1      28.266  44.600  54.251  1.00  0.00    -0.348 N 
HETATM    9  H   UNL     1      28.872  44.761  53.456  1.00  0.00     0.163 HD
HETATM   10  O   UNL     1      26.428  43.456  55.019  1.00  0.00    -0.268 OA
BRANCH   8  11
HETATM   11  C   UNL     1      28.254  45.608  55.305  1.00  0.00     0.115 C 
HETATM   12  C   UNL     1      28.279  46.998  54.662  1.00  0.00     0.037 C 
BRANCH  11  13
HETATM   13  C   UNL     1      29.365  45.323  56.298  1.00  0.00    -0.018 A 
HETATM   14  C   UNL     1      29.462  45.927  57.548  1.00  0.00     0.125 A 
HETATM   15  N   UNL     1      30.434  45.665  58.456  1.00  0.00    -0.273 NA
HETATM   16  C   UNL     1      31.357  44.743  58.113  1.00  0.00     0.116 A 
HETATM   17  C   UNL     1      31.355  44.071  56.905  1.00  0.00     0.020 A 
HETATM   18  C   UNL     1      30.344  44.363  55.995  1.00  0.00     0.012 A 
ENDBRANCH  11  13
ENDBRANCH   8  11
ENDBRANCH   1   7
BRANCH   2  19
HETATM   19  O   UNL     1      25.490  43.696  51.993  1.00  0.00    -0.310 OA
BRANCH  19  20
HETATM   20  C   UNL     1      25.807  44.933  51.477  1.00  0.00     0.076 A 
HETATM   21  C   UNL     1      26.365  45.099  50.207  1.00  0.00     0.037 A 
HETATM   22  C   UNL     1      26.648  46.382  49.738  1.00  0.00     0.003 A 
HETATM   23  C   UNL     1      26.353  47.496  50.525  1.00  0.00     0.000 A 
HETATM   24  C   UNL     1      25.765  47.329  51.780  1.00  0.00     0.003 A 
HETATM   25  C   UNL     1      25.484  46.047  52.253  1.00  0.00     0.037 A 
ENDBRANCH  19  20
ENDBRANCH   2  19
TORSDOF 5
ENDMDL
MODEL 5
REMARK VINA RESULT:      -8.0      7.222     10.509
REMARK  5 active torsions:
REMARK  status: ('A' for Active; 'I' for Inactive)
REMARK    1  A    between atoms: C_2  and  N_3 
REMARK    2  A    between atoms: C_2  and  C_19 
REMARK       I    between atoms: N_3  and  C_4 
REMARK    3  A    between atoms: C_4  and  C_5 
REMARK    4  A    between atoms: C_6  and  O_7 
REMARK    5  A    between atoms: O_7  and  C_8 
ROOT
HETATM    1  C   UNL     1      21.976  47.786  48.568  1.00  0.00     0.065 A 
HETATM    2  C   UNL     1      20.683  48.233  48.868  1.00  0.00     0.091 A 
HETATM    3  C   UNL     1      19.606  47.821  48.070  1.00  0.00     0.038 A 
HETATM    4  C   UNL     1      19.813  46.933  47.011  1.00  0.00     0.003 A 
HETATM    5  C   UNL     1      21.095  46.467  46.731  1.00  0.00     0.001 A 
HETATM    6  C   UNL     1      22.176  46.890  47.505  1.00  0.00     0.020 A 
ENDROOT
BRANCH   1   7
HETATM    7  C   UNL     1      23.140  48.208  49.387  1.00  0.00     0.255 C 
HETATM    8  N   UNL     1      23.877  47.179  49.934  1.00  0.00    -0.348 N 
HETATM    9  H   UNL     1      23.703  46.229  49.631  1.00  0.00     0.163 HD
HETATM   10  O   UNL     1      23.389  49.393  49.567  1.00  0.00    -0.268 OA
BRANCH   8  11
HETATM   11  C   UNL     1      25.084  47.429  50.714  1.00  0.00     0.115 C 
HETATM   12  C   UNL     1      26.290  47.435  49.770  1.00  0.00     0.037 C 
BRANCH  11  13
HETATM   13  C   UNL     1      25.159  46.450  51.869  1.00  0.00    -0.018 A 
HETATM   14  C   UNL     1      24.712  45.133  51.802  1.00  0.00     0.125 A 
HETATM   15  N   UNL     1      24.793  44.239  52.816  1.00  0.00    -0.273 NA
HETATM   16  C   UNL     1      25.362  44.667  53.962  1.00  0.00     0.116 A 
HETATM   17  C   UNL     1      25.852  45.946  54.141  1.00  0.00     0.020 A 
HETATM   18  C   UNL     1      25.753  46.841  53.080  1.00  0.00     0.012 A 
ENDBRANCH  11  13
ENDBRANCH   8  11
ENDBRANCH   1   7
BRANCH   2  19
HETATM   19  O   UNL     1      20.503  49.159  49.873  1.00  0.00    -0.310 OA
BRANCH  19  20
HETATM   20  C   UNL     1      19.807  50.304  49.556  1.00  0.00     0.076 A 
HETATM   21  C   UNL     1      20.279  51.242  48.635  1.00  0.00     0.037 A 
HETATM   22  C   UNL     1      19.516  52.374  48.346  1.00  0.00     0.003 A 
HETATM   23  C   UNL     1      18.275  52.556  48.959  1.00  0.00     0.000 A 
HETATM   24  C   UNL     1      17.791  51.600  49.854  1.00  0.00     0.003 A 
HETATM   25  C   UNL     1      18.554  50.470  50.146  1.00  0.00     0.037 A 
ENDBRANCH  19  20
ENDBRANCH   2  19
TORSDOF 5
ENDMDL
MODEL 6
REMARK VINA RESULT:      -8.0      3.578      6.563
REMARK  5 active torsions:
REMARK  status: ('A' for Active; 'I' for Inactive)
REMARK    1  A    between atoms: C_2  and  N_3 
REMARK    2  A    between atoms: C_2  and  C_19 
REMARK       I    between atoms: N_3  and  C_4 
REMARK    3  A    between atoms: C_4  and  C_5 
REMARK    4  A    between atoms: C_6  and  O_7 
REMARK    5  A    between atoms: O_7  and  C_8 
ROOT
HETATM    1  C   UNL     1      27.473  44.557  53.068  1.00  0.00     0.065 A 
HETATM    2  C   UNL     1      28.220  43.720  52.229  1.00  0.00     0.091 A 
HETATM    3  C   UNL     1      29.414  43.157  52.702  1.00  0.00     0.038 A 
HETATM    4  C   UNL     1      29.833  43.390  54.013  1.00  0.00     0.003 A 
HETATM    5  C   UNL     1      29.075  44.199  54.856  1.00  0.00     0.001 A 
HETATM    6  C   UNL     1      27.897  44.783  54.387  1.00  0.00     0.020 A 
ENDROOT
BRANCH   1   7
HETATM    7  C   UNL     1      26.208  45.176  52.599  1.00  0.00     0.255 C 
HETATM    8  N   UNL     1      26.322  45.968  51.476  1.00  0.00    -0.348 N 
HETATM    9  H   UNL     1      27.186  45.956  50.947  1.00  0.00     0.163 HD
HETATM   10  O   UNL     1      25.156  44.999  53.201  1.00  0.00    -0.268 OA
BRANCH   8  11
HETATM   11  C   UNL     1      25.160  46.597  50.858  1.00  0.00     0.115 C 
HETATM   12  C   UNL     1      24.306  45.514  50.192  1.00  0.00     0.037 C 
BRANCH  11  13
HETATM   13  C   UNL     1      25.612  47.727  49.953  1.00  0.00    -0.018 A 
HETATM   14  C   UNL     1      24.740  48.563  49.260  1.00  0.00     0.125 A 
HETATM   15  N   UNL     1      25.127  49.592  48.468  1.00  0.00    -0.273 NA
HETATM   16  C   UNL     1      26.452  49.816  48.363  1.00  0.00     0.116 A 
HETATM   17  C   UNL     1      27.410  49.061  49.012  1.00  0.00     0.020 A 
HETATM   18  C   UNL     1      26.981  48.011  49.818  1.00  0.00     0.012 A 
ENDBRANCH  11  13
ENDBRANCH   8  11
ENDBRANCH   1   7
BRANCH   2  19
HETATM   19  O   UNL     1      27.830  43.553  50.918  1.00  0.00    -0.310 OA
BRANCH  19  20
HETATM   20  C   UNL     1      27.289  42.334  50.573  1.00  0.00     0.076 A 
HETATM   21  C   UNL     1      25.953  42.184  50.194  1.00  0.00     0.037 A 
HETATM   22  C   UNL     1      25.471  40.923  49.841  1.00  0.00     0.003 A 
HETATM   23  C   UNL     1      26.328  39.821  49.845  1.00  0.00     0.000 A 
HETATM   24  C   UNL     1      27.670  39.981  50.193  1.00  0.00     0.003 A 
HETATM   25  C   UNL     1      28.153  41.239  50.549  1.00  0.00     0.037 A 
ENDBRANCH  19  20
ENDBRANCH   2  19
TORSDOF 5
ENDMDL
MODEL 7
REMARK VINA RESULT:      -8.0      5.610      8.598
REMARK  5 active torsions:
REMARK  status: ('A' for Active; 'I' for Inactive)
REMARK    1  A    between atoms: C_2  and  N_3 
REMARK    2  A    between atoms: C_2  and  C_19 
REMARK       I    between atoms: N_3  and  C_4 
REMARK    3  A    between atoms: C_4  and  C_5 
REMARK    4  A    between atoms: C_6  and  O_7 
REMARK    5  A    between atoms: O_7  and  C_8 
ROOT
HETATM    1  C   UNL     1      25.614  48.066  49.886  1.00  0.00     0.065 A 
HETATM    2  C   UNL     1      24.567  48.713  49.218  1.00  0.00     0.091 A 
HETATM    3  C   UNL     1      24.858  49.721  48.288  1.00  0.00     0.038 A 
HETATM    4  C   UNL     1      26.183  50.047  47.993  1.00  0.00     0.003 A 
HETATM    5  C   UNL     1      27.226  49.383  48.636  1.00  0.00     0.001 A 
HETATM    6  C   UNL     1      26.945  48.396  49.582  1.00  0.00     0.020 A 
ENDROOT
BRANCH   1   7
HETATM    7  C   UNL     1      25.343  47.000  50.883  1.00  0.00     0.255 C 
HETATM    8  N   UNL     1      26.179  46.994  51.979  1.00  0.00    -0.348 N 
HETATM    9  H   UNL     1      26.800  47.779  52.133  1.00  0.00     0.163 HD
HETATM   10  O   UNL     1      24.449  46.183  50.706  1.00  0.00    -0.268 OA
BRANCH   8  11
HETATM   11  C   UNL     1      26.004  46.047  53.075  1.00  0.00     0.115 C 
HETATM   12  C   UNL     1      25.893  46.826  54.389  1.00  0.00     0.037 C 
BRANCH  11  13
HETATM   13  C   UNL     1      27.096  44.997  53.023  1.00  0.00    -0.018 A 
HETATM   14  C   UNL     1      27.295  44.136  51.947  1.00  0.00     0.125 A 
HETATM   15  N   UNL     1      28.280  43.209  51.875  1.00  0.00    -0.273 NA
HETATM   16  C   UNL     1      29.128  43.136  52.921  1.00  0.00     0.116 A 
HETATM   17  C   UNL     1      29.036  43.946  54.037  1.00  0.00     0.020 A 
HETATM   18  C   UNL     1      28.012  44.888  54.081  1.00  0.00     0.012 A 
ENDBRANCH  11  13
ENDBRANCH   8  11
ENDBRANCH   1   7
BRANCH   2  19
HETATM   19  O   UNL     1      23.264  48.428  49.567  1.00  0.00    -0.310 OA
BRANCH  19  20
HETATM   20  C   UNL     1      22.281  49.239  49.044  1.00  0.00     0.076 A 
HETATM   21  C   UNL     1      21.553  48.898  47.902  1.00  0.00     0.037 A 
HETATM   22  C   UNL     1      20.558  49.759  47.433  1.00  0.00     0.003 A 
HETATM   23  C   UNL     1      20.279  50.943  48.117  1.00  0.00     0.000 A 
HETATM   24  C   UNL     1      20.987  51.264  49.276  1.00  0.00     0.003 A 
HETATM   25  C   UNL     1      21.983  50.408  49.745  1.00  0.00     0.037 A 
ENDBRANCH  19  20
ENDBRANCH   2  19
TORSDOF 5
ENDMDL
MODEL 8
REMARK VINA RESULT:      -7.9      3.100      4.875
REMARK  5 active torsions:
REMARK  status: ('A' for Active; 'I' for Inactive)
REMARK    1  A    between atoms: C_2  and  N_3 
REMARK    2  A    between atoms: C_2  and  C_19 
REMARK       I    between atoms: N_3  and  C_4 
REMARK    3  A    between atoms: C_4  and  C_5 
REMARK    4  A    between atoms: C_6  and  O_7 
REMARK    5  A    between atoms: O_7  and  C_8 
ROOT
HETATM    1  C   UNL     1      27.260  43.337  52.784  1.00  0.00     0.065 A 
HETATM    2  C   UNL     1      28.397  43.907  53.369  1.00  0.00     0.091 A 
HETATM    3  C   UNL     1      29.554  43.132  53.531  1.00  0.00     0.038 A 
HETATM    4  C   UNL     1      29.589  41.813  53.072  1.00  0.00     0.003 A 
HETATM    5  C   UNL     1      28.466  41.255  52.465  1.00  0.00     0.001 A 
HETATM    6  C   UNL     1      27.303  42.012  52.320  1.00  0.00     0.020 A 
ENDROOT
BRANCH   1   7
HETATM    7  C   UNL     1      26.015  44.126  52.603  1.00  0.00     0.255 C 
HETATM    8  N   UNL     1      25.935  44.834  51.423  1.00  0.00    -0.348 N 
HETATM    9  H   UNL     1      26.616  44.660  50.693  1.00  0.00     0.163 HD
HETATM   10  O   UNL     1      25.149  44.147  53.468  1.00  0.00    -0.268 OA
BRANCH   8  11
HETATM   11  C   UNL     1      24.751  45.610  51.071  1.00  0.00     0.115 C 
HETATM   12  C   UNL     1      23.756  44.694  50.351  1.00  0.00     0.037 C 
BRANCH  11  13
HETATM   13  C   UNL     1      25.163  46.858  50.314  1.00  0.00    -0.018 A 
HETATM   14  C   UNL     1      24.269  47.831  49.877  1.00  0.00     0.125 A 
HETATM   15  N   UNL     1      24.624  48.963  49.221  1.00  0.00    -0.273 NA
HETATM   16  C   UNL     1      25.940  49.150  48.996  1.00  0.00     0.116 A 
HETATM   17  C   UNL     1      26.919  48.260  49.393  1.00  0.00     0.020 A 
HETATM   18  C   UNL     1      26.523  47.106  50.064  1.00  0.00     0.012 A 
ENDBRANCH  11  13
ENDBRANCH   8  11
ENDBRANCH   1   7
BRANCH   2  19
HETATM   19  O   UNL     1      28.327  45.186  53.877  1.00  0.00    -0.310 OA
BRANCH  19  20
HETATM   20  C   UNL     1      28.804  45.382  55.154  1.00  0.00     0.076 A 
HETATM   21  C   UNL     1      30.052  44.915  55.572  1.00  0.00     0.037 A 
HETATM   22  C   UNL     1      30.482  45.163  56.877  1.00  0.00     0.003 A 
HETATM   23  C   UNL     1      29.677  45.893  57.752  1.00  0.00     0.000 A 
HETATM   24  C   UNL     1      28.444  46.386  57.321  1.00  0.00     0.003 A 
HETATM   25  C   UNL     1      28.011  46.138  56.019  1.00  0.00     0.037 A 
ENDBRANCH  19  20
ENDBRANCH   2  19
TORSDOF 5
ENDMDL
MODEL 9
REMARK VINA RESULT:      -7.8     13.303     15.621
REMARK  5 active torsions:
REMARK  status: ('A' for Active; 'I' for Inactive)
REMARK    1  A    between atoms: C_2  and  N_3 
REMARK    2  A    between atoms: C_2  and  C_19 
REMARK       I    between atoms: N_3  and  C_4 
REMARK    3  A    between atoms: C_4  and  C_5 
REMARK    4  A    between atoms: C_6  and  O_7 
REMARK    5  A    between atoms: O_7  and  C_8 
ROOT
HETATM    1  C   UNL     1      27.501  50.116  39.645  1.00  0.00     0.065 A 
HETATM    2  C   UNL     1      27.659  48.780  40.033  1.00  0.00     0.091 A 
HETATM    3  C   UNL     1      27.166  47.758  39.209  1.00  0.00     0.038 A 
HETATM    4  C   UNL     1      26.563  48.066  37.987  1.00  0.00     0.003 A 
HETATM    5  C   UNL     1      26.431  49.395  37.589  1.00  0.00     0.001 A 
HETATM    6  C   UNL     1      26.897  50.420  38.414  1.00  0.00     0.020 A 
ENDROOT
BRANCH   1   7
HETATM    7  C   UNL     1      28.003  51.224  40.496  1.00  0.00     0.255 C 
HETATM    8  N   UNL     1      29.341  51.522  40.343  1.00  0.00    -0.348 N 
HETATM    9  H   UNL     1      29.856  51.110  39.575  1.00  0.00     0.163 HD
HETATM   10  O   UNL     1      27.265  51.798  41.286  1.00  0.00    -0.268 OA
BRANCH   8  11
HETATM   11  C   UNL     1      29.970  52.623  41.064  1.00  0.00     0.115 C 
HETATM   12  C   UNL     1      29.872  53.893  40.212  1.00  0.00     0.037 C 
BRANCH  11  13
HETATM   13  C   UNL     1      31.370  52.223  41.488  1.00  0.00    -0.018 A 
HETATM   14  C   UNL     1      31.799  52.184  42.812  1.00  0.00     0.125 A 
HETATM   15  N   UNL     1      33.037  51.805  43.209  1.00  0.00    -0.273 NA
HETATM   16  C   UNL     1      33.900  51.431  42.243  1.00  0.00     0.116 A 
HETATM   17  C   UNL     1      33.584  51.419  40.897  1.00  0.00     0.020 A 
HETATM   18  C   UNL     1      32.303  51.813  40.522  1.00  0.00     0.012 A 
ENDBRANCH  11  13
ENDBRANCH   8  11
ENDBRANCH   1   7
BRANCH   2  19
HETATM   19  O   UNL     1      28.196  48.493  41.269  1.00  0.00    -0.310 OA
BRANCH  19  20
HETATM   20  C   UNL     1      29.565  48.363  41.346  1.00  0.00     0.076 A 
HETATM   21  C   UNL     1      30.293  48.728  42.481  1.00  0.00     0.037 A 
HETATM   22  C   UNL     1      31.678  48.555  42.499  1.00  0.00     0.003 A 
HETATM   23  C   UNL     1      32.328  47.999  41.396  1.00  0.00     0.000 A 
HETATM   24  C   UNL     1      31.593  47.605  40.277  1.00  0.00     0.003 A 
HETATM   25  C   UNL     1      30.210  47.780  40.255  1.00  0.00     0.037 A 
ENDBRANCH  19  20
ENDBRANCH   2  19
TORSDOF 5
ENDMDL
MODEL 10
REMARK VINA RESULT:      -7.8      2.536      6.068
REMARK  5 active torsions:
REMARK  status: ('A' for Active; 'I' for Inactive)
REMARK    1  A    between atoms: C_2  and  N_3 
REMARK    2  A    between atoms: C_2  and  C_19 
REMARK       I    between atoms: N_3  and  C_4 
REMARK    3  A    between atoms: C_4  and  C_5 
REMARK    4  A    between atoms: C_6  and  O_7 
REMARK    5  A    between atoms: O_7  and  C_8 
ROOT
HETATM    1  C   UNL     1      25.919  45.933  52.293  1.00  0.00     0.065 A 
HETATM    2  C   UNL     1      26.116  44.695  51.667  1.00  0.00     0.091 A 
HETATM    3  C   UNL     1      26.113  44.620  50.267  1.00  0.00     0.038 A 
HETATM    4  C   UNL     1      25.961  45.776  49.499  1.00  0.00     0.003 A 
HETATM    5  C   UNL     1      25.794  47.011  50.122  1.00  0.00     0.001 A 
HETATM    6  C   UNL     1      25.772  47.093  51.515  1.00  0.00     0.020 A 
ENDROOT
BRANCH   1   7
HETATM    7  C   UNL     1      25.909  46.049  53.772  1.00  0.00     0.255 C 
HETATM    8  N   UNL     1      26.972  46.740  54.315  1.00  0.00    -0.348 N 
HETATM    9  H   UNL     1      27.590  47.258  53.703  1.00  0.00     0.163 HD
HETATM   10  O   UNL     1      25.020  45.536  54.440  1.00  0.00    -0.268 OA
BRANCH   8  11
HETATM   11  C   UNL     1      27.074  46.991  55.748  1.00  0.00     0.115 C 
HETATM   12  C   UNL     1      26.934  48.495  55.998  1.00  0.00     0.037 C 
BRANCH  11  13
HETATM   13  C   UNL     1      28.336  46.349  56.291  1.00  0.00    -0.018 A 
HETATM   14  C   UNL     1      29.322  45.776  55.492  1.00  0.00     0.125 A 
HETATM   15  N   UNL     1      30.466  45.220  55.960  1.00  0.00    -0.273 NA
HETATM   16  C   UNL     1      30.654  45.244  57.295  1.00  0.00     0.116 A 
HETATM   17  C   UNL     1      29.752  45.796  58.185  1.00  0.00     0.020 A 
HETATM   18  C   UNL     1      28.586  46.358  57.673  1.00  0.00     0.012 A 
ENDBRANCH  11  13
ENDBRANCH   8  11
ENDBRANCH   1   7
BRANCH   2  19
HETATM   19  O   UNL     1      26.198  43.554  52.436  1.00  0.00    -0.310 OA
BRANCH  19  20
HETATM   20  C   UNL     1      27.452  43.025  52.646  1.00  0.00     0.076 A 
HETATM   21  C   UNL     1      28.618  43.788  52.545  1.00  0.00     0.037 A 
HETATM   22  C   UNL     1      29.857  43.193  52.786  1.00  0.00     0.003 A 
HETATM   23  C   UNL     1      29.928  41.847  53.148  1.00  0.00     0.000 A 
HETATM   24  C   UNL     1      28.759  41.096  53.279  1.00  0.00     0.003 A 
HETATM   25  C   UNL     1      27.520  41.687  53.036  1.00  0.00     0.037 A 
ENDBRANCH  19  20
ENDBRANCH   2  19
TORSDOF 5
ENDMDL
