MODEL 1
REMARK VINA RESULT:      -7.0      0.000      0.000
REMARK  10 active torsions:
REMARK  status: ('A' for Active; 'I' for Inactive)
REMARK    1  A    between atoms: C_6  and  C_7 
REMARK    2  A    between atoms: C_7  and  C_8 
REMARK       I    between atoms: C_8  and  N_9 
REMARK    3  A    between atoms: N_9  and  C_10 
REMARK    4  A    between atoms: C_10  and  C_11 
REMARK    5  A    between atoms: C_11  and  N_12 
REMARK    6  A    between atoms: C_17  and  C_18 
REMARK    7  A    between atoms: C_27  and  C_28 
REMARK    8  A    between atoms: C_28  and  O_29 
REMARK    9  A    between atoms: O_29  and  C_30 
REMARK   10  A    between atoms: C_30  and  C_31 
ROOT
HETATM    1  C   UNL     1      16.807  47.501  44.912  1.00  0.00     0.071 C 
HETATM    2  C   UNL     1      17.264  48.692  45.715  1.00  0.00     0.048 C 
HETATM    3  N   UNL     1      17.533  49.829  44.950  1.00  0.00    -0.229 NA
HETATM    4  C   UNL     1      17.383  50.959  45.555  1.00  0.00     0.170 C 
HETATM    5  N   UNL     1      17.086  51.061  47.073  1.00  0.00    -0.318 N 
HETATM    6  C   UNL     1      16.190  51.962  47.288  1.00  0.00     0.011 C 
HETATM    7  C   UNL     1      17.714  49.951  47.809  1.00  0.00     0.169 C 
HETATM    8  S   UNL     1      17.138  52.488  44.791  1.00  0.00    -0.086 SA
HETATM    9  C   UNL     1      16.027  52.979  46.168  1.00  0.00     0.135 C 
HETATM   10  C   UNL     1      17.294  48.726  47.064  1.00  0.00     0.069 C 
ENDROOT
BRANCH   6  11
HETATM   11  C   UNL     1      15.303  51.902  48.497  1.00  0.00     0.156 C 
BRANCH  11  12
HETATM   12  C   UNL     1      15.010  53.298  49.022  1.00  0.00     0.223 C 
HETATM   13  N   UNL     1      15.688  53.695  50.142  1.00  0.00    -0.359 N 
HETATM   14  H   UNL     1      16.395  53.090  50.563  1.00  0.00     0.162 HD
HETATM   15  O   UNL     1      14.138  53.998  48.510  1.00  0.00    -0.273 OA
BRANCH  13  16
HETATM   16  C   UNL     1      15.304  54.876  50.933  1.00  0.00     0.150 C 
BRANCH  16  17
HETATM   17  C   UNL     1      14.049  54.726  51.828  1.00  0.00     0.253 C 
BRANCH  17  18
HETATM   18  N   UNL     1      14.228  55.328  53.209  1.00  0.00    -0.077 N 
HETATM   19  H   UNL     1      14.434  54.544  53.860  1.00  0.00     0.279 HD
HETATM   20  C   UNL     1      15.399  56.265  53.324  1.00  0.00     0.269 C 
HETATM   21  C   UNL     1      12.969  55.981  53.711  1.00  0.00     0.269 C 
ENDBRANCH  17  18
ENDBRANCH  16  17
ENDBRANCH  13  16
ENDBRANCH  11  12
ENDBRANCH   6  11
BRANCH   7  22
HETATM   22  C   UNL     1      19.218  50.189  47.959  1.00  0.00     0.008 A 
HETATM   23  C   UNL     1      19.749  51.339  48.572  1.00  0.00     0.125 A 
HETATM   24  F   UNL     1      18.938  52.298  49.031  1.00  0.00    -0.205 F 
HETATM   25  C   UNL     1      21.119  51.527  48.733  1.00  0.00     0.043 A 
HETATM   26  C   UNL     1      22.008  50.570  48.260  1.00  0.00     0.003 A 
HETATM   27  C   UNL     1      21.522  49.438  47.612  1.00  0.00     0.001 A 
HETATM   28  C   UNL     1      20.144  49.252  47.450  1.00  0.00     0.013 A 
ENDBRANCH   7  22
BRANCH  10  29
HETATM   29  C   UNL     1      16.565  47.793  47.930  1.00  0.00     0.294 C 
HETATM   30  O   UNL     1      15.367  47.982  48.114  1.00  0.00    -0.259 OA
BRANCH  29  31
HETATM   31  O   UNL     1      17.423  47.036  48.627  1.00  0.00    -0.313 OA
BRANCH  31  32
HETATM   32  C   UNL     1      17.786  45.785  48.021  1.00  0.00     0.217 C 
BRANCH  32  33
HETATM   33  C   UNL     1      19.244  45.762  47.665  1.00  0.00    -0.034 A 
HETATM   34  C   UNL     1      19.639  45.836  46.322  1.00  0.00     0.009 A 
HETATM   35  C   UNL     1      20.993  45.852  45.987  1.00  0.00     0.001 A 
HETATM   36  C   UNL     1      21.961  45.789  46.987  1.00  0.00     0.000 A 
HETATM   37  C   UNL     1      21.578  45.704  48.325  1.00  0.00     0.001 A 
HETATM   38  C   UNL     1      20.224  45.688  48.663  1.00  0.00     0.009 A 
ENDBRANCH  32  33
ENDBRANCH  31  32
ENDBRANCH  29  31
ENDBRANCH  10  29
TORSDOF 10
ENDMDL
MODEL 2
REMARK VINA RESULT:      -7.0      3.207      5.587
REMARK  10 active torsions:
REMARK  status: ('A' for Active; 'I' for Inactive)
REMARK    1  A    between atoms: C_6  and  C_7 
REMARK    2  A    between atoms: C_7  and  C_8 
REMARK       I    between atoms: C_8  and  N_9 
REMARK    3  A    between atoms: N_9  and  C_10 
REMARK    4  A    between atoms: C_10  and  C_11 
REMARK    5  A    between atoms: C_11  and  N_12 
REMARK    6  A    between atoms: C_17  and  C_18 
REMARK    7  A    between atoms: C_27  and  C_28 
REMARK    8  A    between atoms: C_28  and  O_29 
REMARK    9  A    between atoms: O_29  and  C_30 
REMARK   10  A    between atoms: C_30  and  C_31 
ROOT
HETATM    1  C   UNL     1      19.337  49.483  50.854  1.00  0.00     0.071 C 
HETATM    2  C   UNL     1      19.503  48.715  49.568  1.00  0.00     0.048 C 
HETATM    3  N   UNL     1      18.572  47.689  49.389  1.00  0.00    -0.229 NA
HETATM    4  C   UNL     1      18.302  47.386  48.165  1.00  0.00     0.170 C 
HETATM    5  N   UNL     1      19.071  47.994  46.963  1.00  0.00    -0.318 N 
HETATM    6  C   UNL     1      18.246  48.302  46.022  1.00  0.00     0.011 C 
HETATM    7  C   UNL     1      20.471  48.276  47.322  1.00  0.00     0.169 C 
HETATM    8  S   UNL     1      16.882  46.568  47.617  1.00  0.00    -0.086 SA
HETATM    9  C   UNL     1      16.905  47.588  46.090  1.00  0.00     0.135 C 
HETATM   10  C   UNL     1      20.380  49.048  48.598  1.00  0.00     0.069 C 
ENDROOT
BRANCH   6  11
HETATM   11  C   UNL     1      18.568  49.385  45.033  1.00  0.00     0.156 C 
BRANCH  11  12
HETATM   12  C   UNL     1      17.573  50.528  45.141  1.00  0.00     0.223 C 
HETATM   13  N   UNL     1      17.536  51.209  46.328  1.00  0.00    -0.359 N 
HETATM   14  H   UNL     1      18.193  50.982  47.077  1.00  0.00     0.162 HD
HETATM   15  O   UNL     1      16.779  50.768  44.233  1.00  0.00    -0.273 OA
BRANCH  13  16
HETATM   16  C   UNL     1      16.444  52.126  46.691  1.00  0.00     0.150 C 
BRANCH  16  17
HETATM   17  C   UNL     1      15.872  51.982  48.124  1.00  0.00     0.253 C 
BRANCH  17  18
HETATM   18  N   UNL     1      16.455  52.986  49.101  1.00  0.00    -0.077 N 
HETATM   19  H   UNL     1      16.625  53.863  48.572  1.00  0.00     0.279 HD
HETATM   20  C   UNL     1      15.524  53.365  50.220  1.00  0.00     0.269 C 
HETATM   21  C   UNL     1      17.788  52.544  49.639  1.00  0.00     0.269 C 
ENDBRANCH  17  18
ENDBRANCH  16  17
ENDBRANCH  13  16
ENDBRANCH  11  12
ENDBRANCH   6  11
BRANCH   7  22
HETATM   22  C   UNL     1      21.288  46.982  47.353  1.00  0.00     0.008 A 
HETATM   23  C   UNL     1      21.441  46.152  46.227  1.00  0.00     0.125 A 
HETATM   24  F   UNL     1      20.840  46.459  45.072  1.00  0.00    -0.205 F 
HETATM   25  C   UNL     1      22.215  44.996  46.259  1.00  0.00     0.043 A 
HETATM   26  C   UNL     1      22.849  44.620  47.436  1.00  0.00     0.003 A 
HETATM   27  C   UNL     1      22.688  45.395  48.582  1.00  0.00     0.001 A 
HETATM   28  C   UNL     1      21.907  46.556  48.548  1.00  0.00     0.013 A 
ENDBRANCH   7  22
BRANCH  10  29
HETATM   29  C   UNL     1      21.015  50.365  48.475  1.00  0.00     0.294 C 
HETATM   30  O   UNL     1      20.466  51.215  47.780  1.00  0.00    -0.259 OA
BRANCH  29  31
HETATM   31  O   UNL     1      22.276  50.319  48.925  1.00  0.00    -0.313 OA
BRANCH  31  32
HETATM   32  C   UNL     1      23.299  50.336  47.917  1.00  0.00     0.217 C 
BRANCH  32  33
HETATM   33  C   UNL     1      24.553  49.678  48.412  1.00  0.00    -0.034 A 
HETATM   34  C   UNL     1      25.805  50.152  47.998  1.00  0.00     0.009 A 
HETATM   35  C   UNL     1      26.975  49.568  48.482  1.00  0.00     0.001 A 
HETATM   36  C   UNL     1      26.905  48.504  49.379  1.00  0.00     0.000 A 
HETATM   37  C   UNL     1      25.665  48.018  49.790  1.00  0.00     0.001 A 
HETATM   38  C   UNL     1      24.493  48.601  49.306  1.00  0.00     0.009 A 
ENDBRANCH  32  33
ENDBRANCH  31  32
ENDBRANCH  29  31
ENDBRANCH  10  29
TORSDOF 10
ENDMDL
MODEL 3
REMARK VINA RESULT:      -6.9      4.576      7.393
REMARK  10 active torsions:
REMARK  status: ('A' for Active; 'I' for Inactive)
REMARK    1  A    between atoms: C_6  and  C_7 
REMARK    2  A    between atoms: C_7  and  C_8 
REMARK       I    between atoms: C_8  and  N_9 
REMARK    3  A    between atoms: N_9  and  C_10 
REMARK    4  A    between atoms: C_10  and  C_11 
REMARK    5  A    between atoms: C_11  and  N_12 
REMARK    6  A    between atoms: C_17  and  C_18 
REMARK    7  A    between atoms: C_27  and  C_28 
REMARK    8  A    between atoms: C_28  and  O_29 
REMARK    9  A    between atoms: O_29  and  C_30 
REMARK   10  A    between atoms: C_30  and  C_31 
ROOT
HETATM    1  C   UNL     1      20.026  45.189  48.834  1.00  0.00     0.071 C 
HETATM    2  C   UNL     1      19.634  46.586  48.427  1.00  0.00     0.048 C 
HETATM    3  N   UNL     1      19.051  47.339  49.449  1.00  0.00    -0.229 NA
HETATM    4  C   UNL     1      19.203  48.617  49.359  1.00  0.00     0.170 C 
HETATM    5  N   UNL     1      19.843  49.298  48.122  1.00  0.00    -0.318 N 
HETATM    6  C   UNL     1      20.647  50.232  48.499  1.00  0.00     0.011 C 
HETATM    7  C   UNL     1      19.552  48.540  46.894  1.00  0.00     0.169 C 
HETATM    8  S   UNL     1      19.067  49.743  50.662  1.00  0.00    -0.086 SA
HETATM    9  C   UNL     1      20.408  50.748  49.910  1.00  0.00     0.135 C 
HETATM   10  C   UNL     1      19.926  47.132  47.228  1.00  0.00     0.069 C 
ENDROOT
BRANCH   6  11
HETATM   11  C   UNL     1      21.799  50.658  47.637  1.00  0.00     0.156 C 
BRANCH  11  12
HETATM   12  C   UNL     1      23.026  49.806  47.917  1.00  0.00     0.223 C 
HETATM   13  N   UNL     1      22.903  48.835  48.873  1.00  0.00    -0.359 N 
HETATM   14  H   UNL     1      22.004  48.667  49.330  1.00  0.00     0.162 HD
HETATM   15  O   UNL     1      24.102  50.042  47.369  1.00  0.00    -0.273 OA
BRANCH  13  16
HETATM   16  C   UNL     1      24.058  48.140  49.462  1.00  0.00     0.150 C 
BRANCH  16  17
HETATM   17  C   UNL     1      23.941  46.601  49.599  1.00  0.00     0.253 C 
BRANCH  17  18
HETATM   18  N   UNL     1      24.984  46.005  50.525  1.00  0.00    -0.077 N 
HETATM   19  H   UNL     1      25.723  45.588  49.925  1.00  0.00     0.279 HD
HETATM   20  C   UNL     1      25.688  47.015  51.388  1.00  0.00     0.269 C 
HETATM   21  C   UNL     1      24.427  44.884  51.359  1.00  0.00     0.269 C 
ENDBRANCH  17  18
ENDBRANCH  16  17
ENDBRANCH  13  16
ENDBRANCH  11  12
ENDBRANCH   6  11
BRANCH   7  22
HETATM   22  C   UNL     1      18.110  48.784  46.441  1.00  0.00     0.008 A 
HETATM   23  C   UNL     1      17.732  49.905  45.680  1.00  0.00     0.125 A 
HETATM   24  F   UNL     1      18.635  50.832  45.343  1.00  0.00    -0.205 F 
HETATM   25  C   UNL     1      16.423  50.098  45.245  1.00  0.00     0.043 A 
HETATM   26  C   UNL     1      15.441  49.175  45.580  1.00  0.00     0.003 A 
HETATM   27  C   UNL     1      15.769  48.073  46.366  1.00  0.00     0.001 A 
HETATM   28  C   UNL     1      17.085  47.883  46.803  1.00  0.00     0.013 A 
ENDBRANCH   7  22
BRANCH  10  29
HETATM   29  C   UNL     1      20.951  46.617  46.313  1.00  0.00     0.294 C 
HETATM   30  O   UNL     1      22.129  46.718  46.640  1.00  0.00    -0.259 OA
BRANCH  29  31
HETATM   31  O   UNL     1      20.422  46.378  45.106  1.00  0.00    -0.313 OA
BRANCH  31  32
HETATM   32  C   UNL     1      19.606  45.200  45.004  1.00  0.00     0.217 C 
BRANCH  32  33
HETATM   33  C   UNL     1      18.267  45.522  44.408  1.00  0.00    -0.034 A 
HETATM   34  C   UNL     1      18.137  46.592  43.513  1.00  0.00     0.009 A 
HETATM   35  C   UNL     1      16.903  46.874  42.928  1.00  0.00     0.001 A 
HETATM   36  C   UNL     1      15.789  46.095  43.236  1.00  0.00     0.000 A 
HETATM   37  C   UNL     1      15.906  45.036  44.135  1.00  0.00     0.001 A 
HETATM   38  C   UNL     1      17.139  44.751  44.721  1.00  0.00     0.009 A 
ENDBRANCH  32  33
ENDBRANCH  31  32
ENDBRANCH  29  31
ENDBRANCH  10  29
TORSDOF 10
ENDMDL
MODEL 4
REMARK VINA RESULT:      -6.8      3.505      6.417
REMARK  10 active torsions:
REMARK  status: ('A' for Active; 'I' for Inactive)
REMARK    1  A    between atoms: C_6  and  C_7 
REMARK    2  A    between atoms: C_7  and  C_8 
REMARK       I    between atoms: C_8  and  N_9 
REMARK    3  A    between atoms: N_9  and  C_10 
REMARK    4  A    between atoms: C_10  and  C_11 
REMARK    5  A    between atoms: C_11  and  N_12 
REMARK    6  A    between atoms: C_17  and  C_18 
REMARK    7  A    between atoms: C_27  and  C_28 
REMARK    8  A    between atoms: C_28  and  O_29 
REMARK    9  A    between atoms: O_29  and  C_30 
REMARK   10  A    between atoms: C_30  and  C_31 
ROOT
HETATM    1  C   UNL     1      18.835  50.845  42.844  1.00  0.00     0.071 C 
HETATM    2  C   UNL     1      17.941  51.028  44.042  1.00  0.00     0.048 C 
HETATM    3  N   UNL     1      17.286  52.261  44.086  1.00  0.00    -0.229 NA
HETATM    4  C   UNL     1      16.158  52.274  44.712  1.00  0.00     0.170 C 
HETATM    5  N   UNL     1      15.631  51.054  45.511  1.00  0.00    -0.318 N 
HETATM    6  C   UNL     1      14.371  50.895  45.292  1.00  0.00     0.011 C 
HETATM    7  C   UNL     1      16.744  50.282  46.088  1.00  0.00     0.169 C 
HETATM    8  S   UNL     1      14.907  53.448  44.513  1.00  0.00    -0.086 SA
HETATM    9  C   UNL     1      13.654  52.129  44.767  1.00  0.00     0.135 C 
HETATM   10  C   UNL     1      17.675  50.057  44.941  1.00  0.00     0.069 C 
ENDROOT
BRANCH   6  11
HETATM   11  C   UNL     1      13.724  49.547  45.428  1.00  0.00     0.156 C 
BRANCH  11  12
HETATM   12  C   UNL     1      13.300  49.013  44.070  1.00  0.00     0.223 C 
HETATM   13  N   UNL     1      12.050  48.461  43.983  1.00  0.00    -0.359 N 
HETATM   14  H   UNL     1      11.424  48.465  44.790  1.00  0.00     0.162 HD
HETATM   15  O   UNL     1      14.081  49.000  43.120  1.00  0.00    -0.273 OA
BRANCH  13  16
HETATM   16  C   UNL     1      11.614  47.644  42.840  1.00  0.00     0.150 C 
BRANCH  16  17
HETATM   17  C   UNL     1      12.048  46.156  42.850  1.00  0.00     0.253 C 
BRANCH  17  18
HETATM   18  N   UNL     1      13.526  45.966  42.567  1.00  0.00    -0.077 N 
HETATM   19  H   UNL     1      13.978  46.897  42.663  1.00  0.00     0.279 HD
HETATM   20  C   UNL     1      14.230  45.073  43.552  1.00  0.00     0.269 C 
HETATM   21  C   UNL     1      13.779  45.510  41.156  1.00  0.00     0.269 C 
ENDBRANCH  17  18
ENDBRANCH  16  17
ENDBRANCH  13  16
ENDBRANCH  11  12
ENDBRANCH   6  11
BRANCH   7  22
HETATM   22  C   UNL     1      17.315  50.997  47.314  1.00  0.00     0.008 A 
HETATM   23  C   UNL     1      16.592  51.150  48.511  1.00  0.00     0.125 A 
HETATM   24  F   UNL     1      15.340  50.688  48.610  1.00  0.00    -0.205 F 
HETATM   25  C   UNL     1      17.135  51.773  49.631  1.00  0.00     0.043 A 
HETATM   26  C   UNL     1      18.425  52.286  49.578  1.00  0.00     0.003 A 
HETATM   27  C   UNL     1      19.157  52.190  48.398  1.00  0.00     0.001 A 
HETATM   28  C   UNL     1      18.608  51.564  47.273  1.00  0.00     0.013 A 
ENDBRANCH   7  22
BRANCH  10  29
HETATM   29  C   UNL     1      17.899  48.627  44.703  1.00  0.00     0.294 C 
HETATM   30  O   UNL     1      16.963  47.952  44.284  1.00  0.00    -0.259 OA
BRANCH  29  31
HETATM   31  O   UNL     1      19.043  48.231  45.276  1.00  0.00    -0.313 OA
BRANCH  31  32
HETATM   32  C   UNL     1      18.924  47.180  46.247  1.00  0.00     0.217 C 
BRANCH  32  33
HETATM   33  C   UNL     1      18.994  47.726  47.643  1.00  0.00    -0.034 A 
HETATM   34  C   UNL     1      17.899  47.590  48.507  1.00  0.00     0.009 A 
HETATM   35  C   UNL     1      17.971  48.063  49.816  1.00  0.00     0.001 A 
HETATM   36  C   UNL     1      19.134  48.681  50.272  1.00  0.00     0.000 A 
HETATM   37  C   UNL     1      20.225  48.832  49.418  1.00  0.00     0.001 A 
HETATM   38  C   UNL     1      20.155  48.359  48.108  1.00  0.00     0.009 A 
ENDBRANCH  32  33
ENDBRANCH  31  32
ENDBRANCH  29  31
ENDBRANCH  10  29
TORSDOF 10
ENDMDL
MODEL 5
REMARK VINA RESULT:      -6.7      3.438      6.592
REMARK  10 active torsions:
REMARK  status: ('A' for Active; 'I' for Inactive)
REMARK    1  A    between atoms: C_6  and  C_7 
REMARK    2  A    between atoms: C_7  and  C_8 
REMARK       I    between atoms: C_8  and  N_9 
REMARK    3  A    between atoms: N_9  and  C_10 
REMARK    4  A    between atoms: C_10  and  C_11 
REMARK    5  A    between atoms: C_11  and  N_12 
REMARK    6  A    between atoms: C_17  and  C_18 
REMARK    7  A    between atoms: C_27  and  C_28 
REMARK    8  A    between atoms: C_28  and  O_29 
REMARK    9  A    between atoms: O_29  and  C_30 
REMARK   10  A    between atoms: C_30  and  C_31 
ROOT
HETATM    1  C   UNL     1      18.780  50.817  43.028  1.00  0.00     0.071 C 
HETATM    2  C   UNL     1      17.819  50.835  44.189  1.00  0.00     0.048 C 
HETATM    3  N   UNL     1      16.810  51.795  44.083  1.00  0.00    -0.229 NA
HETATM    4  C   UNL     1      15.707  51.518  44.693  1.00  0.00     0.170 C 
HETATM    5  N   UNL     1      15.553  50.286  45.622  1.00  0.00    -0.318 N 
HETATM    6  C   UNL     1      14.417  49.714  45.411  1.00  0.00     0.011 C 
HETATM    7  C   UNL     1      16.824  49.971  46.295  1.00  0.00     0.169 C 
HETATM    8  S   UNL     1      14.162  52.208  44.348  1.00  0.00    -0.086 SA
HETATM    9  C   UNL     1      13.374  50.595  44.740  1.00  0.00     0.135 C 
HETATM   10  C   UNL     1      17.830  49.932  45.191  1.00  0.00     0.069 C 
ENDROOT
BRANCH   6  11
HETATM   11  C   UNL     1      14.219  48.254  45.695  1.00  0.00     0.156 C 
BRANCH  11  12
HETATM   12  C   UNL     1      14.946  47.401  44.669  1.00  0.00     0.223 C 
HETATM   13  N   UNL     1      15.497  46.229  45.114  1.00  0.00    -0.359 N 
HETATM   14  H   UNL     1      15.369  45.930  46.082  1.00  0.00     0.162 HD
HETATM   15  O   UNL     1      15.105  47.794  43.514  1.00  0.00    -0.273 OA
BRANCH  13  16
HETATM   16  C   UNL     1      16.472  45.455  44.329  1.00  0.00     0.150 C 
BRANCH  16  17
HETATM   17  C   UNL     1      16.874  44.072  44.902  1.00  0.00     0.253 C 
BRANCH  17  18
HETATM   18  N   UNL     1      18.321  44.013  45.352  1.00  0.00    -0.077 N 
HETATM   19  H   UNL     1      18.586  43.010  45.397  1.00  0.00     0.279 HD
HETATM   20  C   UNL     1      19.290  44.642  44.389  1.00  0.00     0.269 C 
HETATM   21  C   UNL     1      18.507  44.569  46.737  1.00  0.00     0.269 C 
ENDBRANCH  17  18
ENDBRANCH  16  17
ENDBRANCH  13  16
ENDBRANCH  11  12
ENDBRANCH   6  11
BRANCH   7  22
HETATM   22  C   UNL     1      17.086  50.956  47.436  1.00  0.00     0.008 A 
HETATM   23  C   UNL     1      16.295  51.002  48.599  1.00  0.00     0.125 A 
HETATM   24  F   UNL     1      15.245  50.184  48.737  1.00  0.00    -0.205 F 
HETATM   25  C   UNL     1      16.564  51.880  49.645  1.00  0.00     0.043 A 
HETATM   26  C   UNL     1      17.633  52.763  49.548  1.00  0.00     0.003 A 
HETATM   27  C   UNL     1      18.413  52.775  48.395  1.00  0.00     0.001 A 
HETATM   28  C   UNL     1      18.139  51.892  47.344  1.00  0.00     0.013 A 
ENDBRANCH   7  22
BRANCH  10  29
HETATM   29  C   UNL     1      18.501  48.629  45.121  1.00  0.00     0.294 C 
HETATM   30  O   UNL     1      18.579  48.070  44.031  1.00  0.00    -0.259 OA
BRANCH  29  31
HETATM   31  O   UNL     1      18.663  48.120  46.350  1.00  0.00    -0.313 OA
BRANCH  31  32
HETATM   32  C   UNL     1      20.021  47.998  46.800  1.00  0.00     0.217 C 
BRANCH  32  33
HETATM   33  C   UNL     1      20.309  48.963  47.913  1.00  0.00    -0.034 A 
HETATM   34  C   UNL     1      21.277  49.961  47.744  1.00  0.00     0.009 A 
HETATM   35  C   UNL     1      21.524  50.884  48.760  1.00  0.00     0.001 A 
HETATM   36  C   UNL     1      20.810  50.813  49.955  1.00  0.00     0.000 A 
HETATM   37  C   UNL     1      19.852  49.817  50.138  1.00  0.00     0.001 A 
HETATM   38  C   UNL     1      19.604  48.894  49.122  1.00  0.00     0.009 A 
ENDBRANCH  32  33
ENDBRANCH  31  32
ENDBRANCH  29  31
ENDBRANCH  10  29
TORSDOF 10
ENDMDL
MODEL 6
REMARK VINA RESULT:      -6.7      1.846      2.432
REMARK  10 active torsions:
REMARK  status: ('A' for Active; 'I' for Inactive)
REMARK    1  A    between atoms: C_6  and  C_7 
REMARK    2  A    between atoms: C_7  and  C_8 
REMARK       I    between atoms: C_8  and  N_9 
REMARK    3  A    between atoms: N_9  and  C_10 
REMARK    4  A    between atoms: C_10  and  C_11 
REMARK    5  A    between atoms: C_11  and  N_12 
REMARK    6  A    between atoms: C_17  and  C_18 
REMARK    7  A    between atoms: C_27  and  C_28 
REMARK    8  A    between atoms: C_28  and  O_29 
REMARK    9  A    between atoms: O_29  and  C_30 
REMARK   10  A    between atoms: C_30  and  C_31 
ROOT
HETATM    1  C   UNL     1      16.527  48.513  43.301  1.00  0.00     0.071 C 
HETATM    2  C   UNL     1      16.747  49.699  44.203  1.00  0.00     0.048 C 
HETATM    3  N   UNL     1      17.335  50.798  43.572  1.00  0.00    -0.229 NA
HETATM    4  C   UNL     1      17.053  51.951  44.077  1.00  0.00     0.170 C 
HETATM    5  N   UNL     1      16.252  52.113  45.395  1.00  0.00    -0.318 N 
HETATM    6  C   UNL     1      15.395  53.068  45.275  1.00  0.00     0.011 C 
HETATM    7  C   UNL     1      16.514  50.992  46.313  1.00  0.00     0.169 C 
HETATM    8  S   UNL     1      17.185  53.469  43.264  1.00  0.00    -0.086 SA
HETATM    9  C   UNL     1      15.696  54.059  44.162  1.00  0.00     0.135 C 
HETATM   10  C   UNL     1      16.307  49.771  45.477  1.00  0.00     0.069 C 
ENDROOT
BRANCH   6  11
HETATM   11  C   UNL     1      14.140  53.091  46.098  1.00  0.00     0.156 C 
BRANCH  11  12
HETATM   12  C   UNL     1      14.028  54.392  46.876  1.00  0.00     0.223 C 
HETATM   13  N   UNL     1      14.570  54.412  48.133  1.00  0.00    -0.359 N 
HETATM   14  H   UNL     1      15.071  53.599  48.495  1.00  0.00     0.162 HD
HETATM   15  O   UNL     1      13.401  55.349  46.425  1.00  0.00    -0.273 OA
BRANCH  13  16
HETATM   16  C   UNL     1      14.286  55.476  49.109  1.00  0.00     0.150 C 
BRANCH  16  17
HETATM   17  C   UNL     1      15.155  55.483  50.392  1.00  0.00     0.253 C 
BRANCH  17  18
HETATM   18  N   UNL     1      14.774  56.586  51.361  1.00  0.00    -0.077 N 
HETATM   19  H   UNL     1      13.736  56.629  51.383  1.00  0.00     0.279 HD
HETATM   20  C   UNL     1      15.196  56.327  52.782  1.00  0.00     0.269 C 
HETATM   21  C   UNL     1      15.250  57.937  50.899  1.00  0.00     0.269 C 
ENDBRANCH  17  18
ENDBRANCH  16  17
ENDBRANCH  13  16
ENDBRANCH  11  12
ENDBRANCH   6  11
BRANCH   7  22
HETATM   22  C   UNL     1      17.884  51.151  46.978  1.00  0.00     0.008 A 
HETATM   23  C   UNL     1      18.109  52.029  48.053  1.00  0.00     0.125 A 
HETATM   24  F   UNL     1      17.117  52.793  48.524  1.00  0.00    -0.205 F 
HETATM   25  C   UNL     1      19.352  52.140  48.672  1.00  0.00     0.043 A 
HETATM   26  C   UNL     1      20.422  51.382  48.213  1.00  0.00     0.003 A 
HETATM   27  C   UNL     1      20.247  50.532  47.125  1.00  0.00     0.001 A 
HETATM   28  C   UNL     1      18.997  50.423  46.504  1.00  0.00     0.013 A 
ENDBRANCH   7  22
BRANCH  10  29
HETATM   29  C   UNL     1      15.266  48.904  46.041  1.00  0.00     0.294 C 
HETATM   30  O   UNL     1      14.131  49.355  46.157  1.00  0.00    -0.259 OA
BRANCH  29  31
HETATM   31  O   UNL     1      15.816  47.829  46.620  1.00  0.00    -0.313 OA
BRANCH  31  32
HETATM   32  C   UNL     1      15.971  47.898  48.046  1.00  0.00     0.217 C 
BRANCH  32  33
HETATM   33  C   UNL     1      17.412  47.757  48.439  1.00  0.00    -0.034 A 
HETATM   34  C   UNL     1      18.277  46.973  47.665  1.00  0.00     0.009 A 
HETATM   35  C   UNL     1      19.626  46.867  48.003  1.00  0.00     0.001 A 
HETATM   36  C   UNL     1      20.120  47.538  49.121  1.00  0.00     0.000 A 
HETATM   37  C   UNL     1      19.265  48.312  49.904  1.00  0.00     0.001 A 
HETATM   38  C   UNL     1      17.916  48.420  49.566  1.00  0.00     0.009 A 
ENDBRANCH  32  33
ENDBRANCH  31  32
ENDBRANCH  29  31
ENDBRANCH  10  29
TORSDOF 10
ENDMDL
MODEL 7
REMARK VINA RESULT:      -6.6      3.394      5.685
REMARK  10 active torsions:
REMARK  status: ('A' for Active; 'I' for Inactive)
REMARK    1  A    between atoms: C_6  and  C_7 
REMARK    2  A    between atoms: C_7  and  C_8 
REMARK       I    between atoms: C_8  and  N_9 
REMARK    3  A    between atoms: N_9  and  C_10 
REMARK    4  A    between atoms: C_10  and  C_11 
REMARK    5  A    between atoms: C_11  and  N_12 
REMARK    6  A    between atoms: C_17  and  C_18 
REMARK    7  A    between atoms: C_27  and  C_28 
REMARK    8  A    between atoms: C_28  and  O_29 
REMARK    9  A    between atoms: O_29  and  C_30 
REMARK   10  A    between atoms: C_30  and  C_31 
ROOT
HETATM    1  C   UNL     1      13.725  48.355  45.832  1.00  0.00     0.071 C 
HETATM    2  C   UNL     1      15.229  48.409  45.746  1.00  0.00     0.048 C 
HETATM    3  N   UNL     1      15.789  47.459  44.889  1.00  0.00    -0.229 NA
HETATM    4  C   UNL     1      16.919  47.782  44.357  1.00  0.00     0.170 C 
HETATM    5  N   UNL     1      17.697  49.062  44.759  1.00  0.00    -0.318 N 
HETATM    6  C   UNL     1      18.172  49.637  43.708  1.00  0.00     0.011 C 
HETATM    7  C   UNL     1      17.470  49.393  46.175  1.00  0.00     0.169 C 
HETATM    8  S   UNL     1      17.591  47.097  42.921  1.00  0.00    -0.086 SA
HETATM    9  C   UNL     1      18.294  48.737  42.488  1.00  0.00     0.135 C 
HETATM   10  C   UNL     1      15.984  49.362  46.331  1.00  0.00     0.069 C 
ENDROOT
BRANCH   6  11
HETATM   11  C   UNL     1      18.446  51.113  43.689  1.00  0.00     0.156 C 
BRANCH  11  12
HETATM   12  C   UNL     1      17.497  51.826  42.740  1.00  0.00     0.223 C 
HETATM   13  N   UNL     1      16.225  52.054  43.191  1.00  0.00    -0.359 N 
HETATM   14  H   UNL     1      15.958  51.800  44.144  1.00  0.00     0.162 HD
HETATM   15  O   UNL     1      17.836  52.102  41.591  1.00  0.00    -0.273 OA
BRANCH  13  16
HETATM   16  C   UNL     1      15.121  52.454  42.303  1.00  0.00     0.150 C 
BRANCH  16  17
HETATM   17  C   UNL     1      14.195  53.583  42.822  1.00  0.00     0.253 C 
BRANCH  17  18
HETATM   18  N   UNL     1      13.981  53.534  44.323  1.00  0.00    -0.077 N 
HETATM   19  H   UNL     1      14.595  52.782  44.694  1.00  0.00     0.279 HD
HETATM   20  C   UNL     1      14.399  54.787  45.043  1.00  0.00     0.269 C 
HETATM   21  C   UNL     1      12.571  53.154  44.683  1.00  0.00     0.269 C 
ENDBRANCH  17  18
ENDBRANCH  16  17
ENDBRANCH  13  16
ENDBRANCH  11  12
ENDBRANCH   6  11
BRANCH   7  22
HETATM   22  C   UNL     1      18.280  48.464  47.081  1.00  0.00     0.008 A 
HETATM   23  C   UNL     1      19.677  48.564  47.220  1.00  0.00     0.125 A 
HETATM   24  F   UNL     1      20.362  49.480  46.527  1.00  0.00    -0.205 F 
HETATM   25  C   UNL     1      20.398  47.734  48.074  1.00  0.00     0.043 A 
HETATM   26  C   UNL     1      19.739  46.755  48.805  1.00  0.00     0.003 A 
HETATM   27  C   UNL     1      18.363  46.598  48.664  1.00  0.00     0.001 A 
HETATM   28  C   UNL     1      17.640  47.433  47.804  1.00  0.00     0.013 A 
ENDBRANCH   7  22
BRANCH  10  29
HETATM   29  C   UNL     1      15.467  50.651  46.805  1.00  0.00     0.294 C 
HETATM   30  O   UNL     1      15.385  51.577  46.004  1.00  0.00    -0.259 OA
BRANCH  29  31
HETATM   31  O   UNL     1      15.443  50.681  48.144  1.00  0.00    -0.313 OA
BRANCH  31  32
HETATM   32  C   UNL     1      16.049  51.832  48.754  1.00  0.00     0.217 C 
BRANCH  32  33
HETATM   33  C   UNL     1      17.509  51.600  49.008  1.00  0.00    -0.034 A 
HETATM   34  C   UNL     1      18.471  52.311  48.278  1.00  0.00     0.009 A 
HETATM   35  C   UNL     1      19.829  52.127  48.534  1.00  0.00     0.001 A 
HETATM   36  C   UNL     1      20.238  51.227  49.517  1.00  0.00     0.000 A 
HETATM   37  C   UNL     1      19.290  50.506  50.241  1.00  0.00     0.001 A 
HETATM   38  C   UNL     1      17.931  50.689  49.986  1.00  0.00     0.009 A 
ENDBRANCH  32  33
ENDBRANCH  31  32
ENDBRANCH  29  31
ENDBRANCH  10  29
TORSDOF 10
ENDMDL
MODEL 8
REMARK VINA RESULT:      -6.4      3.493      6.357
REMARK  10 active torsions:
REMARK  status: ('A' for Active; 'I' for Inactive)
REMARK    1  A    between atoms: C_6  and  C_7 
REMARK    2  A    between atoms: C_7  and  C_8 
REMARK       I    between atoms: C_8  and  N_9 
REMARK    3  A    between atoms: N_9  and  C_10 
REMARK    4  A    between atoms: C_10  and  C_11 
REMARK    5  A    between atoms: C_11  and  N_12 
REMARK    6  A    between atoms: C_17  and  C_18 
REMARK    7  A    between atoms: C_27  and  C_28 
REMARK    8  A    between atoms: C_28  and  O_29 
REMARK    9  A    between atoms: O_29  and  C_30 
REMARK   10  A    between atoms: C_30  and  C_31 
ROOT
HETATM    1  C   UNL     1      18.881  50.607  42.899  1.00  0.00     0.071 C 
HETATM    2  C   UNL     1      17.963  50.813  44.076  1.00  0.00     0.048 C 
HETATM    3  N   UNL     1      17.268  52.024  44.057  1.00  0.00    -0.229 NA
HETATM    4  C   UNL     1      16.132  52.028  44.667  1.00  0.00     0.170 C 
HETATM    5  N   UNL     1      15.631  50.826  45.510  1.00  0.00    -0.318 N 
HETATM    6  C   UNL     1      14.381  50.617  45.281  1.00  0.00     0.011 C 
HETATM    7  C   UNL     1      16.759  50.116  46.135  1.00  0.00     0.169 C 
HETATM    8  S   UNL     1      14.846  53.150  44.400  1.00  0.00    -0.086 SA
HETATM    9  C   UNL     1      13.632  51.804  44.694  1.00  0.00     0.135 C 
HETATM   10  C   UNL     1      17.715  49.873  45.012  1.00  0.00     0.069 C 
ENDROOT
BRANCH   6  11
HETATM   11  C   UNL     1      13.775  49.256  45.466  1.00  0.00     0.156 C 
BRANCH  11  12
HETATM   12  C   UNL     1      13.465  48.616  44.124  1.00  0.00     0.223 C 
HETATM   13  N   UNL     1      14.528  48.151  43.397  1.00  0.00    -0.359 N 
HETATM   14  H   UNL     1      15.475  48.191  43.779  1.00  0.00     0.162 HD
HETATM   15  O   UNL     1      12.319  48.600  43.678  1.00  0.00    -0.273 OA
BRANCH  13  16
HETATM   16  C   UNL     1      14.427  47.786  41.975  1.00  0.00     0.150 C 
BRANCH  16  17
HETATM   17  C   UNL     1      15.699  48.000  41.117  1.00  0.00     0.253 C 
BRANCH  17  18
HETATM   18  N   UNL     1      15.610  49.218  40.216  1.00  0.00    -0.077 N 
HETATM   19  H   UNL     1      16.474  49.234  39.639  1.00  0.00     0.279 HD
HETATM   20  C   UNL     1      14.471  49.175  39.235  1.00  0.00     0.269 C 
HETATM   21  C   UNL     1      15.594  50.502  40.999  1.00  0.00     0.269 C 
ENDBRANCH  17  18
ENDBRANCH  16  17
ENDBRANCH  13  16
ENDBRANCH  11  12
ENDBRANCH   6  11
BRANCH   7  22
HETATM   22  C   UNL     1      17.289  50.901  47.337  1.00  0.00     0.008 A 
HETATM   23  C   UNL     1      16.536  51.097  48.510  1.00  0.00     0.125 A 
HETATM   24  F   UNL     1      15.292  50.615  48.604  1.00  0.00    -0.205 F 
HETATM   25  C   UNL     1      17.043  51.784  49.609  1.00  0.00     0.043 A 
HETATM   26  C   UNL     1      18.324  52.320  49.559  1.00  0.00     0.003 A 
HETATM   27  C   UNL     1      19.083  52.182  48.401  1.00  0.00     0.001 A 
HETATM   28  C   UNL     1      18.571  51.491  47.296  1.00  0.00     0.013 A 
ENDBRANCH   7  22
BRANCH  10  29
HETATM   29  C   UNL     1      17.988  48.441  44.839  1.00  0.00     0.294 C 
HETATM   30  O   UNL     1      17.063  47.708  44.504  1.00  0.00    -0.259 OA
BRANCH  29  31
HETATM   31  O   UNL     1      19.173  48.124  45.374  1.00  0.00    -0.313 OA
BRANCH  31  32
HETATM   32  C   UNL     1      19.154  47.075  46.356  1.00  0.00     0.217 C 
BRANCH  32  33
HETATM   33  C   UNL     1      19.128  47.640  47.746  1.00  0.00    -0.034 A 
HETATM   34  C   UNL     1      20.240  48.333  48.243  1.00  0.00     0.009 A 
HETATM   35  C   UNL     1      20.208  48.892  49.521  1.00  0.00     0.001 A 
HETATM   36  C   UNL     1      19.070  48.757  50.314  1.00  0.00     0.000 A 
HETATM   37  C   UNL     1      17.963  48.060  49.833  1.00  0.00     0.001 A 
HETATM   38  C   UNL     1      17.992  47.501  48.555  1.00  0.00     0.009 A 
ENDBRANCH  32  33
ENDBRANCH  31  32
ENDBRANCH  29  31
ENDBRANCH  10  29
TORSDOF 10
ENDMDL
MODEL 9
REMARK VINA RESULT:      -6.3      3.343      6.917
REMARK  10 active torsions:
REMARK  status: ('A' for Active; 'I' for Inactive)
REMARK    1  A    between atoms: C_6  and  C_7 
REMARK    2  A    between atoms: C_7  and  C_8 
REMARK       I    between atoms: C_8  and  N_9 
REMARK    3  A    between atoms: N_9  and  C_10 
REMARK    4  A    between atoms: C_10  and  C_11 
REMARK    5  A    between atoms: C_11  and  N_12 
REMARK    6  A    between atoms: C_17  and  C_18 
REMARK    7  A    between atoms: C_27  and  C_28 
REMARK    8  A    between atoms: C_28  and  O_29 
REMARK    9  A    between atoms: O_29  and  C_30 
REMARK   10  A    between atoms: C_30  and  C_31 
ROOT
HETATM    1  C   UNL     1      15.940  47.752  47.909  1.00  0.00     0.071 C 
HETATM    2  C   UNL     1      16.196  49.196  47.564  1.00  0.00     0.048 C 
HETATM    3  N   UNL     1      15.485  50.108  48.347  1.00  0.00    -0.229 NA
HETATM    4  C   UNL     1      16.033  51.266  48.495  1.00  0.00     0.170 C 
HETATM    5  N   UNL     1      17.312  51.690  47.728  1.00  0.00    -0.318 N 
HETATM    6  C   UNL     1      18.114  52.315  48.520  1.00  0.00     0.011 C 
HETATM    7  C   UNL     1      17.365  51.055  46.401  1.00  0.00     0.169 C 
HETATM    8  S   UNL     1      15.694  52.389  49.763  1.00  0.00    -0.086 SA
HETATM    9  C   UNL     1      17.459  52.894  49.764  1.00  0.00     0.135 C 
HETATM   10  C   UNL     1      17.122  49.605  46.671  1.00  0.00     0.069 C 
ENDROOT
BRANCH   6  11
HETATM   11  C   UNL     1      19.594  52.334  48.268  1.00  0.00     0.156 C 
BRANCH  11  12
HETATM   12  C   UNL     1      20.303  51.308  49.136  1.00  0.00     0.223 C 
HETATM   13  N   UNL     1      21.630  51.089  48.880  1.00  0.00    -0.359 N 
HETATM   14  H   UNL     1      22.119  51.638  48.172  1.00  0.00     0.162 HD
HETATM   15  O   UNL     1      19.685  50.644  49.967  1.00  0.00    -0.273 OA
BRANCH  13  16
HETATM   16  C   UNL     1      22.368  49.935  49.419  1.00  0.00     0.150 C 
BRANCH  16  17
HETATM   17  C   UNL     1      22.093  48.567  48.746  1.00  0.00     0.253 C 
BRANCH  17  18
HETATM   18  N   UNL     1      22.785  47.412  49.444  1.00  0.00    -0.077 N 
HETATM   19  H   UNL     1      22.249  47.213  50.311  1.00  0.00     0.279 HD
HETATM   20  C   UNL     1      22.776  46.127  48.661  1.00  0.00     0.269 C 
HETATM   21  C   UNL     1      24.183  47.765  49.876  1.00  0.00     0.269 C 
ENDBRANCH  17  18
ENDBRANCH  16  17
ENDBRANCH  13  16
ENDBRANCH  11  12
ENDBRANCH   6  11
BRANCH   7  22
HETATM   22  C   UNL     1      16.403  51.749  45.434  1.00  0.00     0.008 A 
HETATM   23  C   UNL     1      15.348  51.073  44.795  1.00  0.00     0.125 A 
HETATM   24  F   UNL     1      15.163  49.763  44.994  1.00  0.00    -0.205 F 
HETATM   25  C   UNL     1      14.459  51.724  43.944  1.00  0.00     0.043 A 
HETATM   26  C   UNL     1      14.614  53.081  43.689  1.00  0.00     0.003 A 
HETATM   27  C   UNL     1      15.671  53.775  44.272  1.00  0.00     0.001 A 
HETATM   28  C   UNL     1      16.564  53.118  45.126  1.00  0.00     0.013 A 
ENDBRANCH   7  22
BRANCH  10  29
HETATM   29  C   UNL     1      18.235  48.775  46.197  1.00  0.00     0.294 C 
HETATM   30  O   UNL     1      19.354  48.982  46.657  1.00  0.00    -0.259 OA
BRANCH  29  31
HETATM   31  O   UNL     1      17.880  48.105  45.092  1.00  0.00    -0.313 OA
BRANCH  31  32
HETATM   32  C   UNL     1      18.718  48.307  43.943  1.00  0.00     0.217 C 
BRANCH  32  33
HETATM   33  C   UNL     1      18.162  49.380  43.054  1.00  0.00    -0.034 A 
HETATM   34  C   UNL     1      18.774  50.640  43.005  1.00  0.00     0.009 A 
HETATM   35  C   UNL     1      18.285  51.629  42.154  1.00  0.00     0.001 A 
HETATM   36  C   UNL     1      17.176  51.372  41.349  1.00  0.00     0.000 A 
HETATM   37  C   UNL     1      16.552  50.126  41.398  1.00  0.00     0.001 A 
HETATM   38  C   UNL     1      17.041  49.135  42.249  1.00  0.00     0.009 A 
ENDBRANCH  32  33
ENDBRANCH  31  32
ENDBRANCH  29  31
ENDBRANCH  10  29
TORSDOF 10
ENDMDL
MODEL 10
REMARK VINA RESULT:      -6.3      3.667      6.683
REMARK  10 active torsions:
REMARK  status: ('A' for Active; 'I' for Inactive)
REMARK    1  A    between atoms: C_6  and  C_7 
REMARK    2  A    between atoms: C_7  and  C_8 
REMARK       I    between atoms: C_8  and  N_9 
REMARK    3  A    between atoms: N_9  and  C_10 
REMARK    4  A    between atoms: C_10  and  C_11 
REMARK    5  A    between atoms: C_11  and  N_12 
REMARK    6  A    between atoms: C_17  and  C_18 
REMARK    7  A    between atoms: C_27  and  C_28 
REMARK    8  A    between atoms: C_28  and  O_29 
REMARK    9  A    between atoms: O_29  and  C_30 
REMARK   10  A    between atoms: C_30  and  C_31 
ROOT
HETATM    1  C   UNL     1      13.771  48.732  45.819  1.00  0.00     0.071 C 
HETATM    2  C   UNL     1      15.274  48.699  45.722  1.00  0.00     0.048 C 
HETATM    3  N   UNL     1      15.777  47.630  44.977  1.00  0.00    -0.229 NA
HETATM    4  C   UNL     1      16.917  47.832  44.407  1.00  0.00     0.170 C 
HETATM    5  N   UNL     1      17.762  49.107  44.657  1.00  0.00    -0.318 N 
HETATM    6  C   UNL     1      18.256  49.534  43.546  1.00  0.00     0.011 C 
HETATM    7  C   UNL     1      17.566  49.609  46.027  1.00  0.00     0.169 C 
HETATM    8  S   UNL     1      17.539  46.953  43.056  1.00  0.00    -0.086 SA
HETATM    9  C   UNL     1      18.320  48.496  42.436  1.00  0.00     0.135 C 
HETATM   10  C   UNL     1      16.082  49.673  46.191  1.00  0.00     0.069 C 
ENDROOT
BRANCH   6  11
HETATM   11  C   UNL     1      18.604  50.982  43.357  1.00  0.00     0.156 C 
BRANCH  11  12
HETATM   12  C   UNL     1      17.633  51.650  42.398  1.00  0.00     0.223 C 
HETATM   13  N   UNL     1      16.461  52.118  42.927  1.00  0.00    -0.359 N 
HETATM   14  H   UNL     1      16.286  52.062  43.932  1.00  0.00     0.162 HD
HETATM   15  O   UNL     1      17.858  51.685  41.189  1.00  0.00    -0.273 OA
BRANCH  13  16
HETATM   16  C   UNL     1      15.310  52.511  42.099  1.00  0.00     0.150 C 
BRANCH  16  17
HETATM   17  C   UNL     1      14.316  51.383  41.721  1.00  0.00     0.253 C 
BRANCH  17  18
HETATM   18  N   UNL     1      15.004  50.131  41.212  1.00  0.00    -0.077 N 
HETATM   19  H   UNL     1      15.997  50.184  41.513  1.00  0.00     0.279 HD
HETATM   20  C   UNL     1      14.472  48.854  41.802  1.00  0.00     0.269 C 
HETATM   21  C   UNL     1      15.015  50.061  39.709  1.00  0.00     0.269 C 
ENDBRANCH  17  18
ENDBRANCH  16  17
ENDBRANCH  13  16
ENDBRANCH  11  12
ENDBRANCH   6  11
BRANCH   7  22
HETATM   22  C   UNL     1      18.337  48.749  47.030  1.00  0.00     0.008 A 
HETATM   23  C   UNL     1      17.729  48.163  48.156  1.00  0.00     0.125 A 
HETATM   24  F   UNL     1      16.431  48.367  48.407  1.00  0.00    -0.205 F 
HETATM   25  C   UNL     1      18.434  47.354  49.042  1.00  0.00     0.043 A 
HETATM   26  C   UNL     1      19.788  47.122  48.838  1.00  0.00     0.003 A 
HETATM   27  C   UNL     1      20.434  47.717  47.758  1.00  0.00     0.001 A 
HETATM   28  C   UNL     1      19.723  48.531  46.869  1.00  0.00     0.013 A 
ENDBRANCH   7  22
BRANCH  10  29
HETATM   29  C   UNL     1      15.635  51.032  46.516  1.00  0.00     0.294 C 
HETATM   30  O   UNL     1      15.649  51.879  45.629  1.00  0.00    -0.259 OA
BRANCH  29  31
HETATM   31  O   UNL     1      15.559  51.193  47.844  1.00  0.00    -0.313 OA
BRANCH  31  32
HETATM   32  C   UNL     1      16.269  52.322  48.377  1.00  0.00     0.217 C 
BRANCH  32  33
HETATM   33  C   UNL     1      17.655  51.933  48.804  1.00  0.00    -0.034 A 
HETATM   34  C   UNL     1      17.841  51.131  49.937  1.00  0.00     0.009 A 
HETATM   35  C   UNL     1      19.123  50.736  50.318  1.00  0.00     0.001 A 
HETATM   36  C   UNL     1      20.229  51.144  49.574  1.00  0.00     0.000 A 
HETATM   37  C   UNL     1      20.055  51.951  48.451  1.00  0.00     0.001 A 
HETATM   38  C   UNL     1      18.773  52.347  48.068  1.00  0.00     0.009 A 
ENDBRANCH  32  33
ENDBRANCH  31  32
ENDBRANCH  29  31
ENDBRANCH  10  29
TORSDOF 10
ENDMDL
