MODEL 1
REMARK VINA RESULT:     -10.0      0.000      0.000
REMARK  9 active torsions:
REMARK  status: ('A' for Active; 'I' for Inactive)
REMARK    1  A    between atoms: C_4  and  C_5 
REMARK    2  A    between atoms: C_13  and  C_14 
REMARK    3  A    between atoms: C_14  and  N_15 
REMARK    4  A    between atoms: C_19  and  C_20 
REMARK       I    between atoms: C_20  and  N_21 
REMARK    5  A    between atoms: N_21  and  C_22 
REMARK    6  A    between atoms: C_22  and  C_23 
REMARK    7  A    between atoms: C_23  and  C_24 
REMARK    8  A    between atoms: C_24  and  N_25 
REMARK    9  A    between atoms: N_29  and  C_30 
ROOT
HETATM    1  N   UNL     1      25.566  42.853  50.203  1.00  0.00    -0.066 N 
HETATM    2  H   UNL     1      25.618  42.143  50.951  1.00  0.00     0.280 HD
HETATM    3  C   UNL     1      24.348  43.694  50.490  1.00  0.00     0.236 C 
HETATM    4  C   UNL     1      23.074  42.884  50.263  1.00  0.00     0.042 C 
HETATM    5  C   UNL     1      23.004  42.311  48.846  1.00  0.00     0.081 C 
HETATM    6  C   UNL     1      24.248  41.466  48.574  1.00  0.00     0.042 C 
HETATM    7  C   UNL     1      25.562  42.182  48.856  1.00  0.00     0.236 C 
ENDROOT
BRANCH   5   8
HETATM    8  C   UNL     1      22.843  43.463  47.855  1.00  0.00     0.221 C 
HETATM    9  N   UNL     1      22.034  44.489  48.289  1.00  0.00    -0.361 N 
HETATM   10  H   UNL     1      21.573  44.405  49.190  1.00  0.00     0.162 HD
HETATM   11  O   UNL     1      23.487  43.521  46.811  1.00  0.00    -0.273 OA
BRANCH   9  12
HETATM   12  C   UNL     1      22.040  45.796  47.656  1.00  0.00     0.124 C 
BRANCH  12  13
HETATM   13  C   UNL     1      22.630  46.914  48.523  1.00  0.00     0.047 C 
BRANCH  13  14
HETATM   14  C   UNL     1      21.974  48.247  48.168  1.00  0.00     0.236 C 
BRANCH  14  15
HETATM   15  N   UNL     1      21.158  48.807  49.313  1.00  0.00    -0.068 N 
HETATM   16  H   UNL     1      21.635  48.596  50.200  1.00  0.00     0.280 HD
HETATM   17  C   UNL     1      21.087  50.347  49.212  1.00  0.00     0.254 C 
HETATM   18  C   UNL     1      20.229  50.947  50.346  1.00  0.00     0.150 C 
HETATM   19  N   UNL     1      18.899  50.319  50.404  1.00  0.00    -0.378 N 
HETATM   20  C   UNL     1      18.943  48.852  50.558  1.00  0.00     0.150 C 
HETATM   21  C   UNL     1      19.740  48.214  49.400  1.00  0.00     0.254 C 
BRANCH  19  22
HETATM   22  C   UNL     1      17.819  50.853  49.696  1.00  0.00     0.031 A 
HETATM   23  C   UNL     1      17.123  50.150  48.701  1.00  0.00     0.053 A 
HETATM   24  C   UNL     1      16.038  50.723  48.024  1.00  0.00     0.036 A 
HETATM   25 CL   UNL     1      15.195  49.793  46.846  1.00  0.00    -0.084 Cl
HETATM   26  C   UNL     1      15.631  52.020  48.299  1.00  0.00     0.024 A 
HETATM   27  C   UNL     1      16.323  52.754  49.255  1.00  0.00     0.004 A 
HETATM   28  C   UNL     1      17.401  52.175  49.936  1.00  0.00     0.029 A 
ENDBRANCH  19  22
ENDBRANCH  14  15
ENDBRANCH  13  14
ENDBRANCH  12  13
ENDBRANCH   9  12
ENDBRANCH   5   8
BRANCH   1  29
HETATM   29  C   UNL     1      26.858  43.652  50.360  1.00  0.00     0.296 C 
BRANCH  29  30
HETATM   30  C   UNL     1      27.708  43.258  51.509  1.00  0.00     0.092 A 
HETATM   31  C   UNL     1      28.289  42.037  51.769  1.00  0.00     0.078 A 
HETATM   32  C   UNL     1      28.319  40.725  51.094  1.00  0.00     0.079 C 
HETATM   33  O   UNL     1      28.985  42.149  52.932  1.00  0.00    -0.294 OA
HETATM   34  C   UNL     1      28.786  43.441  53.342  1.00  0.00     0.180 A 
HETATM   35  N   UNL     1      28.026  44.149  52.518  1.00  0.00    -0.224 NA
BRANCH  34  36
HETATM   36  C   UNL     1      29.449  43.837  54.582  1.00  0.00     0.017 A 
HETATM   37  C   UNL     1      30.465  43.052  55.156  1.00  0.00     0.017 A 
HETATM   38  C   UNL     1      31.096  43.447  56.339  1.00  0.00     0.025 A 
HETATM   39  C   UNL     1      30.717  44.633  56.961  1.00  0.00     0.034 A 
HETATM   40 CL   UNL     1      31.494  45.123  58.413  1.00  0.00    -0.084 Cl
HETATM   41  C   UNL     1      29.713  45.425  56.411  1.00  0.00     0.025 A 
HETATM   42  C   UNL     1      29.081  45.027  55.226  1.00  0.00     0.017 A 
ENDBRANCH  34  36
ENDBRANCH  29  30
ENDBRANCH   1  29
TORSDOF 9
ENDMDL
MODEL 2
REMARK VINA RESULT:      -9.8      3.292     13.759
REMARK  9 active torsions:
REMARK  status: ('A' for Active; 'I' for Inactive)
REMARK    1  A    between atoms: C_4  and  C_5 
REMARK    2  A    between atoms: C_13  and  C_14 
REMARK    3  A    between atoms: C_14  and  N_15 
REMARK    4  A    between atoms: C_19  and  C_20 
REMARK       I    between atoms: C_20  and  N_21 
REMARK    5  A    between atoms: N_21  and  C_22 
REMARK    6  A    between atoms: C_22  and  C_23 
REMARK    7  A    between atoms: C_23  and  C_24 
REMARK    8  A    between atoms: C_24  and  N_25 
REMARK    9  A    between atoms: N_29  and  C_30 
ROOT
HETATM    1  N   UNL     1      19.582  49.987  48.865  1.00  0.00    -0.066 N 
HETATM    2  H   UNL     1      19.071  50.336  48.039  1.00  0.00     0.280 HD
HETATM    3  C   UNL     1      20.818  50.840  48.999  1.00  0.00     0.236 C 
HETATM    4  C   UNL     1      21.795  50.549  47.862  1.00  0.00     0.042 C 
HETATM    5  C   UNL     1      22.174  49.069  47.797  1.00  0.00     0.081 C 
HETATM    6  C   UNL     1      20.908  48.222  47.666  1.00  0.00     0.042 C 
HETATM    7  C   UNL     1      19.850  48.514  48.721  1.00  0.00     0.236 C 
ENDROOT
BRANCH   5   8
HETATM    8  C   UNL     1      22.996  48.715  49.036  1.00  0.00     0.221 C 
HETATM    9  N   UNL     1      23.199  47.367  49.227  1.00  0.00    -0.361 N 
HETATM   10  H   UNL     1      22.771  46.708  48.583  1.00  0.00     0.162 HD
HETATM   11  O   UNL     1      23.536  49.573  49.729  1.00  0.00    -0.273 OA
BRANCH   9  12
HETATM   12  C   UNL     1      24.224  46.861  50.123  1.00  0.00     0.124 C 
BRANCH  12  13
HETATM   13  C   UNL     1      25.644  47.335  49.789  1.00  0.00     0.047 C 
BRANCH  13  14
HETATM   14  C   UNL     1      26.661  46.296  50.259  1.00  0.00     0.236 C 
BRANCH  14  15
HETATM   15  N   UNL     1      26.294  45.702  51.602  1.00  0.00    -0.068 N 
HETATM   16  H   UNL     1      25.272  45.595  51.655  1.00  0.00     0.280 HD
HETATM   17  C   UNL     1      26.888  44.282  51.735  1.00  0.00     0.254 C 
HETATM   18  C   UNL     1      26.564  43.662  53.111  1.00  0.00     0.150 C 
HETATM   19  N   UNL     1      26.967  44.554  54.211  1.00  0.00    -0.378 N 
HETATM   20  C   UNL     1      26.365  45.899  54.135  1.00  0.00     0.150 C 
HETATM   21  C   UNL     1      26.727  46.574  52.794  1.00  0.00     0.254 C 
BRANCH  19  22
HETATM   22  C   UNL     1      28.236  44.455  54.789  1.00  0.00     0.031 A 
HETATM   23  C   UNL     1      28.679  45.289  55.826  1.00  0.00     0.053 A 
HETATM   24  C   UNL     1      29.958  45.147  56.383  1.00  0.00     0.036 A 
HETATM   25 CL   UNL     1      30.428  46.170  57.685  1.00  0.00    -0.084 Cl
HETATM   26  C   UNL     1      30.840  44.187  55.906  1.00  0.00     0.024 A 
HETATM   27  C   UNL     1      30.441  43.370  54.855  1.00  0.00     0.004 A 
HETATM   28  C   UNL     1      29.160  43.509  54.308  1.00  0.00     0.029 A 
ENDBRANCH  19  22
ENDBRANCH  14  15
ENDBRANCH  13  14
ENDBRANCH  12  13
ENDBRANCH   9  12
ENDBRANCH   5   8
BRANCH   1  29
HETATM   29  C   UNL     1      18.612  50.209  50.023  1.00  0.00     0.296 C 
BRANCH  29  30
HETATM   30  C   UNL     1      17.384  50.967  49.681  1.00  0.00     0.092 A 
HETATM   31  C   UNL     1      16.419  50.662  48.747  1.00  0.00     0.078 A 
HETATM   32  C   UNL     1      16.204  49.568  47.779  1.00  0.00     0.079 C 
HETATM   33  O   UNL     1      15.476  51.642  48.792  1.00  0.00    -0.294 OA
HETATM   34  C   UNL     1      15.917  52.516  49.750  1.00  0.00     0.180 A 
HETATM   35  N   UNL     1      17.060  52.152  50.315  1.00  0.00    -0.224 NA
BRANCH  34  36
HETATM   36  C   UNL     1      15.066  53.673  50.012  1.00  0.00     0.017 A 
HETATM   37  C   UNL     1      15.579  54.982  49.997  1.00  0.00     0.017 A 
HETATM   38  C   UNL     1      14.751  56.081  50.242  1.00  0.00     0.025 A 
HETATM   39  C   UNL     1      13.398  55.882  50.505  1.00  0.00     0.034 A 
HETATM   40 CL   UNL     1      12.377  57.231  50.802  1.00  0.00    -0.084 Cl
HETATM   41  C   UNL     1      12.870  54.594  50.526  1.00  0.00     0.025 A 
HETATM   42  C   UNL     1      13.701  53.495  50.282  1.00  0.00     0.017 A 
ENDBRANCH  34  36
ENDBRANCH  29  30
ENDBRANCH   1  29
TORSDOF 9
ENDMDL
MODEL 3
REMARK VINA RESULT:      -9.6      4.307     11.747
REMARK  9 active torsions:
REMARK  status: ('A' for Active; 'I' for Inactive)
REMARK    1  A    between atoms: C_4  and  C_5 
REMARK    2  A    between atoms: C_13  and  C_14 
REMARK    3  A    between atoms: C_14  and  N_15 
REMARK    4  A    between atoms: C_19  and  C_20 
REMARK       I    between atoms: C_20  and  N_21 
REMARK    5  A    between atoms: N_21  and  C_22 
REMARK    6  A    between atoms: C_22  and  C_23 
REMARK    7  A    between atoms: C_23  and  C_24 
REMARK    8  A    between atoms: C_24  and  N_25 
REMARK    9  A    between atoms: N_29  and  C_30 
ROOT
HETATM    1  N   UNL     1      25.548  46.172  51.854  1.00  0.00    -0.066 N 
HETATM    2  H   UNL     1      24.553  46.443  51.875  1.00  0.00     0.280 HD
HETATM    3  C   UNL     1      25.594  44.682  52.084  1.00  0.00     0.236 C 
HETATM    4  C   UNL     1      25.194  44.350  53.520  1.00  0.00     0.042 C 
HETATM    5  C   UNL     1      26.073  45.075  54.541  1.00  0.00     0.081 C 
HETATM    6  C   UNL     1      26.016  46.581  54.288  1.00  0.00     0.042 C 
HETATM    7  C   UNL     1      26.325  46.985  52.853  1.00  0.00     0.236 C 
ENDROOT
BRANCH   5   8
HETATM    8  C   UNL     1      27.492  44.514  54.457  1.00  0.00     0.221 C 
HETATM    9  N   UNL     1      27.568  43.140  54.422  1.00  0.00    -0.361 N 
HETATM   10  H   UNL     1      26.713  42.597  54.495  1.00  0.00     0.162 HD
HETATM   11  O   UNL     1      28.473  45.238  54.305  1.00  0.00    -0.273 OA
BRANCH   9  12
HETATM   12  C   UNL     1      28.771  42.445  53.998  1.00  0.00     0.124 C 
BRANCH  12  13
HETATM   13  C   UNL     1      28.511  41.134  53.248  1.00  0.00     0.047 C 
BRANCH  13  14
HETATM   14  C   UNL     1      27.854  41.429  51.901  1.00  0.00     0.236 C 
BRANCH  14  15
HETATM   15  N   UNL     1      27.591  40.169  51.104  1.00  0.00    -0.068 N 
HETATM   16  H   UNL     1      27.295  39.421  51.745  1.00  0.00     0.280 HD
HETATM   17  C   UNL     1      26.418  40.395  50.125  1.00  0.00     0.254 C 
HETATM   18  C   UNL     1      26.149  39.139  49.269  1.00  0.00     0.150 C 
HETATM   19  N   UNL     1      27.373  38.676  48.594  1.00  0.00    -0.378 N 
HETATM   20  C   UNL     1      28.490  38.400  49.517  1.00  0.00     0.150 C 
HETATM   21  C   UNL     1      28.829  39.660  50.343  1.00  0.00     0.254 C 
BRANCH  19  22
HETATM   22  C   UNL     1      27.702  39.126  47.312  1.00  0.00     0.031 A 
HETATM   23  C   UNL     1      27.984  38.267  46.240  1.00  0.00     0.053 A 
HETATM   24  C   UNL     1      28.300  38.763  44.968  1.00  0.00     0.036 A 
HETATM   25 CL   UNL     1      28.590  37.658  43.680  1.00  0.00    -0.084 Cl
HETATM   26  C   UNL     1      28.367  40.129  44.733  1.00  0.00     0.024 A 
HETATM   27  C   UNL     1      28.127  41.006  45.784  1.00  0.00     0.004 A 
HETATM   28  C   UNL     1      27.804  40.506  47.051  1.00  0.00     0.029 A 
ENDBRANCH  19  22
ENDBRANCH  14  15
ENDBRANCH  13  14
ENDBRANCH  12  13
ENDBRANCH   9  12
ENDBRANCH   5   8
BRANCH   1  29
HETATM   29  C   UNL     1      26.004  46.542  50.444  1.00  0.00     0.296 C 
BRANCH  29  30
HETATM   30  C   UNL     1      25.380  47.763  49.880  1.00  0.00     0.092 A 
HETATM   31  C   UNL     1      25.991  48.832  49.261  1.00  0.00     0.078 A 
HETATM   32  C   UNL     1      27.381  49.194  48.924  1.00  0.00     0.079 C 
HETATM   33  O   UNL     1      25.017  49.712  48.901  1.00  0.00    -0.294 OA
HETATM   34  C   UNL     1      23.847  49.143  49.331  1.00  0.00     0.180 A 
HETATM   35  N   UNL     1      24.014  47.970  49.925  1.00  0.00    -0.224 NA
BRANCH  34  36
HETATM   36  C   UNL     1      22.623  49.891  49.053  1.00  0.00     0.017 A 
HETATM   37  C   UNL     1      22.059  49.923  47.765  1.00  0.00     0.017 A 
HETATM   38  C   UNL     1      20.883  50.636  47.515  1.00  0.00     0.025 A 
HETATM   39  C   UNL     1      20.258  51.324  48.551  1.00  0.00     0.034 A 
HETATM   40 CL   UNL     1      18.810  52.198  48.248  1.00  0.00    -0.084 Cl
HETATM   41  C   UNL     1      20.801  51.306  49.834  1.00  0.00     0.025 A 
HETATM   42  C   UNL     1      21.980  50.593  50.082  1.00  0.00     0.017 A 
ENDBRANCH  34  36
ENDBRANCH  29  30
ENDBRANCH   1  29
TORSDOF 9
ENDMDL
MODEL 4
REMARK VINA RESULT:      -9.4      1.947      2.514
REMARK  9 active torsions:
REMARK  status: ('A' for Active; 'I' for Inactive)
REMARK    1  A    between atoms: C_4  and  C_5 
REMARK    2  A    between atoms: C_13  and  C_14 
REMARK    3  A    between atoms: C_14  and  N_15 
REMARK    4  A    between atoms: C_19  and  C_20 
REMARK       I    between atoms: C_20  and  N_21 
REMARK    5  A    between atoms: N_21  and  C_22 
REMARK    6  A    between atoms: C_22  and  C_23 
REMARK    7  A    between atoms: C_23  and  C_24 
REMARK    8  A    between atoms: C_24  and  N_25 
REMARK    9  A    between atoms: N_29  and  C_30 
ROOT
HETATM    1  N   UNL     1      25.455  42.964  50.216  1.00  0.00    -0.066 N 
HETATM    2  H   UNL     1      25.451  42.325  51.027  1.00  0.00     0.280 HD
HETATM    3  C   UNL     1      24.298  43.912  50.407  1.00  0.00     0.236 C 
HETATM    4  C   UNL     1      22.970  43.176  50.238  1.00  0.00     0.042 C 
HETATM    5  C   UNL     1      22.870  42.480  48.880  1.00  0.00     0.081 C 
HETATM    6  C   UNL     1      24.053  41.528  48.705  1.00  0.00     0.042 C 
HETATM    7  C   UNL     1      25.412  42.172  48.937  1.00  0.00     0.236 C 
ENDROOT
BRANCH   5   8
HETATM    8  C   UNL     1      22.799  43.543  47.784  1.00  0.00     0.221 C 
HETATM    9  N   UNL     1      21.952  44.593  48.054  1.00  0.00    -0.361 N 
HETATM   10  H   UNL     1      21.410  44.581  48.914  1.00  0.00     0.162 HD
HETATM   11  O   UNL     1      23.536  43.519  46.802  1.00  0.00    -0.273 OA
BRANCH   9  12
HETATM   12  C   UNL     1      22.014  45.843  47.316  1.00  0.00     0.124 C 
BRANCH  12  13
HETATM   13  C   UNL     1      21.037  45.928  46.137  1.00  0.00     0.047 C 
BRANCH  13  14
HETATM   14  C   UNL     1      19.749  45.180  46.476  1.00  0.00     0.236 C 
BRANCH  14  15
HETATM   15  N   UNL     1      18.586  46.119  46.712  1.00  0.00    -0.068 N 
HETATM   16  H   UNL     1      17.707  45.625  46.507  1.00  0.00     0.280 HD
HETATM   17  C   UNL     1      18.523  46.522  48.202  1.00  0.00     0.254 C 
HETATM   18  C   UNL     1      17.369  47.512  48.470  1.00  0.00     0.150 C 
HETATM   19  N   UNL     1      17.438  48.674  47.568  1.00  0.00    -0.378 N 
HETATM   20  C   UNL     1      17.441  48.314  46.138  1.00  0.00     0.150 C 
HETATM   21  C   UNL     1      18.626  47.375  45.823  1.00  0.00     0.254 C 
BRANCH  19  22
HETATM   22  C   UNL     1      18.131  49.831  47.937  1.00  0.00     0.031 A 
HETATM   23  C   UNL     1      19.212  49.833  48.830  1.00  0.00     0.053 A 
HETATM   24  C   UNL     1      19.884  51.017  49.162  1.00  0.00     0.036 A 
HETATM   25 CL   UNL     1      21.234  50.949  50.228  1.00  0.00    -0.084 Cl
HETATM   26  C   UNL     1      19.483  52.236  48.634  1.00  0.00     0.024 A 
HETATM   27  C   UNL     1      18.393  52.271  47.773  1.00  0.00     0.004 A 
HETATM   28  C   UNL     1      17.730  51.084  47.436  1.00  0.00     0.029 A 
ENDBRANCH  19  22
ENDBRANCH  14  15
ENDBRANCH  13  14
ENDBRANCH  12  13
ENDBRANCH   9  12
ENDBRANCH   5   8
BRANCH   1  29
HETATM   29  C   UNL     1      26.799  43.682  50.316  1.00  0.00     0.296 C 
BRANCH  29  30
HETATM   30  C   UNL     1      27.644  43.281  51.468  1.00  0.00     0.092 A 
HETATM   31  C   UNL     1      28.208  42.053  51.733  1.00  0.00     0.078 A 
HETATM   32  C   UNL     1      28.219  40.738  51.064  1.00  0.00     0.079 C 
HETATM   33  O   UNL     1      28.906  42.162  52.896  1.00  0.00    -0.294 OA
HETATM   34  C   UNL     1      28.725  43.458  53.299  1.00  0.00     0.180 A 
HETATM   35  N   UNL     1      27.974  44.172  52.472  1.00  0.00    -0.224 NA
BRANCH  34  36
HETATM   36  C   UNL     1      29.393  43.851  54.538  1.00  0.00     0.017 A 
HETATM   37  C   UNL     1      30.418  43.069  55.100  1.00  0.00     0.017 A 
HETATM   38  C   UNL     1      31.054  43.461  56.281  1.00  0.00     0.025 A 
HETATM   39  C   UNL     1      30.671  44.641  56.913  1.00  0.00     0.034 A 
HETATM   40 CL   UNL     1      31.454  45.127  58.363  1.00  0.00    -0.084 Cl
HETATM   41  C   UNL     1      29.657  45.429  56.375  1.00  0.00     0.025 A 
HETATM   42  C   UNL     1      29.021  45.034  55.192  1.00  0.00     0.017 A 
ENDBRANCH  34  36
ENDBRANCH  29  30
ENDBRANCH   1  29
TORSDOF 9
ENDMDL
MODEL 5
REMARK VINA RESULT:      -9.3      5.086      6.470
REMARK  9 active torsions:
REMARK  status: ('A' for Active; 'I' for Inactive)
REMARK    1  A    between atoms: C_4  and  C_5 
REMARK    2  A    between atoms: C_13  and  C_14 
REMARK    3  A    between atoms: C_14  and  N_15 
REMARK    4  A    between atoms: C_19  and  C_20 
REMARK       I    between atoms: C_20  and  N_21 
REMARK    5  A    between atoms: N_21  and  C_22 
REMARK    6  A    between atoms: C_22  and  C_23 
REMARK    7  A    between atoms: C_23  and  C_24 
REMARK    8  A    between atoms: C_24  and  N_25 
REMARK    9  A    between atoms: N_29  and  C_30 
ROOT
HETATM    1  N   UNL     1      28.070  40.321  50.010  1.00  0.00    -0.066 N 
HETATM    2  H   UNL     1      29.043  40.531  50.283  1.00  0.00     0.280 HD
HETATM    3  C   UNL     1      27.969  38.822  49.886  1.00  0.00     0.236 C 
HETATM    4  C   UNL     1      28.761  38.331  48.676  1.00  0.00     0.042 C 
HETATM    5  C   UNL     1      28.304  39.005  47.381  1.00  0.00     0.081 C 
HETATM    6  C   UNL     1      28.410  40.523  47.529  1.00  0.00     0.042 C 
HETATM    7  C   UNL     1      27.711  41.080  48.761  1.00  0.00     0.236 C 
ENDROOT
BRANCH   5   8
HETATM    8  C   UNL     1      26.885  38.540  47.056  1.00  0.00     0.221 C 
HETATM    9  N   UNL     1      25.958  39.552  46.945  1.00  0.00    -0.361 N 
HETATM   10  H   UNL     1      26.250  40.509  47.121  1.00  0.00     0.162 HD
HETATM   11  O   UNL     1      26.626  37.369  46.791  1.00  0.00    -0.273 OA
BRANCH   9  12
HETATM   12  C   UNL     1      24.668  39.348  46.310  1.00  0.00     0.124 C 
BRANCH  12  13
HETATM   13  C   UNL     1      23.545  40.232  46.865  1.00  0.00     0.047 C 
BRANCH  13  14
HETATM   14  C   UNL     1      24.030  40.960  48.118  1.00  0.00     0.236 C 
BRANCH  14  15
HETATM   15  N   UNL     1      23.361  42.305  48.294  1.00  0.00    -0.068 N 
HETATM   16  H   UNL     1      22.484  42.318  47.755  1.00  0.00     0.280 HD
HETATM   17  C   UNL     1      22.966  42.514  49.773  1.00  0.00     0.254 C 
HETATM   18  C   UNL     1      22.314  43.895  49.993  1.00  0.00     0.150 C 
HETATM   19  N   UNL     1      23.164  44.980  49.472  1.00  0.00    -0.378 N 
HETATM   20  C   UNL     1      23.506  44.830  48.045  1.00  0.00     0.150 C 
HETATM   21  C   UNL     1      24.221  43.483  47.802  1.00  0.00     0.254 C 
BRANCH  19  22
HETATM   22  C   UNL     1      24.104  45.614  50.290  1.00  0.00     0.031 A 
HETATM   23  C   UNL     1      24.379  45.213  51.605  1.00  0.00     0.053 A 
HETATM   24  C   UNL     1      25.339  45.873  52.385  1.00  0.00     0.036 A 
HETATM   25 CL   UNL     1      25.666  45.305  53.977  1.00  0.00    -0.084 Cl
HETATM   26  C   UNL     1      26.033  46.966  51.887  1.00  0.00     0.024 A 
HETATM   27  C   UNL     1      25.756  47.409  50.598  1.00  0.00     0.004 A 
HETATM   28  C   UNL     1      24.803  46.741  49.819  1.00  0.00     0.029 A 
ENDBRANCH  19  22
ENDBRANCH  14  15
ENDBRANCH  13  14
ENDBRANCH  12  13
ENDBRANCH   9  12
ENDBRANCH   5   8
BRANCH   1  29
HETATM   29  C   UNL     1      27.237  40.851  51.175  1.00  0.00     0.296 C 
BRANCH  29  30
HETATM   30  C   UNL     1      27.808  42.026  51.877  1.00  0.00     0.092 A 
HETATM   31  C   UNL     1      27.863  43.336  51.454  1.00  0.00     0.078 A 
HETATM   32  C   UNL     1      27.426  44.068  50.250  1.00  0.00     0.079 C 
HETATM   33  O   UNL     1      28.469  44.060  52.433  1.00  0.00    -0.294 OA
HETATM   34  C   UNL     1      28.772  43.151  53.413  1.00  0.00     0.180 A 
HETATM   35  N   UNL     1      28.393  41.914  53.125  1.00  0.00    -0.224 NA
BRANCH  34  36
HETATM   36  C   UNL     1      29.429  43.680  54.606  1.00  0.00     0.017 A 
HETATM   37  C   UNL     1      29.060  44.918  55.161  1.00  0.00     0.017 A 
HETATM   38  C   UNL     1      29.692  45.407  56.308  1.00  0.00     0.025 A 
HETATM   39  C   UNL     1      30.700  44.662  56.913  1.00  0.00     0.034 A 
HETATM   40 CL   UNL     1      31.476  45.259  58.325  1.00  0.00    -0.084 Cl
HETATM   41  C   UNL     1      31.082  43.434  56.378  1.00  0.00     0.025 A 
HETATM   42  C   UNL     1      30.449  42.946  55.229  1.00  0.00     0.017 A 
ENDBRANCH  34  36
ENDBRANCH  29  30
ENDBRANCH   1  29
TORSDOF 9
ENDMDL
MODEL 6
REMARK VINA RESULT:      -9.2      1.752      2.361
REMARK  9 active torsions:
REMARK  status: ('A' for Active; 'I' for Inactive)
REMARK    1  A    between atoms: C_4  and  C_5 
REMARK    2  A    between atoms: C_13  and  C_14 
REMARK    3  A    between atoms: C_14  and  N_15 
REMARK    4  A    between atoms: C_19  and  C_20 
REMARK       I    between atoms: C_20  and  N_21 
REMARK    5  A    between atoms: N_21  and  C_22 
REMARK    6  A    between atoms: C_22  and  C_23 
REMARK    7  A    between atoms: C_23  and  C_24 
REMARK    8  A    between atoms: C_24  and  N_25 
REMARK    9  A    between atoms: N_29  and  C_30 
ROOT
HETATM    1  N   UNL     1      25.404  42.975  49.682  1.00  0.00    -0.066 N 
HETATM    2  H   UNL     1      25.364  42.573  50.632  1.00  0.00     0.280 HD
HETATM    3  C   UNL     1      24.076  43.645  49.440  1.00  0.00     0.236 C 
HETATM    4  C   UNL     1      22.967  42.603  49.309  1.00  0.00     0.042 C 
HETATM    5  C   UNL     1      23.261  41.589  48.203  1.00  0.00     0.081 C 
HETATM    6  C   UNL     1      24.613  40.924  48.465  1.00  0.00     0.042 C 
HETATM    7  C   UNL     1      25.757  41.903  48.686  1.00  0.00     0.236 C 
ENDROOT
BRANCH   5   8
HETATM    8  C   UNL     1      23.204  42.301  46.852  1.00  0.00     0.221 C 
HETATM    9  N   UNL     1      22.236  43.274  46.754  1.00  0.00    -0.361 N 
HETATM   10  H   UNL     1      21.611  43.428  47.539  1.00  0.00     0.162 HD
HETATM   11  O   UNL     1      24.040  42.103  45.974  1.00  0.00    -0.273 OA
BRANCH   9  12
HETATM   12  C   UNL     1      22.255  44.277  45.703  1.00  0.00     0.124 C 
BRANCH  12  13
HETATM   13  C   UNL     1      21.741  45.654  46.136  1.00  0.00     0.047 C 
BRANCH  13  14
HETATM   14  C   UNL     1      20.511  45.491  47.028  1.00  0.00     0.236 C 
BRANCH  14  15
HETATM   15  N   UNL     1      20.518  46.455  48.195  1.00  0.00    -0.068 N 
HETATM   16  H   UNL     1      21.009  46.020  48.987  1.00  0.00     0.280 HD
HETATM   17  C   UNL     1      21.318  47.725  47.830  1.00  0.00     0.254 C 
HETATM   18  C   UNL     1      21.312  48.746  48.987  1.00  0.00     0.150 C 
HETATM   19  N   UNL     1      19.941  49.045  49.434  1.00  0.00    -0.378 N 
HETATM   20  C   UNL     1      19.177  47.851  49.842  1.00  0.00     0.150 C 
HETATM   21  C   UNL     1      19.107  46.836  48.680  1.00  0.00     0.254 C 
BRANCH  19  22
HETATM   22  C   UNL     1      19.218  50.105  48.878  1.00  0.00     0.031 A 
HETATM   23  C   UNL     1      18.387  50.951  49.629  1.00  0.00     0.053 A 
HETATM   24  C   UNL     1      17.689  52.009  49.030  1.00  0.00     0.036 A 
HETATM   25 CL   UNL     1      16.721  53.040  50.011  1.00  0.00    -0.084 Cl
HETATM   26  C   UNL     1      17.779  52.240  47.665  1.00  0.00     0.024 A 
HETATM   27  C   UNL     1      18.567  51.397  46.890  1.00  0.00     0.004 A 
HETATM   28  C   UNL     1      19.270  50.347  47.493  1.00  0.00     0.029 A 
ENDBRANCH  19  22
ENDBRANCH  14  15
ENDBRANCH  13  14
ENDBRANCH  12  13
ENDBRANCH   9  12
ENDBRANCH   5   8
BRANCH   1  29
HETATM   29  C   UNL     1      26.546  43.987  49.755  1.00  0.00     0.296 C 
BRANCH  29  30
HETATM   30  C   UNL     1      26.937  44.399  51.124  1.00  0.00     0.092 A 
HETATM   31  C   UNL     1      26.336  45.325  51.947  1.00  0.00     0.078 A 
HETATM   32  C   UNL     1      25.166  46.219  51.842  1.00  0.00     0.079 C 
HETATM   33  O   UNL     1      27.039  45.362  53.111  1.00  0.00    -0.294 OA
HETATM   34  C   UNL     1      28.055  44.459  52.941  1.00  0.00     0.180 A 
HETATM   35  N   UNL     1      28.035  43.853  51.762  1.00  0.00    -0.224 NA
BRANCH  34  36
HETATM   36  C   UNL     1      28.968  44.291  54.070  1.00  0.00     0.017 A 
HETATM   37  C   UNL     1      29.824  43.179  54.163  1.00  0.00     0.017 A 
HETATM   38  C   UNL     1      30.698  43.035  55.245  1.00  0.00     0.025 A 
HETATM   39  C   UNL     1      30.723  44.002  56.246  1.00  0.00     0.034 A 
HETATM   40 CL   UNL     1      31.799  43.830  57.574  1.00  0.00    -0.084 Cl
HETATM   41  C   UNL     1      29.882  45.110  56.173  1.00  0.00     0.025 A 
HETATM   42  C   UNL     1      29.008  45.252  55.090  1.00  0.00     0.017 A 
ENDBRANCH  34  36
ENDBRANCH  29  30
ENDBRANCH   1  29
TORSDOF 9
ENDMDL
MODEL 7
REMARK VINA RESULT:      -9.2      4.157      8.152
REMARK  9 active torsions:
REMARK  status: ('A' for Active; 'I' for Inactive)
REMARK    1  A    between atoms: C_4  and  C_5 
REMARK    2  A    between atoms: C_13  and  C_14 
REMARK    3  A    between atoms: C_14  and  N_15 
REMARK    4  A    between atoms: C_19  and  C_20 
REMARK       I    between atoms: C_20  and  N_21 
REMARK    5  A    between atoms: N_21  and  C_22 
REMARK    6  A    between atoms: C_22  and  C_23 
REMARK    7  A    between atoms: C_23  and  C_24 
REMARK    8  A    between atoms: C_24  and  N_25 
REMARK    9  A    between atoms: N_29  and  C_30 
ROOT
HETATM    1  N   UNL     1      21.768  50.170  48.292  1.00  0.00    -0.066 N 
HETATM    2  H   UNL     1      22.230  51.018  47.928  1.00  0.00     0.280 HD
HETATM    3  C   UNL     1      20.387  50.137  47.688  1.00  0.00     0.236 C 
HETATM    4  C   UNL     1      19.523  51.256  48.265  1.00  0.00     0.042 C 
HETATM    5  C   UNL     1      19.439  51.185  49.790  1.00  0.00     0.081 C 
HETATM    6  C   UNL     1      20.847  51.216  50.383  1.00  0.00     0.042 C 
HETATM    7  C   UNL     1      21.793  50.177  49.797  1.00  0.00     0.236 C 
ENDROOT
BRANCH   5   8
HETATM    8  C   UNL     1      18.658  49.932  50.184  1.00  0.00     0.221 C 
HETATM    9  N   UNL     1      17.952  49.346  49.159  1.00  0.00    -0.361 N 
HETATM   10  H   UNL     1      17.955  49.787  48.244  1.00  0.00     0.162 HD
HETATM   11  O   UNL     1      18.760  49.422  51.298  1.00  0.00    -0.273 OA
BRANCH   9  12
HETATM   12  C   UNL     1      17.449  47.986  49.247  1.00  0.00     0.124 C 
BRANCH  12  13
HETATM   13  C   UNL     1      17.192  47.319  47.891  1.00  0.00     0.047 C 
BRANCH  13  14
HETATM   14  C   UNL     1      17.681  45.872  47.925  1.00  0.00     0.236 C 
BRANCH  14  15
HETATM   15  N   UNL     1      18.864  45.646  47.008  1.00  0.00    -0.068 N 
HETATM   16  H   UNL     1      18.790  46.279  46.201  1.00  0.00     0.280 HD
HETATM   17  C   UNL     1      20.177  46.018  47.734  1.00  0.00     0.254 C 
HETATM   18  C   UNL     1      21.407  45.762  46.838  1.00  0.00     0.150 C 
HETATM   19  N   UNL     1      21.415  44.386  46.315  1.00  0.00    -0.378 N 
HETATM   20  C   UNL     1      20.194  44.029  45.568  1.00  0.00     0.150 C 
HETATM   21  C   UNL     1      18.947  44.210  46.461  1.00  0.00     0.254 C 
BRANCH  19  22
HETATM   22  C   UNL     1      22.065  43.358  47.004  1.00  0.00     0.031 A 
HETATM   23  C   UNL     1      21.949  42.003  46.660  1.00  0.00     0.053 A 
HETATM   24  C   UNL     1      22.628  41.006  47.374  1.00  0.00     0.036 A 
HETATM   25 CL   UNL     1      22.482  39.365  46.874  1.00  0.00    -0.084 Cl
HETATM   26  C   UNL     1      23.422  41.327  48.465  1.00  0.00     0.024 A 
HETATM   27  C   UNL     1      23.528  42.658  48.852  1.00  0.00     0.004 A 
HETATM   28  C   UNL     1      22.856  43.652  48.131  1.00  0.00     0.029 A 
ENDBRANCH  19  22
ENDBRANCH  14  15
ENDBRANCH  13  14
ENDBRANCH  12  13
ENDBRANCH   9  12
ENDBRANCH   5   8
BRANCH   1  29
HETATM   29  C   UNL     1      22.638  49.024  47.782  1.00  0.00     0.296 C 
BRANCH  29  30
HETATM   30  C   UNL     1      23.708  48.583  48.710  1.00  0.00     0.092 A 
HETATM   31  C   UNL     1      24.989  49.071  48.837  1.00  0.00     0.078 A 
HETATM   32  C   UNL     1      25.778  50.130  48.178  1.00  0.00     0.079 C 
HETATM   33  O   UNL     1      25.605  48.364  49.823  1.00  0.00    -0.294 OA
HETATM   34  C   UNL     1      24.669  47.459  50.249  1.00  0.00     0.180 A 
HETATM   35  N   UNL     1      23.511  47.553  49.611  1.00  0.00    -0.224 NA
BRANCH  34  36
HETATM   36  C   UNL     1      25.075  46.569  51.334  1.00  0.00     0.017 A 
HETATM   37  C   UNL     1      25.843  47.033  52.417  1.00  0.00     0.017 A 
HETATM   38  C   UNL     1      26.217  46.171  53.452  1.00  0.00     0.025 A 
HETATM   39  C   UNL     1      25.828  44.835  53.414  1.00  0.00     0.034 A 
HETATM   40 CL   UNL     1      26.284  43.775  54.687  1.00  0.00    -0.084 Cl
HETATM   41  C   UNL     1      25.070  44.355  52.350  1.00  0.00     0.025 A 
HETATM   42  C   UNL     1      24.696  45.219  51.314  1.00  0.00     0.017 A 
ENDBRANCH  34  36
ENDBRANCH  29  30
ENDBRANCH   1  29
TORSDOF 9
ENDMDL
MODEL 8
REMARK VINA RESULT:      -9.1      3.595     10.551
REMARK  9 active torsions:
REMARK  status: ('A' for Active; 'I' for Inactive)
REMARK    1  A    between atoms: C_4  and  C_5 
REMARK    2  A    between atoms: C_13  and  C_14 
REMARK    3  A    between atoms: C_14  and  N_15 
REMARK    4  A    between atoms: C_19  and  C_20 
REMARK       I    between atoms: C_20  and  N_21 
REMARK    5  A    between atoms: N_21  and  C_22 
REMARK    6  A    between atoms: C_22  and  C_23 
REMARK    7  A    between atoms: C_23  and  C_24 
REMARK    8  A    between atoms: C_24  and  N_25 
REMARK    9  A    between atoms: N_29  and  C_30 
ROOT
HETATM    1  N   UNL     1      25.321  45.703  51.908  1.00  0.00    -0.066 N 
HETATM    2  H   UNL     1      24.482  46.234  52.190  1.00  0.00     0.280 HD
HETATM    3  C   UNL     1      25.091  44.274  52.330  1.00  0.00     0.236 C 
HETATM    4  C   UNL     1      25.122  44.153  53.852  1.00  0.00     0.042 C 
HETATM    5  C   UNL     1      26.433  44.677  54.440  1.00  0.00     0.081 C 
HETATM    6  C   UNL     1      26.650  46.125  53.999  1.00  0.00     0.042 C 
HETATM    7  C   UNL     1      26.553  46.339  52.495  1.00  0.00     0.236 C 
ENDROOT
BRANCH   5   8
HETATM    8  C   UNL     1      27.571  43.752  54.014  1.00  0.00     0.221 C 
HETATM    9  N   UNL     1      27.265  42.410  54.040  1.00  0.00    -0.361 N 
HETATM   10  H   UNL     1      26.349  42.121  54.370  1.00  0.00     0.162 HD
HETATM   11  O   UNL     1      28.630  44.183  53.564  1.00  0.00    -0.273 OA
BRANCH   9  12
HETATM   12  C   UNL     1      28.075  41.421  53.351  1.00  0.00     0.124 C 
BRANCH  12  13
HETATM   13  C   UNL     1      27.641  41.144  51.907  1.00  0.00     0.047 C 
BRANCH  13  14
HETATM   14  C   UNL     1      28.629  40.188  51.242  1.00  0.00     0.236 C 
BRANCH  14  15
HETATM   15  N   UNL     1      28.219  39.830  49.830  1.00  0.00    -0.068 N 
HETATM   16  H   UNL     1      28.873  39.129  49.457  1.00  0.00     0.280 HD
HETATM   17  C   UNL     1      26.823  39.167  49.835  1.00  0.00     0.254 C 
HETATM   18  C   UNL     1      26.358  38.823  48.404  1.00  0.00     0.150 C 
HETATM   19  N   UNL     1      26.427  39.999  47.520  1.00  0.00    -0.378 N 
HETATM   20  C   UNL     1      27.766  40.615  47.456  1.00  0.00     0.150 C 
HETATM   21  C   UNL     1      28.233  41.031  48.868  1.00  0.00     0.254 C 
BRANCH  19  22
HETATM   22  C   UNL     1      25.327  40.848  47.363  1.00  0.00     0.031 A 
HETATM   23  C   UNL     1      24.648  41.439  48.439  1.00  0.00     0.053 A 
HETATM   24  C   UNL     1      23.556  42.292  48.234  1.00  0.00     0.036 A 
HETATM   25 CL   UNL     1      22.792  43.025  49.592  1.00  0.00    -0.084 Cl
HETATM   26  C   UNL     1      23.093  42.562  46.954  1.00  0.00     0.024 A 
HETATM   27  C   UNL     1      23.723  41.963  45.870  1.00  0.00     0.004 A 
HETATM   28  C   UNL     1      24.820  41.118  46.078  1.00  0.00     0.029 A 
ENDBRANCH  19  22
ENDBRANCH  14  15
ENDBRANCH  13  14
ENDBRANCH  12  13
ENDBRANCH   9  12
ENDBRANCH   5   8
BRANCH   1  29
HETATM   29  C   UNL     1      25.359  45.848  50.389  1.00  0.00     0.296 C 
BRANCH  29  30
HETATM   30  C   UNL     1      24.841  47.135  49.864  1.00  0.00     0.092 A 
HETATM   31  C   UNL     1      25.546  48.261  49.503  1.00  0.00     0.078 A 
HETATM   32  C   UNL     1      26.971  48.644  49.480  1.00  0.00     0.079 C 
HETATM   33  O   UNL     1      24.650  49.189  49.071  1.00  0.00    -0.294 OA
HETATM   34  C   UNL     1      23.425  48.588  49.201  1.00  0.00     0.180 A 
HETATM   35  N   UNL     1      23.488  47.351  49.673  1.00  0.00    -0.224 NA
BRANCH  34  36
HETATM   36  C   UNL     1      22.268  49.378  48.785  1.00  0.00     0.017 A 
HETATM   37  C   UNL     1      21.268  48.837  47.958  1.00  0.00     0.017 A 
HETATM   38  C   UNL     1      20.163  49.602  47.575  1.00  0.00     0.025 A 
HETATM   39  C   UNL     1      20.046  50.917  48.016  1.00  0.00     0.034 A 
HETATM   40 CL   UNL     1      18.687  51.858  47.549  1.00  0.00    -0.084 Cl
HETATM   41  C   UNL     1      21.026  51.472  48.834  1.00  0.00     0.025 A 
HETATM   42  C   UNL     1      22.133  50.705  49.217  1.00  0.00     0.017 A 
ENDBRANCH  34  36
ENDBRANCH  29  30
ENDBRANCH   1  29
TORSDOF 9
ENDMDL
MODEL 9
REMARK VINA RESULT:      -9.1      7.634     10.538
REMARK  9 active torsions:
REMARK  status: ('A' for Active; 'I' for Inactive)
REMARK    1  A    between atoms: C_4  and  C_5 
REMARK    2  A    between atoms: C_13  and  C_14 
REMARK    3  A    between atoms: C_14  and  N_15 
REMARK    4  A    between atoms: C_19  and  C_20 
REMARK       I    between atoms: C_20  and  N_21 
REMARK    5  A    between atoms: N_21  and  C_22 
REMARK    6  A    between atoms: C_22  and  C_23 
REMARK    7  A    between atoms: C_23  and  C_24 
REMARK    8  A    between atoms: C_24  and  N_25 
REMARK    9  A    between atoms: N_29  and  C_30 
ROOT
HETATM    1  N   UNL     1      27.479  40.888  49.490  1.00  0.00    -0.066 N 
HETATM    2  H   UNL     1      27.429  41.909  49.349  1.00  0.00     0.280 HD
HETATM    3  C   UNL     1      28.399  40.349  48.424  1.00  0.00     0.236 C 
HETATM    4  C   UNL     1      27.745  40.458  47.048  1.00  0.00     0.042 C 
HETATM    5  C   UNL     1      26.394  39.743  46.998  1.00  0.00     0.081 C 
HETATM    6  C   UNL     1      25.479  40.300  48.088  1.00  0.00     0.042 C 
HETATM    7  C   UNL     1      26.094  40.298  49.480  1.00  0.00     0.236 C 
ENDROOT
BRANCH   5   8
HETATM    8  C   UNL     1      26.627  38.238  47.133  1.00  0.00     0.221 C 
HETATM    9  N   UNL     1      25.635  37.559  47.803  1.00  0.00    -0.361 N 
HETATM   10  H   UNL     1      24.857  38.083  48.193  1.00  0.00     0.162 HD
HETATM   11  O   UNL     1      27.562  37.669  46.575  1.00  0.00    -0.273 OA
BRANCH   9  12
HETATM   12  C   UNL     1      25.503  36.115  47.727  1.00  0.00     0.124 C 
BRANCH  12  13
HETATM   13  C   UNL     1      24.272  35.634  46.951  1.00  0.00     0.047 C 
BRANCH  13  14
HETATM   14  C   UNL     1      23.227  36.747  46.895  1.00  0.00     0.236 C 
BRANCH  14  15
HETATM   15  N   UNL     1      22.046  36.470  47.800  1.00  0.00    -0.068 N 
HETATM   16  H   UNL     1      22.111  37.072  48.631  1.00  0.00     0.280 HD
HETATM   17  C   UNL     1      20.729  36.851  47.087  1.00  0.00     0.254 C 
HETATM   18  C   UNL     1      19.502  36.544  47.970  1.00  0.00     0.150 C 
HETATM   19  N   UNL     1      19.512  35.149  48.440  1.00  0.00    -0.378 N 
HETATM   20  C   UNL     1      20.737  34.780  49.174  1.00  0.00     0.150 C 
HETATM   21  C   UNL     1      21.983  35.012  48.291  1.00  0.00     0.254 C 
BRANCH  19  22
HETATM   22  C   UNL     1      18.877  34.139  47.710  1.00  0.00     0.031 A 
HETATM   23  C   UNL     1      18.732  32.824  48.176  1.00  0.00     0.053 A 
HETATM   24  C   UNL     1      18.079  31.846  47.413  1.00  0.00     0.036 A 
HETATM   25 CL   UNL     1      17.892  30.261  48.058  1.00  0.00    -0.084 Cl
HETATM   26  C   UNL     1      17.573  32.144  46.156  1.00  0.00     0.024 A 
HETATM   27  C   UNL     1      17.732  33.429  45.653  1.00  0.00     0.004 A 
HETATM   28  C   UNL     1      18.377  34.406  46.422  1.00  0.00     0.029 A 
ENDBRANCH  19  22
ENDBRANCH  14  15
ENDBRANCH  13  14
ENDBRANCH  12  13
ENDBRANCH   9  12
ENDBRANCH   5   8
BRANCH   1  29
HETATM   29  C   UNL     1      28.078  40.735  50.887  1.00  0.00     0.296 C 
BRANCH  29  30
HETATM   30  C   UNL     1      28.203  41.993  51.661  1.00  0.00     0.092 A 
HETATM   31  C   UNL     1      27.716  43.244  51.351  1.00  0.00     0.078 A 
HETATM   32  C   UNL     1      26.941  43.821  50.236  1.00  0.00     0.079 C 
HETATM   33  O   UNL     1      28.066  44.085  52.361  1.00  0.00    -0.294 OA
HETATM   34  C   UNL     1      28.769  43.308  53.244  1.00  0.00     0.180 A 
HETATM   35  N   UNL     1      28.877  42.041  52.867  1.00  0.00    -0.224 NA
BRANCH  34  36
HETATM   36  C   UNL     1      29.258  43.975  54.448  1.00  0.00     0.017 A 
HETATM   37  C   UNL     1      28.656  45.149  54.934  1.00  0.00     0.017 A 
HETATM   38  C   UNL     1      29.129  45.772  56.092  1.00  0.00     0.025 A 
HETATM   39  C   UNL     1      30.212  45.228  56.777  1.00  0.00     0.034 A 
HETATM   40 CL   UNL     1      30.794  45.989  58.203  1.00  0.00    -0.084 Cl
HETATM   41  C   UNL     1      30.824  44.067  56.311  1.00  0.00     0.025 A 
HETATM   42  C   UNL     1      30.349  43.444  55.151  1.00  0.00     0.017 A 
ENDBRANCH  34  36
ENDBRANCH  29  30
ENDBRANCH   1  29
TORSDOF 9
ENDMDL
MODEL 10
REMARK VINA RESULT:      -9.0      4.535     14.230
REMARK  9 active torsions:
REMARK  status: ('A' for Active; 'I' for Inactive)
REMARK    1  A    between atoms: C_4  and  C_5 
REMARK    2  A    between atoms: C_13  and  C_14 
REMARK    3  A    between atoms: C_14  and  N_15 
REMARK    4  A    between atoms: C_19  and  C_20 
REMARK       I    between atoms: C_20  and  N_21 
REMARK    5  A    between atoms: N_21  and  C_22 
REMARK    6  A    between atoms: C_22  and  C_23 
REMARK    7  A    between atoms: C_23  and  C_24 
REMARK    8  A    between atoms: C_24  and  N_25 
REMARK    9  A    between atoms: N_29  and  C_30 
ROOT
HETATM    1  N   UNL     1      18.727  49.901  47.864  1.00  0.00    -0.066 N 
HETATM    2  H   UNL     1      17.824  50.132  48.307  1.00  0.00     0.280 HD
HETATM    3  C   UNL     1      19.351  48.812  48.700  1.00  0.00     0.236 C 
HETATM    4  C   UNL     1      19.783  49.360  50.058  1.00  0.00     0.042 C 
HETATM    5  C   UNL     1      20.744  50.542  49.918  1.00  0.00     0.081 C 
HETATM    6  C   UNL     1      20.095  51.632  49.065  1.00  0.00     0.042 C 
HETATM    7  C   UNL     1      19.565  51.143  47.725  1.00  0.00     0.236 C 
ENDROOT
BRANCH   5   8
HETATM    8  C   UNL     1      22.063  50.039  49.332  1.00  0.00     0.221 C 
HETATM    9  N   UNL     1      22.415  48.764  49.712  1.00  0.00    -0.361 N 
HETATM   10  H   UNL     1      21.822  48.265  50.370  1.00  0.00     0.162 HD
HETATM   11  O   UNL     1      22.689  50.678  48.490  1.00  0.00    -0.273 OA
BRANCH   9  12
HETATM   12  C   UNL     1      23.424  47.998  49.002  1.00  0.00     0.124 C 
BRANCH  12  13
HETATM   13  C   UNL     1      23.965  46.793  49.780  1.00  0.00     0.047 C 
BRANCH  13  14
HETATM   14  C   UNL     1      25.184  47.211  50.601  1.00  0.00     0.236 C 
BRANCH  14  15
HETATM   15  N   UNL     1      25.122  46.694  52.022  1.00  0.00    -0.068 N 
HETATM   16  H   UNL     1      24.262  47.039  52.468  1.00  0.00     0.280 HD
HETATM   17  C   UNL     1      25.026  45.152  52.022  1.00  0.00     0.254 C 
HETATM   18  C   UNL     1      24.999  44.589  53.459  1.00  0.00     0.150 C 
HETATM   19  N   UNL     1      26.134  45.089  54.253  1.00  0.00    -0.378 N 
HETATM   20  C   UNL     1      26.212  46.561  54.314  1.00  0.00     0.150 C 
HETATM   21  C   UNL     1      26.307  47.153  52.890  1.00  0.00     0.254 C 
BRANCH  19  22
HETATM   22  C   UNL     1      27.340  44.384  54.308  1.00  0.00     0.031 A 
HETATM   23  C   UNL     1      27.520  43.116  53.737  1.00  0.00     0.053 A 
HETATM   24  C   UNL     1      28.752  42.450  53.808  1.00  0.00     0.036 A 
HETATM   25 CL   UNL     1      28.925  40.915  53.048  1.00  0.00    -0.084 Cl
HETATM   26  C   UNL     1      29.831  43.017  54.471  1.00  0.00     0.024 A 
HETATM   27  C   UNL     1      29.672  44.258  55.077  1.00  0.00     0.004 A 
HETATM   28  C   UNL     1      28.443  44.924  54.996  1.00  0.00     0.029 A 
ENDBRANCH  19  22
ENDBRANCH  14  15
ENDBRANCH  13  14
ENDBRANCH  12  13
ENDBRANCH   9  12
ENDBRANCH   5   8
BRANCH   1  29
HETATM   29  C   UNL     1      18.341  49.399  46.475  1.00  0.00     0.296 C 
BRANCH  29  30
HETATM   30  C   UNL     1      17.546  50.349  45.659  1.00  0.00     0.092 A 
HETATM   31  C   UNL     1      16.338  50.938  45.960  1.00  0.00     0.078 A 
HETATM   32  C   UNL     1      15.403  50.889  47.100  1.00  0.00     0.079 C 
HETATM   33  O   UNL     1      15.999  51.742  44.916  1.00  0.00    -0.294 OA
HETATM   34  C   UNL     1      17.017  51.597  44.010  1.00  0.00     0.180 A 
HETATM   35  N   UNL     1      17.973  50.771  44.413  1.00  0.00    -0.224 NA
BRANCH  34  36
HETATM   36  C   UNL     1      16.906  52.378  42.781  1.00  0.00     0.017 A 
HETATM   37  C   UNL     1      17.878  52.296  41.767  1.00  0.00     0.017 A 
HETATM   38  C   UNL     1      17.754  53.043  40.592  1.00  0.00     0.025 A 
HETATM   39  C   UNL     1      16.657  53.882  40.419  1.00  0.00     0.034 A 
HETATM   40 CL   UNL     1      16.500  54.798  38.974  1.00  0.00    -0.084 Cl
HETATM   41  C   UNL     1      15.684  53.979  41.411  1.00  0.00     0.025 A 
HETATM   42  C   UNL     1      15.810  53.231  42.587  1.00  0.00     0.017 A 
ENDBRANCH  34  36
ENDBRANCH  29  30
ENDBRANCH   1  29
TORSDOF 9
ENDMDL
