MODEL 1
REMARK VINA RESULT:      -9.6      0.000      0.000
REMARK  3 active torsions:
REMARK  status: ('A' for Active; 'I' for Inactive)
REMARK    1  A    between atoms: C_8  and  C_9 
REMARK       I    between atoms: C_9  and  N_10 
REMARK    2  A    between atoms: C_13  and  O_14 
REMARK    3  A    between atoms: C_13  and  C_15 
ROOT
HETATM    1  C   UNL     1      26.604  45.450  50.123  1.00  0.00     0.259 C 
HETATM    2  N   UNL     1      26.561  44.952  51.438  1.00  0.00    -0.348 N 
HETATM    3  C   UNL     1      26.033  45.696  52.579  1.00  0.00     0.129 C 
HETATM    4  C   UNL     1      25.605  44.809  53.746  1.00  0.00     0.063 C 
HETATM    5  C   UNL     1      26.693  43.795  54.148  1.00  0.00     0.088 C 
HETATM    6  C   UNL     1      26.975  42.967  52.881  1.00  0.00     0.063 C 
HETATM    7  C   UNL     1      27.468  43.846  51.739  1.00  0.00     0.129 C 
HETATM    8  O   UNL     1      27.135  44.796  49.222  1.00  0.00    -0.267 OA
ENDROOT
BRANCH   1   9
HETATM    9  C   UNL     1      25.956  46.704  49.769  1.00  0.00     0.099 A 
HETATM   10  C   UNL     1      24.659  46.989  49.371  1.00  0.00     0.168 A 
HETATM   11  N   UNL     1      23.569  46.195  49.127  1.00  0.00    -0.233 NA
HETATM   12  N   UNL     1      24.583  48.388  49.251  1.00  0.00    -0.219 N 
HETATM   13  C   UNL     1      22.478  46.787  48.739  1.00  0.00     0.035 A 
HETATM   14  C   UNL     1      21.269  45.937  48.441  1.00  0.00     0.070 C 
HETATM   15  C   UNL     1      22.314  48.263  48.576  1.00  0.00     0.053 A 
HETATM   16  C   UNL     1      23.394  49.015  48.850  1.00  0.00     0.036 A 
HETATM   17  C   UNL     1      23.385  50.510  48.753  1.00  0.00     0.070 C 
HETATM   18  N   UNL     1      25.758  48.983  49.571  1.00  0.00    -0.177 NA
HETATM   19  C   UNL     1      26.554  47.974  49.914  1.00  0.00     0.160 A 
ENDBRANCH   1   9
BRANCH   5  20
HETATM   20  O   UNL     1      26.088  42.908  55.106  1.00  0.00    -0.385 OA
HETATM   21  H   UNL     1      25.422  43.410  55.605  1.00  0.00     0.211 HD
ENDBRANCH   5  20
BRANCH   5  22
HETATM   22  C   UNL     1      27.951  44.373  54.809  1.00  0.00    -0.024 A 
HETATM   23  C   UNL     1      27.954  45.604  55.488  1.00  0.00     0.010 A 
HETATM   24  C   UNL     1      29.116  46.103  56.086  1.00  0.00     0.001 A 
HETATM   25  C   UNL     1      30.298  45.373  56.038  1.00  0.00     0.000 A 
HETATM   26  C   UNL     1      30.314  44.134  55.407  1.00  0.00     0.001 A 
HETATM   27  C   UNL     1      29.153  43.637  54.812  1.00  0.00     0.010 A 
ENDBRANCH   5  22
TORSDOF 3
ENDMDL
MODEL 2
REMARK VINA RESULT:      -9.0      1.015      2.293
REMARK  3 active torsions:
REMARK  status: ('A' for Active; 'I' for Inactive)
REMARK    1  A    between atoms: C_8  and  C_9 
REMARK       I    between atoms: C_9  and  N_10 
REMARK    2  A    between atoms: C_13  and  O_14 
REMARK    3  A    between atoms: C_13  and  C_15 
ROOT
HETATM    1  C   UNL     1      26.068  44.967  50.077  1.00  0.00     0.259 C 
HETATM    2  N   UNL     1      26.163  44.543  51.415  1.00  0.00    -0.348 N 
HETATM    3  C   UNL     1      25.524  45.224  52.539  1.00  0.00     0.129 C 
HETATM    4  C   UNL     1      25.319  44.332  53.762  1.00  0.00     0.063 C 
HETATM    5  C   UNL     1      26.603  43.585  54.171  1.00  0.00     0.088 C 
HETATM    6  C   UNL     1      27.016  42.766  52.934  1.00  0.00     0.063 C 
HETATM    7  C   UNL     1      27.287  43.664  51.735  1.00  0.00     0.129 C 
HETATM    8  O   UNL     1      26.698  44.388  49.190  1.00  0.00    -0.267 OA
ENDROOT
BRANCH   1   9
HETATM    9  C   UNL     1      25.166  46.041  49.688  1.00  0.00     0.099 A 
HETATM   10  C   UNL     1      25.407  47.352  49.310  1.00  0.00     0.168 A 
HETATM   11  N   UNL     1      26.556  48.095  49.222  1.00  0.00    -0.233 NA
HETATM   12  N   UNL     1      24.160  47.897  48.959  1.00  0.00    -0.219 N 
HETATM   13  C   UNL     1      26.435  49.333  48.843  1.00  0.00     0.035 A 
HETATM   14  C   UNL     1      27.679  50.181  48.760  1.00  0.00     0.070 C 
HETATM   15  C   UNL     1      25.150  49.993  48.464  1.00  0.00     0.053 A 
HETATM   16  C   UNL     1      24.046  49.229  48.534  1.00  0.00     0.036 A 
HETATM   17  C   UNL     1      22.686  49.737  48.167  1.00  0.00     0.070 C 
HETATM   18  N   UNL     1      23.163  46.986  49.083  1.00  0.00    -0.177 NA
HETATM   19  C   UNL     1      23.780  45.876  49.480  1.00  0.00     0.160 A 
ENDBRANCH   1   9
BRANCH   5  20
HETATM   20  O   UNL     1      26.220  42.647  55.191  1.00  0.00    -0.385 OA
HETATM   21  H   UNL     1      26.527  42.990  56.049  1.00  0.00     0.211 HD
ENDBRANCH   5  20
BRANCH   5  22
HETATM   22  C   UNL     1      27.733  44.444  54.757  1.00  0.00    -0.024 A 
HETATM   23  C   UNL     1      27.534  45.769  55.183  1.00  0.00     0.010 A 
HETATM   24  C   UNL     1      28.583  46.525  55.719  1.00  0.00     0.001 A 
HETATM   25  C   UNL     1      29.848  45.967  55.860  1.00  0.00     0.000 A 
HETATM   26  C   UNL     1      30.063  44.648  55.481  1.00  0.00     0.001 A 
HETATM   27  C   UNL     1      29.015  43.893  54.948  1.00  0.00     0.010 A 
ENDBRANCH   5  22
TORSDOF 3
ENDMDL
MODEL 3
REMARK VINA RESULT:      -8.1      2.265      3.706
REMARK  3 active torsions:
REMARK  status: ('A' for Active; 'I' for Inactive)
REMARK    1  A    between atoms: C_8  and  C_9 
REMARK       I    between atoms: C_9  and  N_10 
REMARK    2  A    between atoms: C_13  and  O_14 
REMARK    3  A    between atoms: C_13  and  C_15 
ROOT
HETATM    1  C   UNL     1      25.103  49.065  48.626  1.00  0.00     0.259 C 
HETATM    2  N   UNL     1      25.289  47.885  49.369  1.00  0.00    -0.348 N 
HETATM    3  C   UNL     1      24.265  47.283  50.220  1.00  0.00     0.129 C 
HETATM    4  C   UNL     1      24.487  45.795  50.487  1.00  0.00     0.063 C 
HETATM    5  C   UNL     1      25.918  45.487  50.967  1.00  0.00     0.088 C 
HETATM    6  C   UNL     1      26.848  46.008  49.856  1.00  0.00     0.063 C 
HETATM    7  C   UNL     1      26.674  47.505  49.640  1.00  0.00     0.129 C 
HETATM    8  O   UNL     1      26.036  49.560  47.991  1.00  0.00    -0.267 OA
ENDROOT
BRANCH   1   9
HETATM    9  C   UNL     1      23.794  49.691  48.518  1.00  0.00     0.099 A 
HETATM   10  C   UNL     1      22.582  49.213  48.041  1.00  0.00     0.168 A 
HETATM   11  N   UNL     1      22.217  48.023  47.469  1.00  0.00    -0.233 NA
HETATM   12  N   UNL     1      21.641  50.233  48.267  1.00  0.00    -0.219 N 
HETATM   13  C   UNL     1      20.975  47.895  47.106  1.00  0.00     0.035 A 
HETATM   14  C   UNL     1      20.548  46.606  46.451  1.00  0.00     0.070 C 
HETATM   15  C   UNL     1      19.914  48.930  47.297  1.00  0.00     0.053 A 
HETATM   16  C   UNL     1      20.300  50.075  47.887  1.00  0.00     0.036 A 
HETATM   17  C   UNL     1      19.351  51.200  48.168  1.00  0.00     0.070 C 
HETATM   18  N   UNL     1      22.202  51.307  48.874  1.00  0.00    -0.177 NA
HETATM   19  C   UNL     1      23.473  50.957  49.052  1.00  0.00     0.160 A 
ENDBRANCH   1   9
BRANCH   5  20
HETATM   20  O   UNL     1      26.041  44.054  50.985  1.00  0.00    -0.385 OA
HETATM   21  H   UNL     1      25.238  43.686  51.392  1.00  0.00     0.211 HD
ENDBRANCH   5  20
BRANCH   5  22
HETATM   22  C   UNL     1      26.285  45.983  52.373  1.00  0.00    -0.024 A 
HETATM   23  C   UNL     1      25.709  47.130  52.947  1.00  0.00     0.010 A 
HETATM   24  C   UNL     1      26.061  47.554  54.234  1.00  0.00     0.001 A 
HETATM   25  C   UNL     1      26.980  46.829  54.984  1.00  0.00     0.000 A 
HETATM   26  C   UNL     1      27.536  45.670  54.455  1.00  0.00     0.001 A 
HETATM   27  C   UNL     1      27.183  45.247  53.171  1.00  0.00     0.010 A 
ENDBRANCH   5  22
TORSDOF 3
ENDMDL
MODEL 4
REMARK VINA RESULT:      -8.1      4.105      9.714
REMARK  3 active torsions:
REMARK  status: ('A' for Active; 'I' for Inactive)
REMARK    1  A    between atoms: C_8  and  C_9 
REMARK       I    between atoms: C_9  and  N_10 
REMARK    2  A    between atoms: C_13  and  O_14 
REMARK    3  A    between atoms: C_13  and  C_15 
ROOT
HETATM    1  C   UNL     1      23.008  49.252  49.261  1.00  0.00     0.259 C 
HETATM    2  N   UNL     1      21.648  49.601  49.353  1.00  0.00    -0.348 N 
HETATM    3  C   UNL     1      20.551  48.635  49.356  1.00  0.00     0.129 C 
HETATM    4  C   UNL     1      19.264  49.170  49.980  1.00  0.00     0.063 C 
HETATM    5  C   UNL     1      18.851  50.537  49.404  1.00  0.00     0.088 C 
HETATM    6  C   UNL     1      20.042  51.476  49.671  1.00  0.00     0.063 C 
HETATM    7  C   UNL     1      21.309  50.976  48.990  1.00  0.00     0.129 C 
HETATM    8  O   UNL     1      23.875  50.124  49.184  1.00  0.00    -0.267 OA
ENDROOT
BRANCH   1   9
HETATM    9  C   UNL     1      23.437  47.863  49.334  1.00  0.00     0.099 A 
HETATM   10  C   UNL     1      24.226  47.192  50.255  1.00  0.00     0.168 A 
HETATM   11  N   UNL     1      24.907  47.608  51.369  1.00  0.00    -0.233 NA
HETATM   12  N   UNL     1      24.226  45.841  49.864  1.00  0.00    -0.219 N 
HETATM   13  C   UNL     1      25.586  46.710  52.020  1.00  0.00     0.035 A 
HETATM   14  C   UNL     1      26.365  47.143  53.237  1.00  0.00     0.070 C 
HETATM   15  C   UNL     1      25.649  45.260  51.668  1.00  0.00     0.053 A 
HETATM   16  C   UNL     1      24.948  44.880  50.586  1.00  0.00     0.036 A 
HETATM   17  C   UNL     1      24.893  43.459  50.116  1.00  0.00     0.070 C 
HETATM   18  N   UNL     1      23.464  45.640  48.761  1.00  0.00    -0.177 NA
HETATM   19  C   UNL     1      22.970  46.842  48.479  1.00  0.00     0.160 A 
ENDBRANCH   1   9
BRANCH   5  20
HETATM   20  O   UNL     1      17.756  51.005  50.210  1.00  0.00    -0.385 OA
HETATM   21  H   UNL     1      18.073  51.103  51.125  1.00  0.00     0.211 HD
ENDBRANCH   5  20
BRANCH   5  22
HETATM   22  C   UNL     1      18.365  50.543  47.948  1.00  0.00    -0.024 A 
HETATM   23  C   UNL     1      18.041  49.365  47.252  1.00  0.00     0.010 A 
HETATM   24  C   UNL     1      17.595  49.403  45.926  1.00  0.00     0.001 A 
HETATM   25  C   UNL     1      17.444  50.621  45.272  1.00  0.00     0.000 A 
HETATM   26  C   UNL     1      17.721  51.802  45.948  1.00  0.00     0.001 A 
HETATM   27  C   UNL     1      18.164  51.764  47.273  1.00  0.00     0.010 A 
ENDBRANCH   5  22
TORSDOF 3
ENDMDL
MODEL 5
REMARK VINA RESULT:      -7.7      3.347      7.050
REMARK  3 active torsions:
REMARK  status: ('A' for Active; 'I' for Inactive)
REMARK    1  A    between atoms: C_8  and  C_9 
REMARK       I    between atoms: C_9  and  N_10 
REMARK    2  A    between atoms: C_13  and  O_14 
REMARK    3  A    between atoms: C_13  and  C_15 
ROOT
HETATM    1  C   UNL     1      25.922  45.839  50.961  1.00  0.00     0.259 C 
HETATM    2  N   UNL     1      25.201  44.716  50.513  1.00  0.00    -0.348 N 
HETATM    3  C   UNL     1      25.011  43.497  51.297  1.00  0.00     0.129 C 
HETATM    4  C   UNL     1      23.805  42.668  50.860  1.00  0.00     0.063 C 
HETATM    5  C   UNL     1      23.784  42.410  49.342  1.00  0.00     0.088 C 
HETATM    6  C   UNL     1      23.782  43.802  48.685  1.00  0.00     0.063 C 
HETATM    7  C   UNL     1      25.021  44.601  49.067  1.00  0.00     0.129 C 
HETATM    8  O   UNL     1      26.108  46.802  50.216  1.00  0.00    -0.267 OA
ENDROOT
BRANCH   1   9
HETATM    9  C   UNL     1      26.396  45.932  52.334  1.00  0.00     0.099 A 
HETATM   10  C   UNL     1      27.400  45.255  53.009  1.00  0.00     0.168 A 
HETATM   11  N   UNL     1      28.244  44.242  52.637  1.00  0.00    -0.233 NA
HETATM   12  N   UNL     1      27.468  45.827  54.291  1.00  0.00    -0.219 N 
HETATM   13  C   UNL     1      29.079  43.806  53.534  1.00  0.00     0.035 A 
HETATM   14  C   UNL     1      30.005  42.675  53.162  1.00  0.00     0.070 C 
HETATM   15  C   UNL     1      29.209  44.348  54.920  1.00  0.00     0.053 A 
HETATM   16  C   UNL     1      28.385  45.359  55.243  1.00  0.00     0.036 A 
HETATM   17  C   UNL     1      28.407  46.024  56.586  1.00  0.00     0.070 C 
HETATM   18  N   UNL     1      26.572  46.834  54.438  1.00  0.00    -0.177 NA
HETATM   19  C   UNL     1      25.968  46.912  53.256  1.00  0.00     0.160 A 
ENDBRANCH   1   9
BRANCH   5  20
HETATM   20  O   UNL     1      22.513  41.803  49.050  1.00  0.00    -0.385 OA
HETATM   21  H   UNL     1      22.174  42.191  48.224  1.00  0.00     0.211 HD
ENDBRANCH   5  20
BRANCH   5  22
HETATM   22  C   UNL     1      24.863  41.464  48.797  1.00  0.00    -0.024 A 
HETATM   23  C   UNL     1      25.661  40.663  49.633  1.00  0.00     0.010 A 
HETATM   24  C   UNL     1      26.634  39.805  49.107  1.00  0.00     0.001 A 
HETATM   25  C   UNL     1      26.817  39.713  47.732  1.00  0.00     0.000 A 
HETATM   26  C   UNL     1      26.016  40.466  46.881  1.00  0.00     0.001 A 
HETATM   27  C   UNL     1      25.044  41.320  47.407  1.00  0.00     0.010 A 
ENDBRANCH   5  22
TORSDOF 3
ENDMDL
MODEL 6
REMARK VINA RESULT:      -7.6      4.829      9.881
REMARK  3 active torsions:
REMARK  status: ('A' for Active; 'I' for Inactive)
REMARK    1  A    between atoms: C_8  and  C_9 
REMARK       I    between atoms: C_9  and  N_10 
REMARK    2  A    between atoms: C_13  and  O_14 
REMARK    3  A    between atoms: C_13  and  C_15 
ROOT
HETATM    1  C   UNL     1      22.209  49.365  48.123  1.00  0.00     0.259 C 
HETATM    2  N   UNL     1      20.992  49.868  48.617  1.00  0.00    -0.348 N 
HETATM    3  C   UNL     1      20.153  49.174  49.591  1.00  0.00     0.129 C 
HETATM    4  C   UNL     1      19.206  50.098  50.355  1.00  0.00     0.063 C 
HETATM    5  C   UNL     1      18.398  51.020  49.423  1.00  0.00     0.088 C 
HETATM    6  C   UNL     1      19.444  51.817  48.622  1.00  0.00     0.063 C 
HETATM    7  C   UNL     1      20.342  50.897  47.806  1.00  0.00     0.129 C 
HETATM    8  O   UNL     1      22.826  49.969  47.243  1.00  0.00    -0.267 OA
ENDROOT
BRANCH   1   9
HETATM    9  C   UNL     1      22.815  48.167  48.685  1.00  0.00     0.099 A 
HETATM   10  C   UNL     1      22.602  46.821  48.430  1.00  0.00     0.168 A 
HETATM   11  N   UNL     1      21.724  46.162  47.610  1.00  0.00    -0.233 NA
HETATM   12  N   UNL     1      23.539  46.119  49.208  1.00  0.00    -0.219 N 
HETATM   13  C   UNL     1      21.767  44.862  47.616  1.00  0.00     0.035 A 
HETATM   14  C   UNL     1      20.797  44.109  46.742  1.00  0.00     0.070 C 
HETATM   15  C   UNL     1      22.722  44.040  48.419  1.00  0.00     0.053 A 
HETATM   16  C   UNL     1      23.588  44.718  49.191  1.00  0.00     0.036 A 
HETATM   17  C   UNL     1      24.620  44.039  50.038  1.00  0.00     0.070 C 
HETATM   18  N   UNL     1      24.332  46.961  49.916  1.00  0.00    -0.177 NA
HETATM   19  C   UNL     1      23.918  48.175  49.567  1.00  0.00     0.160 A 
ENDBRANCH   1   9
BRANCH   5  20
HETATM   20  O   UNL     1      17.712  51.956  50.271  1.00  0.00    -0.385 OA
HETATM   21  H   UNL     1      16.926  52.277  49.795  1.00  0.00     0.211 HD
ENDBRANCH   5  20
BRANCH   5  22
HETATM   22  C   UNL     1      17.330  50.341  48.553  1.00  0.00    -0.024 A 
HETATM   23  C   UNL     1      16.993  48.983  48.689  1.00  0.00     0.010 A 
HETATM   24  C   UNL     1      16.010  48.394  47.886  1.00  0.00     0.001 A 
HETATM   25  C   UNL     1      15.328  49.154  46.942  1.00  0.00     0.000 A 
HETATM   26  C   UNL     1      15.615  50.507  46.813  1.00  0.00     0.001 A 
HETATM   27  C   UNL     1      16.595  51.095  47.617  1.00  0.00     0.010 A 
ENDBRANCH   5  22
TORSDOF 3
ENDMDL
MODEL 7
REMARK VINA RESULT:      -7.6      4.907     10.177
REMARK  3 active torsions:
REMARK  status: ('A' for Active; 'I' for Inactive)
REMARK    1  A    between atoms: C_8  and  C_9 
REMARK       I    between atoms: C_9  and  N_10 
REMARK    2  A    between atoms: C_13  and  O_14 
REMARK    3  A    between atoms: C_13  and  C_15 
ROOT
HETATM    1  C   UNL     1      21.108  48.266  48.373  1.00  0.00     0.259 C 
HETATM    2  N   UNL     1      20.048  48.991  47.797  1.00  0.00    -0.348 N 
HETATM    3  C   UNL     1      20.162  50.364  47.311  1.00  0.00     0.129 C 
HETATM    4  C   UNL     1      19.097  50.743  46.284  1.00  0.00     0.063 C 
HETATM    5  C   UNL     1      17.672  50.394  46.754  1.00  0.00     0.088 C 
HETATM    6  C   UNL     1      17.685  48.878  47.025  1.00  0.00     0.063 C 
HETATM    7  C   UNL     1      18.700  48.512  48.099  1.00  0.00     0.129 C 
HETATM    8  O   UNL     1      20.919  47.138  48.833  1.00  0.00    -0.267 OA
ENDROOT
BRANCH   1   9
HETATM    9  C   UNL     1      22.466  48.787  48.371  1.00  0.00     0.099 A 
HETATM   10  C   UNL     1      23.619  48.351  49.006  1.00  0.00     0.168 A 
HETATM   11  N   UNL     1      23.863  47.326  49.882  1.00  0.00    -0.233 NA
HETATM   12  N   UNL     1      24.655  49.193  48.564  1.00  0.00    -0.219 N 
HETATM   13  C   UNL     1      25.081  47.194  50.319  1.00  0.00     0.035 A 
HETATM   14  C   UNL     1      25.375  46.090  51.302  1.00  0.00     0.070 C 
HETATM   15  C   UNL     1      26.235  48.050  49.911  1.00  0.00     0.053 A 
HETATM   16  C   UNL     1      25.968  49.029  49.029  1.00  0.00     0.036 A 
HETATM   17  C   UNL     1      27.021  49.958  48.507  1.00  0.00     0.070 C 
HETATM   18  N   UNL     1      24.206  50.114  47.677  1.00  0.00    -0.177 NA
HETATM   19  C   UNL     1      22.912  49.838  47.541  1.00  0.00     0.160 A 
ENDBRANCH   1   9
BRANCH   5  20
HETATM   20  O   UNL     1      16.806  50.615  45.628  1.00  0.00    -0.385 OA
HETATM   21  H   UNL     1      17.164  50.122  44.869  1.00  0.00     0.211 HD
ENDBRANCH   5  20
BRANCH   5  22
HETATM   22  C   UNL     1      17.115  51.231  47.914  1.00  0.00    -0.024 A 
HETATM   23  C   UNL     1      15.787  51.117  48.362  1.00  0.00     0.010 A 
HETATM   24  C   UNL     1      15.308  51.889  49.426  1.00  0.00     0.001 A 
HETATM   25  C   UNL     1      16.153  52.778  50.082  1.00  0.00     0.000 A 
HETATM   26  C   UNL     1      17.480  52.883  49.685  1.00  0.00     0.001 A 
HETATM   27  C   UNL     1      17.957  52.110  48.623  1.00  0.00     0.010 A 
ENDBRANCH   5  22
TORSDOF 3
ENDMDL
MODEL 8
REMARK VINA RESULT:      -7.6      2.805      4.864
REMARK  3 active torsions:
REMARK  status: ('A' for Active; 'I' for Inactive)
REMARK    1  A    between atoms: C_8  and  C_9 
REMARK       I    between atoms: C_9  and  N_10 
REMARK    2  A    between atoms: C_13  and  O_14 
REMARK    3  A    between atoms: C_13  and  C_15 
ROOT
HETATM    1  C   UNL     1      23.210  48.379  48.956  1.00  0.00     0.259 C 
HETATM    2  N   UNL     1      24.209  47.471  49.353  1.00  0.00    -0.348 N 
HETATM    3  C   UNL     1      23.943  46.122  49.846  1.00  0.00     0.129 C 
HETATM    4  C   UNL     1      25.131  45.172  49.710  1.00  0.00     0.063 C 
HETATM    5  C   UNL     1      26.433  45.768  50.279  1.00  0.00     0.088 C 
HETATM    6  C   UNL     1      26.662  47.078  49.503  1.00  0.00     0.063 C 
HETATM    7  C   UNL     1      25.507  48.051  49.697  1.00  0.00     0.129 C 
HETATM    8  O   UNL     1      23.504  49.529  48.625  1.00  0.00    -0.267 OA
ENDROOT
BRANCH   1   9
HETATM    9  C   UNL     1      21.818  47.968  48.846  1.00  0.00     0.099 A 
HETATM   10  C   UNL     1      20.635  48.669  49.026  1.00  0.00     0.168 A 
HETATM   11  N   UNL     1      20.372  49.956  49.413  1.00  0.00    -0.233 NA
HETATM   12  N   UNL     1      19.597  47.780  48.697  1.00  0.00    -0.219 N 
HETATM   13  C   UNL     1      19.122  50.305  49.505  1.00  0.00     0.035 A 
HETATM   14  C   UNL     1      18.800  51.708  49.952  1.00  0.00     0.070 C 
HETATM   15  C   UNL     1      17.960  49.422  49.186  1.00  0.00     0.053 A 
HETATM   16  C   UNL     1      18.254  48.175  48.782  1.00  0.00     0.036 A 
HETATM   17  C   UNL     1      17.202  47.176  48.406  1.00  0.00     0.070 C 
HETATM   18  N   UNL     1      20.076  46.573  48.306  1.00  0.00    -0.177 NA
HETATM   19  C   UNL     1      21.398  46.710  48.362  1.00  0.00     0.160 A 
ENDBRANCH   1   9
BRANCH   5  20
HETATM   20  O   UNL     1      27.489  44.866  49.908  1.00  0.00    -0.385 OA
HETATM   21  H   UNL     1      28.337  45.330  50.019  1.00  0.00     0.211 HD
ENDBRANCH   5  20
BRANCH   5  22
HETATM   22  C   UNL     1      26.498  45.926  51.805  1.00  0.00    -0.024 A 
HETATM   23  C   UNL     1      26.140  47.117  52.459  1.00  0.00     0.010 A 
HETATM   24  C   UNL     1      26.205  47.230  53.853  1.00  0.00     0.001 A 
HETATM   25  C   UNL     1      26.610  46.147  54.625  1.00  0.00     0.000 A 
HETATM   26  C   UNL     1      26.933  44.945  54.006  1.00  0.00     0.001 A 
HETATM   27  C   UNL     1      26.866  44.834  52.615  1.00  0.00     0.010 A 
ENDBRANCH   5  22
TORSDOF 3
ENDMDL
MODEL 9
REMARK VINA RESULT:      -7.5     12.921     15.891
REMARK  3 active torsions:
REMARK  status: ('A' for Active; 'I' for Inactive)
REMARK    1  A    between atoms: C_8  and  C_9 
REMARK       I    between atoms: C_9  and  N_10 
REMARK    2  A    between atoms: C_13  and  O_14 
REMARK    3  A    between atoms: C_13  and  C_15 
ROOT
HETATM    1  C   UNL     1      33.856  49.955  41.302  1.00  0.00     0.259 C 
HETATM    2  N   UNL     1      32.899  50.466  40.407  1.00  0.00    -0.348 N 
HETATM    3  C   UNL     1      32.594  51.887  40.254  1.00  0.00     0.129 C 
HETATM    4  C   UNL     1      31.950  52.236  38.913  1.00  0.00     0.063 C 
HETATM    5  C   UNL     1      30.750  51.330  38.580  1.00  0.00     0.088 C 
HETATM    6  C   UNL     1      31.301  49.892  38.586  1.00  0.00     0.063 C 
HETATM    7  C   UNL     1      31.880  49.523  39.945  1.00  0.00     0.129 C 
HETATM    8  O   UNL     1      34.005  48.739  41.435  1.00  0.00    -0.267 OA
ENDROOT
BRANCH   1   9
HETATM    9  C   UNL     1      34.751  50.839  42.035  1.00  0.00     0.099 A 
HETATM   10  C   UNL     1      36.026  51.301  41.748  1.00  0.00     0.168 A 
HETATM   11  N   UNL     1      36.892  51.048  40.716  1.00  0.00    -0.233 NA
HETATM   12  N   UNL     1      36.360  52.200  42.776  1.00  0.00    -0.219 N 
HETATM   13  C   UNL     1      38.049  51.641  40.754  1.00  0.00     0.035 A 
HETATM   14  C   UNL     1      39.033  51.364  39.645  1.00  0.00     0.070 C 
HETATM   15  C   UNL     1      38.488  52.600  41.812  1.00  0.00     0.053 A 
HETATM   16  C   UNL     1      37.604  52.847  42.794  1.00  0.00     0.036 A 
HETATM   17  C   UNL     1      37.886  53.799  43.915  1.00  0.00     0.070 C 
HETATM   18  N   UNL     1      35.352  52.332  43.672  1.00  0.00    -0.177 NA
HETATM   19  C   UNL     1      34.387  51.548  43.200  1.00  0.00     0.160 A 
ENDBRANCH   1   9
BRANCH   5  20
HETATM   20  O   UNL     1      30.375  51.633  37.225  1.00  0.00    -0.385 OA
HETATM   21  H   UNL     1      29.423  51.456  37.127  1.00  0.00     0.211 HD
ENDBRANCH   5  20
BRANCH   5  22
HETATM   22  C   UNL     1      29.494  51.520  39.442  1.00  0.00    -0.024 A 
HETATM   23  C   UNL     1      28.433  50.598  39.450  1.00  0.00     0.010 A 
HETATM   24  C   UNL     1      27.302  50.795  40.251  1.00  0.00     0.001 A 
HETATM   25  C   UNL     1      27.216  51.910  41.078  1.00  0.00     0.000 A 
HETATM   26  C   UNL     1      28.267  52.818  41.119  1.00  0.00     0.001 A 
HETATM   27  C   UNL     1      29.396  52.618  40.320  1.00  0.00     0.010 A 
ENDBRANCH   5  22
TORSDOF 3
ENDMDL
MODEL 10
REMARK VINA RESULT:      -7.4     12.704     15.915
REMARK  3 active torsions:
REMARK  status: ('A' for Active; 'I' for Inactive)
REMARK    1  A    between atoms: C_8  and  C_9 
REMARK       I    between atoms: C_9  and  N_10 
REMARK    2  A    between atoms: C_13  and  O_14 
REMARK    3  A    between atoms: C_13  and  C_15 
ROOT
HETATM    1  C   UNL     1      34.223  51.430  42.693  1.00  0.00     0.259 C 
HETATM    2  N   UNL     1      33.142  50.752  42.102  1.00  0.00    -0.348 N 
HETATM    3  C   UNL     1      33.191  50.121  40.784  1.00  0.00     0.129 C 
HETATM    4  C   UNL     1      32.138  49.033  40.584  1.00  0.00     0.063 C 
HETATM    5  C   UNL     1      30.722  49.502  40.967  1.00  0.00     0.088 C 
HETATM    6  C   UNL     1      30.814  49.937  42.441  1.00  0.00     0.063 C 
HETATM    7  C   UNL     1      31.815  51.070  42.627  1.00  0.00     0.129 C 
HETATM    8  O   UNL     1      34.085  52.006  43.775  1.00  0.00    -0.267 OA
ENDROOT
BRANCH   1   9
HETATM    9  C   UNL     1      35.548  51.406  42.094  1.00  0.00     0.099 A 
HETATM   10  C   UNL     1      36.141  52.218  41.139  1.00  0.00     0.168 A 
HETATM   11  N   UNL     1      35.673  53.275  40.403  1.00  0.00    -0.233 NA
HETATM   12  N   UNL     1      37.470  51.775  41.015  1.00  0.00    -0.219 N 
HETATM   13  C   UNL     1      36.497  53.820  39.557  1.00  0.00     0.035 A 
HETATM   14  C   UNL     1      36.004  54.970  38.716  1.00  0.00     0.070 C 
HETATM   15  C   UNL     1      37.918  53.406  39.355  1.00  0.00     0.053 A 
HETATM   16  C   UNL     1      38.353  52.385  40.113  1.00  0.00     0.036 A 
HETATM   17  C   UNL     1      39.757  51.866  40.043  1.00  0.00     0.070 C 
HETATM   18  N   UNL     1      37.734  50.746  41.856  1.00  0.00    -0.177 NA
HETATM   19  C   UNL     1      36.596  50.561  42.519  1.00  0.00     0.160 A 
ENDBRANCH   1   9
BRANCH   5  20
HETATM   20  O   UNL     1      29.881  48.336  40.922  1.00  0.00    -0.385 OA
HETATM   21  H   UNL     1      30.171  47.727  41.623  1.00  0.00     0.211 HD
ENDBRANCH   5  20
BRANCH   5  22
HETATM   22  C   UNL     1      30.080  50.549  40.046  1.00  0.00    -0.024 A 
HETATM   23  C   UNL     1      30.501  50.753  38.720  1.00  0.00     0.010 A 
HETATM   24  C   UNL     1      29.893  51.711  37.903  1.00  0.00     0.001 A 
HETATM   25  C   UNL     1      28.835  52.474  38.385  1.00  0.00     0.000 A 
HETATM   26  C   UNL     1      28.374  52.267  39.679  1.00  0.00     0.001 A 
HETATM   27  C   UNL     1      28.981  51.309  40.494  1.00  0.00     0.010 A 
ENDBRANCH   5  22
TORSDOF 3
ENDMDL
