MODEL 1
REMARK VINA RESULT:      -8.3      0.000      0.000
REMARK  5 active torsions:
REMARK  status: ('A' for Active; 'I' for Inactive)
REMARK    1  A    between atoms: C_2  and  O_3 
REMARK    2  A    between atoms: C_2  and  C_4 
REMARK    3  A    between atoms: C_7  and  N_8 
REMARK    4  A    between atoms: N_12  and  C_13 
REMARK    5  A    between atoms: C_13  and  C_14 
ROOT
HETATM    1  N   UNL     1      27.272  43.181  52.141  1.00  0.00    -0.367 N 
HETATM    2  C   UNL     1      25.954  43.815  52.351  1.00  0.00     0.127 C 
HETATM    3  C   UNL     1      24.927  43.346  51.331  1.00  0.00     0.057 C 
HETATM    4  C   UNL     1      25.350  43.515  49.853  1.00  0.00     0.075 C 
HETATM    5  N   UNL     1      25.273  44.921  49.295  1.00  0.00    -0.398 N 
HETATM    6  C   UNL     1      23.903  45.500  49.303  1.00  0.00     0.124 C 
HETATM    7  C   UNL     1      22.931  44.742  48.364  1.00  0.00     0.078 C 
HETATM    8  C   UNL     1      23.240  43.306  48.394  1.00  0.00     0.037 A 
HETATM    9  C   UNL     1      24.326  42.732  49.024  1.00  0.00     0.061 A 
HETATM   10  N   UNL     1      24.221  41.371  48.779  1.00  0.00    -0.352 N 
HETATM   11  H   UNL     1      24.854  40.647  49.109  1.00  0.00     0.166 HD
HETATM   12  C   UNL     1      23.156  41.112  48.006  1.00  0.00     0.181 A 
HETATM   13  N   UNL     1      22.551  42.281  47.779  1.00  0.00    -0.354 N 
HETATM   14  H   UNL     1      21.711  42.391  47.214  1.00  0.00     0.166 HD
HETATM   15  C   UNL     1      26.735  42.837  49.704  1.00  0.00     0.057 C 
HETATM   16  C   UNL     1      27.783  43.204  50.759  1.00  0.00     0.127 C 
ENDROOT
BRANCH   5  17
HETATM   17  C   UNL     1      26.337  45.875  49.620  1.00  0.00     0.122 C 
BRANCH  17  18
HETATM   18  C   UNL     1      25.931  47.269  50.167  1.00  0.00    -0.005 C 
HETATM   19  C   UNL     1      26.120  47.290  51.690  1.00  0.00     0.011 C 
HETATM   20  C   UNL     1      26.746  48.399  49.534  1.00  0.00     0.011 C 
ENDBRANCH  17  18
ENDBRANCH   5  17
BRANCH   1  21
HETATM   21  C   UNL     1      28.216  43.461  53.157  1.00  0.00     0.103 A 
HETATM   22  N   UNL     1      28.033  44.469  54.027  1.00  0.00    -0.344 N 
HETATM   23  C   UNL     1      28.849  44.776  55.053  1.00  0.00     0.039 A 
HETATM   24  H   UNL     1      27.231  45.099  53.960  1.00  0.00     0.167 HD
HETATM   25  C   UNL     1      30.011  44.046  55.250  1.00  0.00     0.028 A 
HETATM   26  C   UNL     1      30.302  43.022  54.363  1.00  0.00     0.006 A 
HETATM   27  C   UNL     1      29.418  42.735  53.319  1.00  0.00     0.048 A 
BRANCH  23  28
HETATM   28  C   UNL     1      28.393  45.920  55.912  1.00  0.00     0.163 C 
HETATM   29  C   UNL     1      28.127  47.183  55.108  1.00  0.00     0.046 C 
BRANCH  28  30
HETATM   30  O   UNL     1      29.490  46.171  56.812  1.00  0.00    -0.390 OA
HETATM   31  H   UNL     1      30.300  46.180  56.257  1.00  0.00     0.210 HD
ENDBRANCH  28  30
ENDBRANCH  23  28
ENDBRANCH   1  21
TORSDOF 5
ENDMDL
MODEL 2
REMARK VINA RESULT:      -8.1      1.843      2.997
REMARK  5 active torsions:
REMARK  status: ('A' for Active; 'I' for Inactive)
REMARK    1  A    between atoms: C_2  and  O_3 
REMARK    2  A    between atoms: C_2  and  C_4 
REMARK    3  A    between atoms: C_7  and  N_8 
REMARK    4  A    between atoms: N_12  and  C_13 
REMARK    5  A    between atoms: C_13  and  C_14 
ROOT
HETATM    1  N   UNL     1      28.321  43.541  53.810  1.00  0.00    -0.367 N 
HETATM    2  C   UNL     1      26.863  43.575  53.575  1.00  0.00     0.127 C 
HETATM    3  C   UNL     1      26.424  42.524  52.566  1.00  0.00     0.057 C 
HETATM    4  C   UNL     1      27.166  42.571  51.209  1.00  0.00     0.075 C 
HETATM    5  N   UNL     1      26.746  43.671  50.258  1.00  0.00    -0.398 N 
HETATM    6  C   UNL     1      25.320  43.595  49.838  1.00  0.00     0.124 C 
HETATM    7  C   UNL     1      25.012  42.328  49.001  1.00  0.00     0.078 C 
HETATM    8  C   UNL     1      25.803  41.199  49.510  1.00  0.00     0.037 A 
HETATM    9  C   UNL     1      26.789  41.280  50.473  1.00  0.00     0.061 A 
HETATM   10  N   UNL     1      27.267  39.987  50.625  1.00  0.00    -0.352 N 
HETATM   11  H   UNL     1      27.995  39.683  51.266  1.00  0.00     0.166 HD
HETATM   12  C   UNL     1      26.646  39.152  49.779  1.00  0.00     0.181 A 
HETATM   13  N   UNL     1      25.749  39.880  49.109  1.00  0.00    -0.354 N 
HETATM   14  H   UNL     1      25.130  39.508  48.389  1.00  0.00     0.166 HD
HETATM   15  C   UNL     1      28.682  42.537  51.528  1.00  0.00     0.057 C 
HETATM   16  C   UNL     1      29.166  43.515  52.604  1.00  0.00     0.127 C 
ENDROOT
BRANCH   5  17
HETATM   17  C   UNL     1      27.241  45.032  50.479  1.00  0.00     0.122 C 
BRANCH  17  18
HETATM   18  C   UNL     1      26.209  46.187  50.548  1.00  0.00    -0.005 C 
HETATM   19  C   UNL     1      26.055  46.643  52.005  1.00  0.00     0.011 C 
HETATM   20  C   UNL     1      26.614  47.379  49.678  1.00  0.00     0.011 C 
ENDBRANCH  17  18
ENDBRANCH   5  17
BRANCH   1  21
HETATM   21  C   UNL     1      28.757  44.389  54.856  1.00  0.00     0.103 A 
HETATM   22  N   UNL     1      29.851  44.100  55.582  1.00  0.00    -0.344 N 
HETATM   23  C   UNL     1      30.367  44.871  56.558  1.00  0.00     0.039 A 
HETATM   24  H   UNL     1      30.381  43.239  55.439  1.00  0.00     0.167 HD
HETATM   25  C   UNL     1      29.734  46.053  56.910  1.00  0.00     0.028 A 
HETATM   26  C   UNL     1      28.569  46.397  56.245  1.00  0.00     0.006 A 
HETATM   27  C   UNL     1      28.077  45.569  55.232  1.00  0.00     0.048 A 
BRANCH  23  28
HETATM   28  C   UNL     1      31.628  44.348  57.184  1.00  0.00     0.163 C 
HETATM   29  C   UNL     1      31.709  42.830  57.151  1.00  0.00     0.046 C 
BRANCH  28  30
HETATM   30  O   UNL     1      31.566  44.774  58.560  1.00  0.00    -0.390 OA
HETATM   31  H   UNL     1      31.390  45.740  58.538  1.00  0.00     0.210 HD
ENDBRANCH  28  30
ENDBRANCH  23  28
ENDBRANCH   1  21
TORSDOF 5
ENDMDL
MODEL 3
REMARK VINA RESULT:      -8.0      1.735      3.556
REMARK  5 active torsions:
REMARK  status: ('A' for Active; 'I' for Inactive)
REMARK    1  A    between atoms: C_2  and  O_3 
REMARK    2  A    between atoms: C_2  and  C_4 
REMARK    3  A    between atoms: C_7  and  N_8 
REMARK    4  A    between atoms: N_12  and  C_13 
REMARK    5  A    between atoms: C_13  and  C_14 
ROOT
HETATM    1  N   UNL     1      27.445  44.382  52.627  1.00  0.00    -0.367 N 
HETATM    2  C   UNL     1      27.820  44.217  51.208  1.00  0.00     0.127 C 
HETATM    3  C   UNL     1      26.687  44.607  50.270  1.00  0.00     0.057 C 
HETATM    4  C   UNL     1      25.343  43.887  50.535  1.00  0.00     0.075 C 
HETATM    5  N   UNL     1      25.252  42.452  50.061  1.00  0.00    -0.398 N 
HETATM    6  C   UNL     1      25.417  42.289  48.591  1.00  0.00     0.124 C 
HETATM    7  C   UNL     1      24.271  42.953  47.787  1.00  0.00     0.078 C 
HETATM    8  C   UNL     1      23.855  44.193  48.457  1.00  0.00     0.037 A 
HETATM    9  C   UNL     1      24.293  44.622  49.694  1.00  0.00     0.061 A 
HETATM   10  N   UNL     1      23.632  45.819  49.927  1.00  0.00    -0.352 N 
HETATM   11  H   UNL     1      23.730  46.414  50.746  1.00  0.00     0.166 HD
HETATM   12  C   UNL     1      22.799  46.102  48.915  1.00  0.00     0.181 A 
HETATM   13  N   UNL     1      22.939  45.125  48.016  1.00  0.00    -0.354 N 
HETATM   14  H   UNL     1      22.421  45.074  47.140  1.00  0.00     0.166 HD
HETATM   15  C   UNL     1      25.014  44.094  52.035  1.00  0.00     0.057 C 
HETATM   16  C   UNL     1      26.149  43.803  53.020  1.00  0.00     0.127 C 
ENDROOT
BRANCH   5  17
HETATM   17  C   UNL     1      25.878  41.397  50.862  1.00  0.00     0.122 C 
BRANCH  17  18
HETATM   18  C   UNL     1      27.057  40.604  50.241  1.00  0.00    -0.005 C 
HETATM   19  C   UNL     1      28.242  40.609  51.216  1.00  0.00     0.011 C 
HETATM   20  C   UNL     1      26.674  39.161  49.907  1.00  0.00     0.011 C 
ENDBRANCH  17  18
ENDBRANCH   5  17
BRANCH   1  21
HETATM   21  C   UNL     1      28.514  44.187  53.533  1.00  0.00     0.103 A 
HETATM   22  N   UNL     1      28.730  45.033  54.555  1.00  0.00    -0.344 N 
HETATM   23  C   UNL     1      29.687  44.899  55.493  1.00  0.00     0.039 A 
HETATM   24  H   UNL     1      28.163  45.872  54.690  1.00  0.00     0.167 HD
HETATM   25  C   UNL     1      30.576  43.837  55.423  1.00  0.00     0.028 A 
HETATM   26  C   UNL     1      30.455  42.948  54.367  1.00  0.00     0.006 A 
HETATM   27  C   UNL     1      29.439  43.124  53.424  1.00  0.00     0.048 A 
BRANCH  23  28
HETATM   28  C   UNL     1      29.687  45.954  56.561  1.00  0.00     0.163 C 
HETATM   29  C   UNL     1      30.224  45.440  57.888  1.00  0.00     0.046 C 
BRANCH  28  30
HETATM   30  O   UNL     1      28.301  46.309  56.734  1.00  0.00    -0.390 OA
HETATM   31  H   UNL     1      27.809  45.837  56.027  1.00  0.00     0.210 HD
ENDBRANCH  28  30
ENDBRANCH  23  28
ENDBRANCH   1  21
TORSDOF 5
ENDMDL
MODEL 4
REMARK VINA RESULT:      -8.0     12.007     13.172
REMARK  5 active torsions:
REMARK  status: ('A' for Active; 'I' for Inactive)
REMARK    1  A    between atoms: C_2  and  O_3 
REMARK    2  A    between atoms: C_2  and  C_4 
REMARK    3  A    between atoms: C_7  and  N_8 
REMARK    4  A    between atoms: N_12  and  C_13 
REMARK    5  A    between atoms: C_13  and  C_14 
ROOT
HETATM    1  N   UNL     1      32.132  49.842  41.533  1.00  0.00    -0.367 N 
HETATM    2  C   UNL     1      31.015  49.182  42.238  1.00  0.00     0.127 C 
HETATM    3  C   UNL     1      30.207  48.285  41.311  1.00  0.00     0.057 C 
HETATM    4  C   UNL     1      29.674  48.977  40.034  1.00  0.00     0.075 C 
HETATM    5  N   UNL     1      28.474  49.881  40.219  1.00  0.00    -0.398 N 
HETATM    6  C   UNL     1      27.264  49.182  40.731  1.00  0.00     0.124 C 
HETATM    7  C   UNL     1      26.712  48.136  39.731  1.00  0.00     0.078 C 
HETATM    8  C   UNL     1      27.830  47.485  39.034  1.00  0.00     0.037 A 
HETATM    9  C   UNL     1      29.156  47.855  39.127  1.00  0.00     0.061 A 
HETATM   10  N   UNL     1      29.844  46.981  38.297  1.00  0.00    -0.352 N 
HETATM   11  H   UNL     1      30.848  46.964  38.137  1.00  0.00     0.166 HD
HETATM   12  C   UNL     1      28.994  46.141  37.689  1.00  0.00     0.181 A 
HETATM   13  N   UNL     1      27.772  46.435  38.142  1.00  0.00    -0.354 N 
HETATM   14  H   UNL     1      26.921  45.957  37.847  1.00  0.00     0.166 HD
HETATM   15  C   UNL     1      30.890  49.650  39.350  1.00  0.00     0.057 C 
HETATM   16  C   UNL     1      31.791  50.494  40.256  1.00  0.00     0.127 C 
ENDROOT
BRANCH   5  17
HETATM   17  C   UNL     1      28.672  51.227  40.762  1.00  0.00     0.122 C 
BRANCH  17  18
HETATM   18  C   UNL     1      28.409  52.440  39.833  1.00  0.00    -0.005 C 
HETATM   19  C   UNL     1      29.496  53.499  40.061  1.00  0.00     0.011 C 
HETATM   20  C   UNL     1      28.383  52.044  38.355  1.00  0.00     0.011 C 
ENDBRANCH  17  18
ENDBRANCH   5  17
BRANCH   1  21
HETATM   21  C   UNL     1      33.008  50.559  42.382  1.00  0.00     0.103 A 
HETATM   22  N   UNL     1      34.331  50.603  42.149  1.00  0.00    -0.344 N 
HETATM   23  C   UNL     1      35.230  51.299  42.871  1.00  0.00     0.039 A 
HETATM   24  H   UNL     1      34.761  50.086  41.380  1.00  0.00     0.167 HD
HETATM   25  C   UNL     1      34.814  52.016  43.982  1.00  0.00     0.028 A 
HETATM   26  C   UNL     1      33.472  51.979  44.323  1.00  0.00     0.006 A 
HETATM   27  C   UNL     1      32.575  51.250  43.536  1.00  0.00     0.048 A 
BRANCH  23  28
HETATM   28  C   UNL     1      36.644  51.225  42.372  1.00  0.00     0.163 C 
HETATM   29  C   UNL     1      36.723  50.889  40.891  1.00  0.00     0.046 C 
BRANCH  28  30
HETATM   30  O   UNL     1      37.247  50.149  43.119  1.00  0.00    -0.390 OA
HETATM   31  H   UNL     1      36.686  49.359  42.959  1.00  0.00     0.210 HD
ENDBRANCH  28  30
ENDBRANCH  23  28
ENDBRANCH   1  21
TORSDOF 5
ENDMDL
MODEL 5
REMARK VINA RESULT:      -7.9      7.396     10.161
REMARK  5 active torsions:
REMARK  status: ('A' for Active; 'I' for Inactive)
REMARK    1  A    between atoms: C_2  and  O_3 
REMARK    2  A    between atoms: C_2  and  C_4 
REMARK    3  A    between atoms: C_7  and  N_8 
REMARK    4  A    between atoms: N_12  and  C_13 
REMARK    5  A    between atoms: C_13  and  C_14 
ROOT
HETATM    1  N   UNL     1      21.142  50.536  49.153  1.00  0.00    -0.367 N 
HETATM    2  C   UNL     1      20.622  51.196  47.938  1.00  0.00     0.127 C 
HETATM    3  C   UNL     1      19.261  51.833  48.175  1.00  0.00     0.057 C 
HETATM    4  C   UNL     1      18.183  50.881  48.746  1.00  0.00     0.075 C 
HETATM    5  N   UNL     1      17.566  49.909  47.763  1.00  0.00    -0.398 N 
HETATM    6  C   UNL     1      16.847  50.564  46.636  1.00  0.00     0.124 C 
HETATM    7  C   UNL     1      15.604  51.360  47.106  1.00  0.00     0.078 C 
HETATM    8  C   UNL     1      15.884  51.987  48.405  1.00  0.00     0.037 A 
HETATM    9  C   UNL     1      17.011  51.771  49.173  1.00  0.00     0.061 A 
HETATM   10  N   UNL     1      16.842  52.551  50.308  1.00  0.00    -0.352 N 
HETATM   11  H   UNL     1      17.493  52.639  51.083  1.00  0.00     0.166 HD
HETATM   12  C   UNL     1      15.660  53.184  50.272  1.00  0.00     0.181 A 
HETATM   13  N   UNL     1      15.081  52.855  49.115  1.00  0.00    -0.354 N 
HETATM   14  H   UNL     1      14.165  53.187  48.817  1.00  0.00     0.166 HD
HETATM   15  C   UNL     1      18.794  50.222  50.008  1.00  0.00     0.057 C 
HETATM   16  C   UNL     1      20.203  49.642  49.851  1.00  0.00     0.127 C 
ENDROOT
BRANCH   5  17
HETATM   17  C   UNL     1      18.311  48.704  47.389  1.00  0.00     0.122 C 
BRANCH  17  18
HETATM   18  C   UNL     1      17.713  47.324  47.765  1.00  0.00    -0.005 C 
HETATM   19  C   UNL     1      18.813  46.443  48.371  1.00  0.00     0.011 C 
HETATM   20  C   UNL     1      16.552  47.445  48.753  1.00  0.00     0.011 C 
ENDBRANCH  17  18
ENDBRANCH   5  17
BRANCH   1  21
HETATM   21  C   UNL     1      22.472  50.068  49.031  1.00  0.00     0.103 A 
HETATM   22  N   UNL     1      22.873  48.933  49.630  1.00  0.00    -0.344 N 
HETATM   23  C   UNL     1      24.100  48.387  49.529  1.00  0.00     0.039 A 
HETATM   24  H   UNL     1      22.250  48.392  50.232  1.00  0.00     0.167 HD
HETATM   25  C   UNL     1      25.080  49.027  48.788  1.00  0.00     0.028 A 
HETATM   26  C   UNL     1      24.763  50.232  48.181  1.00  0.00     0.006 A 
HETATM   27  C   UNL     1      23.473  50.754  48.308  1.00  0.00     0.048 A 
BRANCH  23  28
HETATM   28  C   UNL     1      24.280  47.085  50.255  1.00  0.00     0.163 C 
HETATM   29  C   UNL     1      25.659  46.482  50.037  1.00  0.00     0.046 C 
BRANCH  28  30
HETATM   30  O   UNL     1      23.297  46.199  49.684  1.00  0.00    -0.390 OA
HETATM   31  H   UNL     1      23.458  46.203  48.715  1.00  0.00     0.210 HD
ENDBRANCH  28  30
ENDBRANCH  23  28
ENDBRANCH   1  21
TORSDOF 5
ENDMDL
MODEL 6
REMARK VINA RESULT:      -7.8      1.621      3.578
REMARK  5 active torsions:
REMARK  status: ('A' for Active; 'I' for Inactive)
REMARK    1  A    between atoms: C_2  and  O_3 
REMARK    2  A    between atoms: C_2  and  C_4 
REMARK    3  A    between atoms: C_7  and  N_8 
REMARK    4  A    between atoms: N_12  and  C_13 
REMARK    5  A    between atoms: C_13  and  C_14 
ROOT
HETATM    1  N   UNL     1      27.059  44.699  52.001  1.00  0.00    -0.367 N 
HETATM    2  C   UNL     1      27.203  44.546  50.539  1.00  0.00     0.127 C 
HETATM    3  C   UNL     1      26.123  45.299  49.778  1.00  0.00     0.057 C 
HETATM    4  C   UNL     1      24.672  44.955  50.191  1.00  0.00     0.075 C 
HETATM    5  N   UNL     1      24.128  43.639  49.677  1.00  0.00    -0.398 N 
HETATM    6  C   UNL     1      24.066  43.549  48.193  1.00  0.00     0.124 C 
HETATM    7  C   UNL     1      23.065  44.558  47.577  1.00  0.00     0.078 C 
HETATM    8  C   UNL     1      23.095  45.811  48.346  1.00  0.00     0.037 A 
HETATM    9  C   UNL     1      23.778  46.009  49.529  1.00  0.00     0.061 A 
HETATM   10  N   UNL     1      23.511  47.320  49.897  1.00  0.00    -0.352 N 
HETATM   11  H   UNL     1      23.867  47.801  50.718  1.00  0.00     0.166 HD
HETATM   12  C   UNL     1      22.677  47.895  49.018  1.00  0.00     0.181 A 
HETATM   13  N   UNL     1      22.431  46.987  48.069  1.00  0.00    -0.354 N 
HETATM   14  H   UNL     1      21.820  47.146  47.269  1.00  0.00     0.166 HD
HETATM   15  C   UNL     1      24.593  45.130  51.729  1.00  0.00     0.057 C 
HETATM   16  C   UNL     1      25.709  44.466  52.541  1.00  0.00     0.127 C 
ENDROOT
BRANCH   5  17
HETATM   17  C   UNL     1      24.523  42.395  50.344  1.00  0.00     0.122 C 
BRANCH  17  18
HETATM   18  C   UNL     1      25.686  41.571  49.733  1.00  0.00    -0.005 C 
HETATM   19  C   UNL     1      26.449  40.859  50.857  1.00  0.00     0.011 C 
HETATM   20  C   UNL     1      25.194  40.540  48.716  1.00  0.00     0.011 C 
ENDBRANCH  17  18
ENDBRANCH   5  17
BRANCH   1  21
HETATM   21  C   UNL     1      28.130  44.152  52.747  1.00  0.00     0.103 A 
HETATM   22  N   UNL     1      28.476  44.651  53.947  1.00  0.00    -0.344 N 
HETATM   23  C   UNL     1      29.443  44.164  54.747  1.00  0.00     0.039 A 
HETATM   24  H   UNL     1      28.012  45.469  54.344  1.00  0.00     0.167 HD
HETATM   25  C   UNL     1      30.203  43.083  54.330  1.00  0.00     0.028 A 
HETATM   26  C   UNL     1      29.946  42.542  53.080  1.00  0.00     0.006 A 
HETATM   27  C   UNL     1      28.924  43.076  52.290  1.00  0.00     0.048 A 
BRANCH  23  28
HETATM   28  C   UNL     1      29.599  44.871  56.063  1.00  0.00     0.163 C 
HETATM   29  C   UNL     1      28.887  46.215  56.090  1.00  0.00     0.046 C 
BRANCH  28  30
HETATM   30  O   UNL     1      31.016  45.099  56.198  1.00  0.00    -0.390 OA
HETATM   31  H   UNL     1      31.452  44.259  55.936  1.00  0.00     0.210 HD
ENDBRANCH  28  30
ENDBRANCH  23  28
ENDBRANCH   1  21
TORSDOF 5
ENDMDL
MODEL 7
REMARK VINA RESULT:      -7.6      2.785      7.169
REMARK  5 active torsions:
REMARK  status: ('A' for Active; 'I' for Inactive)
REMARK    1  A    between atoms: C_2  and  O_3 
REMARK    2  A    between atoms: C_2  and  C_4 
REMARK    3  A    between atoms: C_7  and  N_8 
REMARK    4  A    between atoms: N_12  and  C_13 
REMARK    5  A    between atoms: C_13  and  C_14 
ROOT
HETATM    1  N   UNL     1      24.741  45.577  50.322  1.00  0.00    -0.367 N 
HETATM    2  C   UNL     1      24.370  44.321  51.004  1.00  0.00     0.127 C 
HETATM    3  C   UNL     1      25.410  43.902  52.031  1.00  0.00     0.057 C 
HETATM    4  C   UNL     1      26.855  43.786  51.489  1.00  0.00     0.075 C 
HETATM    5  N   UNL     1      27.160  42.553  50.666  1.00  0.00    -0.398 N 
HETATM    6  C   UNL     1      26.996  41.274  51.408  1.00  0.00     0.124 C 
HETATM    7  C   UNL     1      28.008  41.127  52.571  1.00  0.00     0.078 C 
HETATM    8  C   UNL     1      28.238  42.440  53.192  1.00  0.00     0.037 A 
HETATM    9  C   UNL     1      27.761  43.645  52.717  1.00  0.00     0.061 A 
HETATM   10  N   UNL     1      28.231  44.604  53.602  1.00  0.00    -0.352 N 
HETATM   11  H   UNL     1      28.057  45.605  53.557  1.00  0.00     0.166 HD
HETATM   12  C   UNL     1      28.991  44.038  54.551  1.00  0.00     0.181 A 
HETATM   13  N   UNL     1      28.989  42.724  54.313  1.00  0.00    -0.354 N 
HETATM   14  H   UNL     1      29.491  42.039  54.876  1.00  0.00     0.166 HD
HETATM   15  C   UNL     1      27.176  45.129  50.785  1.00  0.00     0.057 C 
HETATM   16  C   UNL     1      26.119  45.645  49.804  1.00  0.00     0.127 C 
ENDROOT
BRANCH   5  17
HETATM   17  C   UNL     1      26.722  42.503  49.268  1.00  0.00     0.122 C 
BRANCH  17  18
HETATM   18  C   UNL     1      25.970  41.239  48.779  1.00  0.00    -0.005 C 
HETATM   19  C   UNL     1      24.487  41.577  48.576  1.00  0.00     0.011 C 
HETATM   20  C   UNL     1      26.552  40.686  47.476  1.00  0.00     0.011 C 
ENDBRANCH  17  18
ENDBRANCH   5  17
BRANCH   1  21
HETATM   21  C   UNL     1      23.733  46.094  49.474  1.00  0.00     0.103 A 
HETATM   22  N   UNL     1      23.414  47.400  49.478  1.00  0.00    -0.344 N 
HETATM   23  C   UNL     1      22.508  47.986  48.673  1.00  0.00     0.039 A 
HETATM   24  H   UNL     1      23.853  48.060  50.122  1.00  0.00     0.167 HD
HETATM   25  C   UNL     1      21.787  47.218  47.772  1.00  0.00     0.028 A 
HETATM   26  C   UNL     1      22.017  45.852  47.743  1.00  0.00     0.006 A 
HETATM   27  C   UNL     1      22.975  45.291  48.591  1.00  0.00     0.048 A 
BRANCH  23  28
HETATM   28  C   UNL     1      22.374  49.473  48.840  1.00  0.00     0.163 C 
HETATM   29  C   UNL     1      23.245  50.250  47.865  1.00  0.00     0.046 C 
BRANCH  28  30
HETATM   30  O   UNL     1      22.833  49.741  50.179  1.00  0.00    -0.390 OA
HETATM   31  H   UNL     1      22.076  50.153  50.649  1.00  0.00     0.210 HD
ENDBRANCH  28  30
ENDBRANCH  23  28
ENDBRANCH   1  21
TORSDOF 5
ENDMDL
MODEL 8
REMARK VINA RESULT:      -7.5     11.349     14.000
REMARK  5 active torsions:
REMARK  status: ('A' for Active; 'I' for Inactive)
REMARK    1  A    between atoms: C_2  and  O_3 
REMARK    2  A    between atoms: C_2  and  C_4 
REMARK    3  A    between atoms: C_7  and  N_8 
REMARK    4  A    between atoms: N_12  and  C_13 
REMARK    5  A    between atoms: C_13  and  C_14 
ROOT
HETATM    1  N   UNL     1      29.339  47.750  40.938  1.00  0.00    -0.367 N 
HETATM    2  C   UNL     1      30.343  47.833  39.857  1.00  0.00     0.127 C 
HETATM    3  C   UNL     1      31.549  48.667  40.263  1.00  0.00     0.057 C 
HETATM    4  C   UNL     1      31.218  50.091  40.769  1.00  0.00     0.075 C 
HETATM    5  N   UNL     1      30.862  51.109  39.706  1.00  0.00    -0.398 N 
HETATM    6  C   UNL     1      31.951  51.365  38.725  1.00  0.00     0.124 C 
HETATM    7  C   UNL     1      33.195  52.019  39.374  1.00  0.00     0.078 C 
HETATM    8  C   UNL     1      33.388  51.474  40.725  1.00  0.00     0.037 A 
HETATM    9  C   UNL     1      32.512  50.636  41.385  1.00  0.00     0.061 A 
HETATM   10  N   UNL     1      33.090  50.392  42.622  1.00  0.00    -0.352 N 
HETATM   11  H   UNL     1      32.714  49.803  43.359  1.00  0.00     0.166 HD
HETATM   12  C   UNL     1      34.240  51.071  42.746  1.00  0.00     0.181 A 
HETATM   13  N   UNL     1      34.431  51.719  41.594  1.00  0.00    -0.354 N 
HETATM   14  H   UNL     1      35.229  52.324  41.402  1.00  0.00     0.166 HD
HETATM   15  C   UNL     1      30.161  49.932  41.890  1.00  0.00     0.057 C 
HETATM   16  C   UNL     1      28.967  49.028  41.568  1.00  0.00     0.127 C 
ENDROOT
BRANCH   5  17
HETATM   17  C   UNL     1      29.516  51.093  39.128  1.00  0.00     0.122 C 
BRANCH  17  18
HETATM   18  C   UNL     1      28.671  52.392  39.197  1.00  0.00    -0.005 C 
HETATM   19  C   UNL     1      29.159  53.253  40.369  1.00  0.00     0.011 C 
HETATM   20  C   UNL     1      28.746  53.202  37.901  1.00  0.00     0.011 C 
ENDBRANCH  17  18
ENDBRANCH   5  17
BRANCH   1  21
HETATM   21  C   UNL     1      28.275  46.856  40.670  1.00  0.00     0.103 A 
HETATM   22  N   UNL     1      27.008  47.153  41.009  1.00  0.00    -0.344 N 
HETATM   23  C   UNL     1      25.930  46.389  40.750  1.00  0.00     0.039 A 
HETATM   24  H   UNL     1      26.771  48.009  41.512  1.00  0.00     0.167 HD
HETATM   25  C   UNL     1      26.088  45.166  40.116  1.00  0.00     0.028 A 
HETATM   26  C   UNL     1      27.370  44.761  39.780  1.00  0.00     0.006 A 
HETATM   27  C   UNL     1      28.457  45.594  40.062  1.00  0.00     0.048 A 
BRANCH  23  28
HETATM   28  C   UNL     1      24.616  46.970  41.188  1.00  0.00     0.163 C 
HETATM   29  C   UNL     1      23.428  46.156  40.701  1.00  0.00     0.046 C 
BRANCH  28  30
HETATM   30  O   UNL     1      24.562  48.273  40.576  1.00  0.00    -0.390 OA
HETATM   31  H   UNL     1      25.493  48.578  40.502  1.00  0.00     0.210 HD
ENDBRANCH  28  30
ENDBRANCH  23  28
ENDBRANCH   1  21
TORSDOF 5
ENDMDL
MODEL 9
REMARK VINA RESULT:      -7.4     10.929     14.107
REMARK  5 active torsions:
REMARK  status: ('A' for Active; 'I' for Inactive)
REMARK    1  A    between atoms: C_2  and  O_3 
REMARK    2  A    between atoms: C_2  and  C_4 
REMARK    3  A    between atoms: C_7  and  N_8 
REMARK    4  A    between atoms: N_12  and  C_13 
REMARK    5  A    between atoms: C_13  and  C_14 
ROOT
HETATM    1  N   UNL     1      29.450  47.964  40.914  1.00  0.00    -0.367 N 
HETATM    2  C   UNL     1      30.145  48.275  39.649  1.00  0.00     0.127 C 
HETATM    3  C   UNL     1      31.512  48.898  39.889  1.00  0.00     0.057 C 
HETATM    4  C   UNL     1      31.509  50.151  40.797  1.00  0.00     0.075 C 
HETATM    5  N   UNL     1      31.028  51.435  40.156  1.00  0.00    -0.398 N 
HETATM    6  C   UNL     1      31.853  51.881  39.001  1.00  0.00     0.124 C 
HETATM    7  C   UNL     1      33.296  52.264  39.413  1.00  0.00     0.078 C 
HETATM    8  C   UNL     1      33.756  51.366  40.482  1.00  0.00     0.037 A 
HETATM    9  C   UNL     1      32.977  50.434  41.137  1.00  0.00     0.061 A 
HETATM   10  N   UNL     1      33.816  49.835  42.065  1.00  0.00    -0.352 N 
HETATM   11  H   UNL     1      33.568  49.091  42.712  1.00  0.00     0.166 HD
HETATM   12  C   UNL     1      35.037  50.387  42.022  1.00  0.00     0.181 A 
HETATM   13  N   UNL     1      35.009  51.308  41.055  1.00  0.00    -0.354 N 
HETATM   14  H   UNL     1      35.802  51.895  40.799  1.00  0.00     0.166 HD
HETATM   15  C   UNL     1      30.763  49.758  42.097  1.00  0.00     0.057 C 
HETATM   16  C   UNL     1      29.420  49.045  41.914  1.00  0.00     0.127 C 
ENDROOT
BRANCH   5  17
HETATM   17  C   UNL     1      29.588  51.654  39.993  1.00  0.00     0.122 C 
BRANCH  17  18
HETATM   18  C   UNL     1      29.001  51.645  38.558  1.00  0.00    -0.005 C 
HETATM   19  C   UNL     1      27.714  50.811  38.541  1.00  0.00     0.011 C 
HETATM   20  C   UNL     1      28.704  53.056  38.044  1.00  0.00     0.011 C 
ENDBRANCH  17  18
ENDBRANCH   5  17
BRANCH   1  21
HETATM   21  C   UNL     1      28.246  47.238  40.748  1.00  0.00     0.103 A 
HETATM   22  N   UNL     1      28.249  45.906  40.566  1.00  0.00    -0.344 N 
HETATM   23  C   UNL     1      27.156  45.130  40.451  1.00  0.00     0.039 A 
HETATM   24  H   UNL     1      29.118  45.374  40.495  1.00  0.00     0.167 HD
HETATM   25  C   UNL     1      25.895  45.706  40.476  1.00  0.00     0.028 A 
HETATM   26  C   UNL     1      25.806  47.083  40.606  1.00  0.00     0.006 A 
HETATM   27  C   UNL     1      26.970  47.846  40.732  1.00  0.00     0.048 A 
BRANCH  23  28
HETATM   28  C   UNL     1      27.429  43.660  40.307  1.00  0.00     0.163 C 
HETATM   29  C   UNL     1      27.331  42.917  41.630  1.00  0.00     0.046 C 
BRANCH  28  30
HETATM   30  O   UNL     1      28.788  43.578  39.834  1.00  0.00    -0.390 OA
HETATM   31  H   UNL     1      29.183  42.795  40.276  1.00  0.00     0.210 HD
ENDBRANCH  28  30
ENDBRANCH  23  28
ENDBRANCH   1  21
TORSDOF 5
ENDMDL
MODEL 10
REMARK VINA RESULT:      -7.3     10.973     14.139
REMARK  5 active torsions:
REMARK  status: ('A' for Active; 'I' for Inactive)
REMARK    1  A    between atoms: C_2  and  O_3 
REMARK    2  A    between atoms: C_2  and  C_4 
REMARK    3  A    between atoms: C_7  and  N_8 
REMARK    4  A    between atoms: N_12  and  C_13 
REMARK    5  A    between atoms: C_13  and  C_14 
ROOT
HETATM    1  N   UNL     1      29.615  47.232  40.059  1.00  0.00    -0.367 N 
HETATM    2  C   UNL     1      30.927  47.582  39.478  1.00  0.00     0.127 C 
HETATM    3  C   UNL     1      31.687  48.575  40.344  1.00  0.00     0.057 C 
HETATM    4  C   UNL     1      30.914  49.870  40.687  1.00  0.00     0.075 C 
HETATM    5  N   UNL     1      30.816  50.899  39.580  1.00  0.00    -0.398 N 
HETATM    6  C   UNL     1      32.132  51.425  39.126  1.00  0.00     0.124 C 
HETATM    7  C   UNL     1      32.866  52.227  40.229  1.00  0.00     0.078 C 
HETATM    8  C   UNL     1      32.611  51.608  41.538  1.00  0.00     0.037 A 
HETATM    9  C   UNL     1      31.726  50.576  41.778  1.00  0.00     0.061 A 
HETATM   10  N   UNL     1      31.804  50.330  43.141  1.00  0.00    -0.352 N 
HETATM   11  H   UNL     1      31.289  49.622  43.657  1.00  0.00     0.166 HD
HETATM   12  C   UNL     1      32.655  51.185  43.726  1.00  0.00     0.181 A 
HETATM   13  N   UNL     1      33.156  51.954  42.756  1.00  0.00    -0.354 N 
HETATM   14  H   UNL     1      33.831  52.703  42.909  1.00  0.00     0.166 HD
HETATM   15  C   UNL     1      29.553  49.433  41.283  1.00  0.00     0.057 C 
HETATM   16  C   UNL     1      28.783  48.367  40.497  1.00  0.00     0.127 C 
ENDROOT
BRANCH   5  17
HETATM   17  C   UNL     1      29.839  50.700  38.506  1.00  0.00     0.122 C 
BRANCH  17  18
HETATM   18  C   UNL     1      28.678  51.719  38.372  1.00  0.00    -0.005 C 
HETATM   19  C   UNL     1      27.343  50.964  38.328  1.00  0.00     0.011 C 
HETATM   20  C   UNL     1      28.657  52.729  39.520  1.00  0.00     0.011 C 
ENDBRANCH  17  18
ENDBRANCH   5  17
BRANCH   1  21
HETATM   21  C   UNL     1      28.939  46.194  39.375  1.00  0.00     0.103 A 
HETATM   22  N   UNL     1      28.527  45.085  40.015  1.00  0.00    -0.344 N 
HETATM   23  C   UNL     1      27.835  44.073  39.459  1.00  0.00     0.039 A 
HETATM   24  H   UNL     1      28.726  44.929  41.004  1.00  0.00     0.167 HD
HETATM   25  C   UNL     1      27.528  44.109  38.107  1.00  0.00     0.028 A 
HETATM   26  C   UNL     1      27.963  45.194  37.363  1.00  0.00     0.006 A 
HETATM   27  C   UNL     1      28.671  46.225  37.988  1.00  0.00     0.048 A 
BRANCH  23  28
HETATM   28  C   UNL     1      27.449  42.970  40.402  1.00  0.00     0.163 C 
HETATM   29  C   UNL     1      26.892  43.495  41.716  1.00  0.00     0.046 C 
BRANCH  28  30
HETATM   30  O   UNL     1      28.677  42.265  40.673  1.00  0.00    -0.390 OA
HETATM   31  H   UNL     1      28.426  41.326  40.811  1.00  0.00     0.210 HD
ENDBRANCH  28  30
ENDBRANCH  23  28
ENDBRANCH   1  21
TORSDOF 5
ENDMDL
