MODEL 1
REMARK VINA RESULT:      -9.2      0.000      0.000
REMARK  6 active torsions:
REMARK  status: ('A' for Active; 'I' for Inactive)
REMARK    1  A    between atoms: O_2  and  C_3 
REMARK    2  A    between atoms: C_6  and  C_7 
REMARK    3  A    between atoms: C_11  and  C_12 
REMARK       I    between atoms: C_12  and  N_13 
REMARK    4  A    between atoms: N_13  and  N_14 
REMARK       I    between atoms: N_14  and  C_15 
REMARK    5  A    between atoms: C_15  and  C_16 
REMARK    6  A    between atoms: C_17  and  C_18 
ROOT
HETATM    1  C   UNL     1      24.198  45.402  50.955  1.00  0.00     0.288 C 
HETATM    2  N   UNL     1      23.873  46.442  50.109  1.00  0.00    -0.262 N 
HETATM    3  O   UNL     1      23.652  44.303  50.882  1.00  0.00    -0.264 OA
HETATM    4  H   UNL     1      24.208  47.393  50.242  1.00  0.00     0.190 HD
ENDROOT
BRANCH   1   5
HETATM    5  C   UNL     1      25.226  45.696  51.917  1.00  0.00     0.121 A 
HETATM    6  N   UNL     1      25.403  46.951  52.425  1.00  0.00    -0.272 N 
HETATM    7  N   UNL     1      26.370  47.039  53.351  1.00  0.00    -0.174 NA
HETATM    8  H   UNL     1      24.875  47.786  52.187  1.00  0.00     0.189 HD
HETATM    9  C   UNL     1      26.868  45.795  53.440  1.00  0.00     0.089 A 
HETATM   10  C   UNL     1      26.182  44.925  52.547  1.00  0.00     0.071 A 
BRANCH   9  11
HETATM   11  C   UNL     1      27.940  45.453  54.378  1.00  0.00    -0.005 A 
HETATM   12  C   UNL     1      28.668  44.265  54.223  1.00  0.00     0.016 A 
HETATM   13  C   UNL     1      29.731  43.952  55.081  1.00  0.00     0.037 A 
HETATM   14  C   UNL     1      30.079  44.824  56.111  1.00  0.00     0.068 A 
HETATM   15  C   UNL     1      29.339  45.995  56.290  1.00  0.00     0.037 A 
HETATM   16  C   UNL     1      28.281  46.311  55.430  1.00  0.00     0.016 A 
BRANCH  14  17
HETATM   17  O   UNL     1      31.098  44.648  57.004  1.00  0.00    -0.356 OA
HETATM   18  C   UNL     1      31.709  43.364  57.029  1.00  0.00     0.210 C 
ENDBRANCH  14  17
ENDBRANCH   9  11
ENDBRANCH   1   5
BRANCH   2  19
HETATM   19  N   UNL     1      22.820  46.285  49.206  1.00  0.00    -0.267 N 
HETATM   20  C   UNL     1      22.624  47.263  48.258  1.00  0.00     0.240 C 
HETATM   21  O   UNL     1      23.336  48.258  48.155  1.00  0.00    -0.271 OA
HETATM   22  H   UNL     1      22.231  45.461  49.306  1.00  0.00     0.190 HD
BRANCH  20  23
HETATM   23  C   UNL     1      21.465  47.019  47.360  1.00  0.00     0.089 A 
HETATM   24  C   UNL     1      20.201  47.858  47.437  1.00  0.00     0.036 A 
HETATM   25  C   UNL     1      20.193  46.425  47.908  1.00  0.00     0.025 A 
BRANCH  24  26
HETATM   26  C   UNL     1      20.066  49.000  48.419  1.00  0.00    -0.015 A 
HETATM   27  C   UNL     1      20.478  50.300  48.087  1.00  0.00     0.123 A 
HETATM   28  F   UNL     1      21.021  50.527  46.879  1.00  0.00    -0.206 F 
HETATM   29  C   UNL     1      20.341  51.374  48.965  1.00  0.00     0.043 A 
HETATM   30  C   UNL     1      19.769  51.170  50.218  1.00  0.00     0.003 A 
HETATM   31  C   UNL     1      19.337  49.896  50.577  1.00  0.00     0.001 A 
HETATM   32  C   UNL     1      19.480  48.827  49.685  1.00  0.00     0.011 A 
ENDBRANCH  24  26
ENDBRANCH  20  23
ENDBRANCH   2  19
TORSDOF 6
ENDMDL
MODEL 2
REMARK VINA RESULT:      -8.9      1.528      2.237
REMARK  6 active torsions:
REMARK  status: ('A' for Active; 'I' for Inactive)
REMARK    1  A    between atoms: O_2  and  C_3 
REMARK    2  A    between atoms: C_6  and  C_7 
REMARK    3  A    between atoms: C_11  and  C_12 
REMARK       I    between atoms: C_12  and  N_13 
REMARK    4  A    between atoms: N_13  and  N_14 
REMARK       I    between atoms: N_14  and  C_15 
REMARK    5  A    between atoms: C_15  and  C_16 
REMARK    6  A    between atoms: C_17  and  C_18 
ROOT
HETATM    1  C   UNL     1      23.809  47.271  49.509  1.00  0.00     0.288 C 
HETATM    2  N   UNL     1      22.637  46.642  49.144  1.00  0.00    -0.262 N 
HETATM    3  O   UNL     1      24.234  48.259  48.915  1.00  0.00    -0.264 OA
HETATM    4  H   UNL     1      22.341  45.748  49.528  1.00  0.00     0.190 HD
ENDROOT
BRANCH   1   5
HETATM    5  C   UNL     1      24.485  46.693  50.638  1.00  0.00     0.121 A 
HETATM    6  N   UNL     1      24.199  45.434  51.086  1.00  0.00    -0.272 N 
HETATM    7  N   UNL     1      24.960  45.029  52.114  1.00  0.00    -0.174 NA
HETATM    8  H   UNL     1      23.503  44.797  50.710  1.00  0.00     0.189 HD
HETATM    9  C   UNL     1      25.765  46.073  52.372  1.00  0.00     0.089 A 
HETATM   10  C   UNL     1      25.489  47.141  51.473  1.00  0.00     0.071 A 
BRANCH   9  11
HETATM   11  C   UNL     1      26.785  46.026  53.422  1.00  0.00    -0.005 A 
HETATM   12  C   UNL     1      27.036  47.151  54.221  1.00  0.00     0.016 A 
HETATM   13  C   UNL     1      27.970  47.102  55.263  1.00  0.00     0.037 A 
HETATM   14  C   UNL     1      28.672  45.926  55.520  1.00  0.00     0.068 A 
HETATM   15  C   UNL     1      28.449  44.810  54.710  1.00  0.00     0.037 A 
HETATM   16  C   UNL     1      27.512  44.856  53.672  1.00  0.00     0.016 A 
BRANCH  14  17
HETATM   17  O   UNL     1      29.595  45.740  56.510  1.00  0.00    -0.356 OA
HETATM   18  C   UNL     1      30.651  44.828  56.234  1.00  0.00     0.210 C 
ENDBRANCH  14  17
ENDBRANCH   9  11
ENDBRANCH   1   5
BRANCH   2  19
HETATM   19  N   UNL     1      21.959  47.070  48.000  1.00  0.00    -0.267 N 
HETATM   20  C   UNL     1      20.587  46.967  47.980  1.00  0.00     0.240 C 
HETATM   21  O   UNL     1      19.927  46.533  48.920  1.00  0.00    -0.271 OA
HETATM   22  H   UNL     1      22.516  47.420  47.224  1.00  0.00     0.190 HD
BRANCH  20  23
HETATM   23  C   UNL     1      19.959  47.424  46.713  1.00  0.00     0.089 A 
HETATM   24  C   UNL     1      19.285  48.781  46.596  1.00  0.00     0.036 A 
HETATM   25  C   UNL     1      18.458  47.518  46.602  1.00  0.00     0.025 A 
BRANCH  24  26
HETATM   26  C   UNL     1      19.239  49.746  47.758  1.00  0.00    -0.015 A 
HETATM   27  C   UNL     1      20.303  50.623  48.021  1.00  0.00     0.123 A 
HETATM   28  F   UNL     1      21.390  50.588  47.233  1.00  0.00    -0.206 F 
HETATM   29  C   UNL     1      20.274  51.539  49.071  1.00  0.00     0.043 A 
HETATM   30  C   UNL     1      19.154  51.607  49.895  1.00  0.00     0.003 A 
HETATM   31  C   UNL     1      18.074  50.760  49.657  1.00  0.00     0.001 A 
HETATM   32  C   UNL     1      18.115  49.846  48.598  1.00  0.00     0.011 A 
ENDBRANCH  24  26
ENDBRANCH  20  23
ENDBRANCH   2  19
TORSDOF 6
ENDMDL
MODEL 3
REMARK VINA RESULT:      -8.7      1.734      2.433
REMARK  6 active torsions:
REMARK  status: ('A' for Active; 'I' for Inactive)
REMARK    1  A    between atoms: O_2  and  C_3 
REMARK    2  A    between atoms: C_6  and  C_7 
REMARK    3  A    between atoms: C_11  and  C_12 
REMARK       I    between atoms: C_12  and  N_13 
REMARK    4  A    between atoms: N_13  and  N_14 
REMARK       I    between atoms: N_14  and  C_15 
REMARK    5  A    between atoms: C_15  and  C_16 
REMARK    6  A    between atoms: C_17  and  C_18 
ROOT
HETATM    1  C   UNL     1      24.044  47.070  49.848  1.00  0.00     0.288 C 
HETATM    2  N   UNL     1      24.066  48.449  49.820  1.00  0.00    -0.262 N 
HETATM    3  O   UNL     1      23.488  46.406  48.976  1.00  0.00    -0.264 OA
HETATM    4  H   UNL     1      24.395  49.017  50.596  1.00  0.00     0.190 HD
ENDROOT
BRANCH   1   5
HETATM    5  C   UNL     1      24.726  46.472  50.963  1.00  0.00     0.121 A 
HETATM    6  N   UNL     1      24.370  45.248  51.456  1.00  0.00    -0.272 N 
HETATM    7  N   UNL     1      25.144  44.814  52.462  1.00  0.00    -0.174 NA
HETATM    8  H   UNL     1      23.614  44.655  51.128  1.00  0.00     0.189 HD
HETATM    9  C   UNL     1      26.033  45.801  52.657  1.00  0.00     0.089 A 
HETATM   10  C   UNL     1      25.796  46.864  51.742  1.00  0.00     0.071 A 
BRANCH   9  11
HETATM   11  C   UNL     1      27.092  45.705  53.664  1.00  0.00    -0.005 A 
HETATM   12  C   UNL     1      27.888  44.553  53.750  1.00  0.00     0.016 A 
HETATM   13  C   UNL     1      28.940  44.470  54.672  1.00  0.00     0.037 A 
HETATM   14  C   UNL     1      29.209  45.538  55.526  1.00  0.00     0.068 A 
HETATM   15  C   UNL     1      28.401  46.677  55.466  1.00  0.00     0.037 A 
HETATM   16  C   UNL     1      27.354  46.763  54.542  1.00  0.00     0.016 A 
BRANCH  14  17
HETATM   17  O   UNL     1      30.208  45.593  56.457  1.00  0.00    -0.356 OA
HETATM   18  C   UNL     1      30.901  44.380  56.719  1.00  0.00     0.210 C 
ENDBRANCH  14  17
ENDBRANCH   9  11
ENDBRANCH   1   5
BRANCH   2  19
HETATM   19  N   UNL     1      23.348  49.124  48.830  1.00  0.00    -0.267 N 
HETATM   20  C   UNL     1      22.831  50.362  49.131  1.00  0.00     0.240 C 
HETATM   21  O   UNL     1      22.981  50.912  50.219  1.00  0.00    -0.271 OA
HETATM   22  H   UNL     1      23.223  48.656  47.935  1.00  0.00     0.190 HD
BRANCH  20  23
HETATM   23  C   UNL     1      22.063  50.990  48.024  1.00  0.00     0.089 A 
HETATM   24  C   UNL     1      20.577  50.738  47.835  1.00  0.00     0.036 A 
HETATM   25  C   UNL     1      21.577  50.152  46.869  1.00  0.00     0.025 A 
BRANCH  24  26
HETATM   26  C   UNL     1      19.798  49.851  48.779  1.00  0.00    -0.015 A 
HETATM   27  C   UNL     1      19.407  50.304  50.050  1.00  0.00     0.123 A 
HETATM   28  F   UNL     1      19.750  51.543  50.437  1.00  0.00    -0.206 F 
HETATM   29  C   UNL     1      18.666  49.515  50.928  1.00  0.00     0.043 A 
HETATM   30  C   UNL     1      18.285  48.232  50.546  1.00  0.00     0.003 A 
HETATM   31  C   UNL     1      18.644  47.753  49.289  1.00  0.00     0.001 A 
HETATM   32  C   UNL     1      19.387  48.556  48.416  1.00  0.00     0.011 A 
ENDBRANCH  24  26
ENDBRANCH  20  23
ENDBRANCH   2  19
TORSDOF 6
ENDMDL
MODEL 4
REMARK VINA RESULT:      -8.4      2.487      3.633
REMARK  6 active torsions:
REMARK  status: ('A' for Active; 'I' for Inactive)
REMARK    1  A    between atoms: O_2  and  C_3 
REMARK    2  A    between atoms: C_6  and  C_7 
REMARK    3  A    between atoms: C_11  and  C_12 
REMARK       I    between atoms: C_12  and  N_13 
REMARK    4  A    between atoms: N_13  and  N_14 
REMARK       I    between atoms: N_14  and  C_15 
REMARK    5  A    between atoms: C_15  and  C_16 
REMARK    6  A    between atoms: C_17  and  C_18 
ROOT
HETATM    1  C   UNL     1      22.424  47.586  48.469  1.00  0.00     0.288 C 
HETATM    2  N   UNL     1      21.296  46.905  48.878  1.00  0.00    -0.262 N 
HETATM    3  O   UNL     1      22.410  48.365  47.518  1.00  0.00    -0.264 OA
HETATM    4  H   UNL     1      21.317  46.158  49.567  1.00  0.00     0.190 HD
ENDROOT
BRANCH   1   5
HETATM    5  C   UNL     1      23.608  47.327  49.242  1.00  0.00     0.121 A 
HETATM    6  N   UNL     1      24.488  48.319  49.572  1.00  0.00    -0.272 N 
HETATM    7  N   UNL     1      25.509  47.914  50.341  1.00  0.00    -0.174 NA
HETATM    8  H   UNL     1      24.427  49.299  49.312  1.00  0.00     0.189 HD
HETATM    9  C   UNL     1      25.309  46.597  50.507  1.00  0.00     0.089 A 
HETATM   10  C   UNL     1      24.130  46.189  49.822  1.00  0.00     0.071 A 
BRANCH   9  11
HETATM   11  C   UNL     1      26.202  45.772  51.325  1.00  0.00    -0.005 A 
HETATM   12  C   UNL     1      26.291  45.980  52.709  1.00  0.00     0.016 A 
HETATM   13  C   UNL     1      27.100  45.163  53.510  1.00  0.00     0.037 A 
HETATM   14  C   UNL     1      27.835  44.127  52.936  1.00  0.00     0.068 A 
HETATM   15  C   UNL     1      27.773  43.933  51.555  1.00  0.00     0.037 A 
HETATM   16  C   UNL     1      26.962  44.745  50.754  1.00  0.00     0.016 A 
BRANCH  14  17
HETATM   17  O   UNL     1      28.647  43.252  53.602  1.00  0.00    -0.356 OA
HETATM   18  C   UNL     1      29.877  42.919  52.972  1.00  0.00     0.210 C 
ENDBRANCH  14  17
ENDBRANCH   9  11
ENDBRANCH   1   5
BRANCH   2  19
HETATM   19  N   UNL     1      20.122  47.017  48.131  1.00  0.00    -0.267 N 
HETATM   20  C   UNL     1      18.975  47.416  48.778  1.00  0.00     0.240 C 
HETATM   21  O   UNL     1      18.933  47.694  49.973  1.00  0.00    -0.271 OA
HETATM   22  H   UNL     1      20.165  46.777  47.143  1.00  0.00     0.190 HD
BRANCH  20  23
HETATM   23  C   UNL     1      17.772  47.481  47.906  1.00  0.00     0.089 A 
HETATM   24  C   UNL     1      17.081  48.797  47.591  1.00  0.00     0.036 A 
HETATM   25  C   UNL     1      16.421  47.789  48.500  1.00  0.00     0.025 A 
BRANCH  24  26
HETATM   26  C   UNL     1      17.595  50.112  48.131  1.00  0.00    -0.015 A 
HETATM   27  C   UNL     1      18.719  50.741  47.573  1.00  0.00     0.123 A 
HETATM   28  F   UNL     1      19.359  50.150  46.550  1.00  0.00    -0.206 F 
HETATM   29  C   UNL     1      19.197  51.965  48.037  1.00  0.00     0.043 A 
HETATM   30  C   UNL     1      18.544  52.606  49.086  1.00  0.00     0.003 A 
HETATM   31  C   UNL     1      17.418  52.018  49.657  1.00  0.00     0.001 A 
HETATM   32  C   UNL     1      16.948  50.789  49.181  1.00  0.00     0.011 A 
ENDBRANCH  24  26
ENDBRANCH  20  23
ENDBRANCH   2  19
TORSDOF 6
ENDMDL
MODEL 5
REMARK VINA RESULT:      -8.3      1.784      2.424
REMARK  6 active torsions:
REMARK  status: ('A' for Active; 'I' for Inactive)
REMARK    1  A    between atoms: O_2  and  C_3 
REMARK    2  A    between atoms: C_6  and  C_7 
REMARK    3  A    between atoms: C_11  and  C_12 
REMARK       I    between atoms: C_12  and  N_13 
REMARK    4  A    between atoms: N_13  and  N_14 
REMARK       I    between atoms: N_14  and  C_15 
REMARK    5  A    between atoms: C_15  and  C_16 
REMARK    6  A    between atoms: C_17  and  C_18 
ROOT
HETATM    1  C   UNL     1      23.264  44.507  49.756  1.00  0.00     0.288 C 
HETATM    2  N   UNL     1      22.806  45.706  49.251  1.00  0.00    -0.262 N 
HETATM    3  O   UNL     1      22.577  43.487  49.747  1.00  0.00    -0.264 OA
HETATM    4  H   UNL     1      23.298  46.586  49.375  1.00  0.00     0.190 HD
ENDROOT
BRANCH   1   5
HETATM    5  C   UNL     1      24.601  44.537  50.283  1.00  0.00     0.121 A 
HETATM    6  N   UNL     1      25.609  45.215  49.657  1.00  0.00    -0.272 N 
HETATM    7  N   UNL     1      26.781  45.185  50.310  1.00  0.00    -0.174 NA
HETATM    8  H   UNL     1      25.546  45.733  48.786  1.00  0.00     0.189 HD
HETATM    9  C   UNL     1      26.543  44.438  51.400  1.00  0.00     0.089 A 
HETATM   10  C   UNL     1      25.188  44.004  51.413  1.00  0.00     0.071 A 
BRANCH   9  11
HETATM   11  C   UNL     1      27.575  44.184  52.408  1.00  0.00    -0.005 A 
HETATM   12  C   UNL     1      27.460  44.730  53.695  1.00  0.00     0.016 A 
HETATM   13  C   UNL     1      28.412  44.451  54.685  1.00  0.00     0.037 A 
HETATM   14  C   UNL     1      29.496  43.623  54.399  1.00  0.00     0.068 A 
HETATM   15  C   UNL     1      29.632  43.099  53.111  1.00  0.00     0.037 A 
HETATM   16  C   UNL     1      28.680  43.373  52.124  1.00  0.00     0.016 A 
BRANCH  14  17
HETATM   17  O   UNL     1      30.483  43.260  55.272  1.00  0.00    -0.356 OA
HETATM   18  C   UNL     1      31.010  44.288  56.102  1.00  0.00     0.210 C 
ENDBRANCH  14  17
ENDBRANCH   9  11
ENDBRANCH   1   5
BRANCH   2  19
HETATM   19  N   UNL     1      21.485  45.800  48.807  1.00  0.00    -0.267 N 
HETATM   20  C   UNL     1      21.238  46.491  47.643  1.00  0.00     0.240 C 
HETATM   21  O   UNL     1      22.119  47.016  46.967  1.00  0.00    -0.271 OA
HETATM   22  H   UNL     1      20.762  45.368  49.378  1.00  0.00     0.190 HD
BRANCH  20  23
HETATM   23  C   UNL     1      19.801  46.558  47.265  1.00  0.00     0.089 A 
HETATM   24  C   UNL     1      18.942  47.768  47.590  1.00  0.00     0.036 A 
HETATM   25  C   UNL     1      18.734  46.467  48.326  1.00  0.00     0.025 A 
BRANCH  24  26
HETATM   26  C   UNL     1      19.512  48.978  48.296  1.00  0.00    -0.015 A 
HETATM   27  C   UNL     1      19.385  49.138  49.686  1.00  0.00     0.123 A 
HETATM   28  F   UNL     1      18.728  48.206  50.395  1.00  0.00    -0.206 F 
HETATM   29  C   UNL     1      19.923  50.231  50.363  1.00  0.00     0.043 A 
HETATM   30  C   UNL     1      20.621  51.204  49.654  1.00  0.00     0.003 A 
HETATM   31  C   UNL     1      20.777  51.073  48.276  1.00  0.00     0.001 A 
HETATM   32  C   UNL     1      20.233  49.970  47.609  1.00  0.00     0.011 A 
ENDBRANCH  24  26
ENDBRANCH  20  23
ENDBRANCH   2  19
TORSDOF 6
ENDMDL
MODEL 6
REMARK VINA RESULT:      -8.3     13.730     14.352
REMARK  6 active torsions:
REMARK  status: ('A' for Active; 'I' for Inactive)
REMARK    1  A    between atoms: O_2  and  C_3 
REMARK    2  A    between atoms: C_6  and  C_7 
REMARK    3  A    between atoms: C_11  and  C_12 
REMARK       I    between atoms: C_12  and  N_13 
REMARK    4  A    between atoms: N_13  and  N_14 
REMARK       I    between atoms: N_14  and  C_15 
REMARK    5  A    between atoms: C_15  and  C_16 
REMARK    6  A    between atoms: C_17  and  C_18 
ROOT
HETATM    1  C   UNL     1      34.391  51.473  42.012  1.00  0.00     0.288 C 
HETATM    2  N   UNL     1      34.153  50.179  42.427  1.00  0.00    -0.262 N 
HETATM    3  O   UNL     1      33.687  52.031  41.171  1.00  0.00    -0.264 OA
HETATM    4  H   UNL     1      34.798  49.654  43.011  1.00  0.00     0.190 HD
ENDROOT
BRANCH   1   5
HETATM    5  C   UNL     1      35.510  52.119  42.639  1.00  0.00     0.121 A 
HETATM    6  N   UNL     1      36.302  53.008  41.968  1.00  0.00    -0.272 N 
HETATM    7  N   UNL     1      37.269  53.560  42.717  1.00  0.00    -0.174 NA
HETATM    8  H   UNL     1      36.212  53.290  40.996  1.00  0.00     0.189 HD
HETATM    9  C   UNL     1      37.125  52.994  43.926  1.00  0.00     0.089 A 
HETATM   10  C   UNL     1      36.038  52.076  43.914  1.00  0.00     0.071 A 
BRANCH   9  11
HETATM   11  C   UNL     1      37.982  53.355  45.058  1.00  0.00    -0.005 A 
HETATM   12  C   UNL     1      37.755  54.540  45.772  1.00  0.00     0.016 A 
HETATM   13  C   UNL     1      38.532  54.870  46.890  1.00  0.00     0.037 A 
HETATM   14  C   UNL     1      39.552  54.018  47.309  1.00  0.00     0.068 A 
HETATM   15  C   UNL     1      39.802  52.849  46.586  1.00  0.00     0.037 A 
HETATM   16  C   UNL     1      39.024  52.516  45.473  1.00  0.00     0.016 A 
BRANCH  14  17
HETATM   17  O   UNL     1      40.370  54.211  48.386  1.00  0.00    -0.356 OA
HETATM   18  C   UNL     1      41.750  54.420  48.110  1.00  0.00     0.210 C 
ENDBRANCH  14  17
ENDBRANCH   9  11
ENDBRANCH   1   5
BRANCH   2  19
HETATM   19  N   UNL     1      33.147  49.436  41.805  1.00  0.00    -0.267 N 
HETATM   20  C   UNL     1      31.922  49.352  42.426  1.00  0.00     0.240 C 
HETATM   21  O   UNL     1      31.662  49.909  43.489  1.00  0.00    -0.271 OA
HETATM   22  H   UNL     1      33.376  48.972  40.929  1.00  0.00     0.190 HD
BRANCH  20  23
HETATM   23  C   UNL     1      30.926  48.519  41.701  1.00  0.00     0.089 A 
HETATM   24  C   UNL     1      29.818  49.139  40.866  1.00  0.00     0.036 A 
HETATM   25  C   UNL     1      29.496  48.463  42.177  1.00  0.00     0.025 A 
BRANCH  24  26
HETATM   26  C   UNL     1      29.686  50.637  40.712  1.00  0.00    -0.015 A 
HETATM   27  C   UNL     1      30.479  51.350  39.799  1.00  0.00     0.123 A 
HETATM   28  F   UNL     1      31.385  50.686  39.062  1.00  0.00    -0.206 F 
HETATM   29  C   UNL     1      30.358  52.727  39.620  1.00  0.00     0.043 A 
HETATM   30  C   UNL     1      29.417  53.437  40.360  1.00  0.00     0.003 A 
HETATM   31  C   UNL     1      28.604  52.762  41.268  1.00  0.00     0.001 A 
HETATM   32  C   UNL     1      28.735  51.379  41.436  1.00  0.00     0.011 A 
ENDBRANCH  24  26
ENDBRANCH  20  23
ENDBRANCH   2  19
TORSDOF 6
ENDMDL
MODEL 7
REMARK VINA RESULT:      -7.9      7.041      8.993
REMARK  6 active torsions:
REMARK  status: ('A' for Active; 'I' for Inactive)
REMARK    1  A    between atoms: O_2  and  C_3 
REMARK    2  A    between atoms: C_6  and  C_7 
REMARK    3  A    between atoms: C_11  and  C_12 
REMARK       I    between atoms: C_12  and  N_13 
REMARK    4  A    between atoms: N_13  and  N_14 
REMARK       I    between atoms: N_14  and  C_15 
REMARK    5  A    between atoms: C_15  and  C_16 
REMARK    6  A    between atoms: C_17  and  C_18 
ROOT
HETATM    1  C   UNL     1      27.498  41.552  50.425  1.00  0.00     0.288 C 
HETATM    2  N   UNL     1      26.846  41.914  49.265  1.00  0.00    -0.262 N 
HETATM    3  O   UNL     1      27.920  40.412  50.611  1.00  0.00    -0.264 OA
HETATM    4  H   UNL     1      26.369  42.804  49.149  1.00  0.00     0.190 HD
ENDROOT
BRANCH   1   5
HETATM    5  C   UNL     1      27.655  42.604  51.392  1.00  0.00     0.121 A 
HETATM    6  N   UNL     1      26.837  43.699  51.408  1.00  0.00    -0.272 N 
HETATM    7  N   UNL     1      27.087  44.557  52.408  1.00  0.00    -0.174 NA
HETATM    8  H   UNL     1      26.076  43.900  50.767  1.00  0.00     0.189 HD
HETATM    9  C   UNL     1      28.127  44.020  53.065  1.00  0.00     0.089 A 
HETATM   10  C   UNL     1      28.519  42.798  52.450  1.00  0.00     0.071 A 
BRANCH   9  11
HETATM   11  C   UNL     1      28.696  44.645  54.262  1.00  0.00    -0.005 A 
HETATM   12  C   UNL     1      28.117  45.801  54.804  1.00  0.00     0.016 A 
HETATM   13  C   UNL     1      28.618  46.377  55.979  1.00  0.00     0.037 A 
HETATM   14  C   UNL     1      29.710  45.804  56.628  1.00  0.00     0.068 A 
HETATM   15  C   UNL     1      30.311  44.670  56.078  1.00  0.00     0.037 A 
HETATM   16  C   UNL     1      29.808  44.091  54.907  1.00  0.00     0.016 A 
BRANCH  14  17
HETATM   17  O   UNL     1      30.286  46.254  57.783  1.00  0.00    -0.356 OA
HETATM   18  C   UNL     1      30.921  45.279  58.600  1.00  0.00     0.210 C 
ENDBRANCH  14  17
ENDBRANCH   9  11
ENDBRANCH   1   5
BRANCH   2  19
HETATM   19  N   UNL     1      26.561  40.938  48.308  1.00  0.00    -0.267 N 
HETATM   20  C   UNL     1      27.399  40.825  47.224  1.00  0.00     0.240 C 
HETATM   21  O   UNL     1      28.394  41.527  47.061  1.00  0.00    -0.271 OA
HETATM   22  H   UNL     1      25.730  40.367  48.449  1.00  0.00     0.190 HD
BRANCH  20  23
HETATM   23  C   UNL     1      27.000  39.776  46.249  1.00  0.00     0.089 A 
HETATM   24  C   UNL     1      27.169  38.296  46.549  1.00  0.00     0.036 A 
HETATM   25  C   UNL     1      28.051  38.972  45.528  1.00  0.00     0.025 A 
BRANCH  24  26
HETATM   26  C   UNL     1      27.733  37.814  47.866  1.00  0.00    -0.015 A 
HETATM   27  C   UNL     1      26.960  37.047  48.753  1.00  0.00     0.123 A 
HETATM   28  F   UNL     1      25.690  36.755  48.431  1.00  0.00    -0.206 F 
HETATM   29  C   UNL     1      27.466  36.570  49.961  1.00  0.00     0.043 A 
HETATM   30  C   UNL     1      28.783  36.846  50.314  1.00  0.00     0.003 A 
HETATM   31  C   UNL     1      29.583  37.594  49.453  1.00  0.00     0.001 A 
HETATM   32  C   UNL     1      29.064  38.066  48.242  1.00  0.00     0.011 A 
ENDBRANCH  24  26
ENDBRANCH  20  23
ENDBRANCH   2  19
TORSDOF 6
ENDMDL
MODEL 8
REMARK VINA RESULT:      -7.8      3.480     10.541
REMARK  6 active torsions:
REMARK  status: ('A' for Active; 'I' for Inactive)
REMARK    1  A    between atoms: O_2  and  C_3 
REMARK    2  A    between atoms: C_6  and  C_7 
REMARK    3  A    between atoms: C_11  and  C_12 
REMARK       I    between atoms: C_12  and  N_13 
REMARK    4  A    between atoms: N_13  and  N_14 
REMARK       I    between atoms: N_14  and  C_15 
REMARK    5  A    between atoms: C_15  and  C_16 
REMARK    6  A    between atoms: C_17  and  C_18 
ROOT
HETATM    1  C   UNL     1      25.011  46.965  50.281  1.00  0.00     0.288 C 
HETATM    2  N   UNL     1      25.048  47.127  51.650  1.00  0.00    -0.262 N 
HETATM    3  O   UNL     1      25.937  46.451  49.657  1.00  0.00    -0.264 OA
HETATM    4  H   UNL     1      24.362  47.671  52.165  1.00  0.00     0.190 HD
ENDROOT
BRANCH   1   5
HETATM    5  C   UNL     1      23.810  47.431  49.643  1.00  0.00     0.121 A 
HETATM    6  N   UNL     1      22.901  46.569  49.096  1.00  0.00    -0.272 N 
HETATM    7  N   UNL     1      21.812  47.167  48.590  1.00  0.00    -0.174 NA
HETATM    8  H   UNL     1      22.968  45.556  49.058  1.00  0.00     0.189 HD
HETATM    9  C   UNL     1      22.020  48.478  48.790  1.00  0.00     0.089 A 
HETATM   10  C   UNL     1      23.269  48.684  49.439  1.00  0.00     0.071 A 
BRANCH   9  11
HETATM   11  C   UNL     1      21.034  49.489  48.402  1.00  0.00    -0.005 A 
HETATM   12  C   UNL     1      20.095  49.217  47.397  1.00  0.00     0.016 A 
HETATM   13  C   UNL     1      19.112  50.155  47.054  1.00  0.00     0.037 A 
HETATM   14  C   UNL     1      19.056  51.382  47.711  1.00  0.00     0.068 A 
HETATM   15  C   UNL     1      20.006  51.672  48.694  1.00  0.00     0.037 A 
HETATM   16  C   UNL     1      20.985  50.734  49.040  1.00  0.00     0.016 A 
BRANCH  14  17
HETATM   17  O   UNL     1      18.145  52.375  47.486  1.00  0.00    -0.356 OA
HETATM   18  C   UNL     1      16.821  52.143  47.951  1.00  0.00     0.210 C 
ENDBRANCH  14  17
ENDBRANCH   9  11
ENDBRANCH   1   5
BRANCH   2  19
HETATM   19  N   UNL     1      26.213  46.795  52.346  1.00  0.00    -0.267 N 
HETATM   20  C   UNL     1      26.148  45.784  53.278  1.00  0.00     0.240 C 
HETATM   21  O   UNL     1      25.124  45.150  53.518  1.00  0.00    -0.271 OA
HETATM   22  H   UNL     1      27.053  47.332  52.145  1.00  0.00     0.190 HD
BRANCH  20  23
HETATM   23  C   UNL     1      27.429  45.520  53.984  1.00  0.00     0.089 A 
HETATM   24  C   UNL     1      28.313  44.338  53.625  1.00  0.00     0.036 A 
HETATM   25  C   UNL     1      27.548  44.350  54.926  1.00  0.00     0.025 A 
BRANCH  24  26
HETATM   26  C   UNL     1      27.944  43.380  52.516  1.00  0.00    -0.015 A 
HETATM   27  C   UNL     1      27.813  42.002  52.754  1.00  0.00     0.123 A 
HETATM   28  F   UNL     1      28.040  41.527  53.990  1.00  0.00    -0.206 F 
HETATM   29  C   UNL     1      27.449  41.102  51.753  1.00  0.00     0.043 A 
HETATM   30  C   UNL     1      27.195  41.570  50.468  1.00  0.00     0.003 A 
HETATM   31  C   UNL     1      27.303  42.932  50.196  1.00  0.00     0.001 A 
HETATM   32  C   UNL     1      27.668  43.824  51.210  1.00  0.00     0.011 A 
ENDBRANCH  24  26
ENDBRANCH  20  23
ENDBRANCH   2  19
TORSDOF 6
ENDMDL
MODEL 9
REMARK VINA RESULT:      -7.5     18.999     21.452
REMARK  6 active torsions:
REMARK  status: ('A' for Active; 'I' for Inactive)
REMARK    1  A    between atoms: O_2  and  C_3 
REMARK    2  A    between atoms: C_6  and  C_7 
REMARK    3  A    between atoms: C_11  and  C_12 
REMARK       I    between atoms: C_12  and  N_13 
REMARK    4  A    between atoms: N_13  and  N_14 
REMARK       I    between atoms: N_14  and  C_15 
REMARK    5  A    between atoms: C_15  and  C_16 
REMARK    6  A    between atoms: C_17  and  C_18 
ROOT
HETATM    1  C   UNL     1      39.330  43.489  63.357  1.00  0.00     0.288 C 
HETATM    2  N   UNL     1      38.050  43.927  63.629  1.00  0.00    -0.262 N 
HETATM    3  O   UNL     1      40.235  44.261  63.050  1.00  0.00    -0.264 OA
HETATM    4  H   UNL     1      37.260  43.298  63.746  1.00  0.00     0.190 HD
ENDROOT
BRANCH   1   5
HETATM    5  C   UNL     1      39.526  42.069  63.470  1.00  0.00     0.121 A 
HETATM    6  N   UNL     1      39.255  41.217  62.436  1.00  0.00    -0.272 N 
HETATM    7  N   UNL     1      39.545  39.933  62.691  1.00  0.00    -0.174 NA
HETATM    8  H   UNL     1      38.886  41.465  61.523  1.00  0.00     0.189 HD
HETATM    9  C   UNL     1      40.004  39.933  63.953  1.00  0.00     0.089 A 
HETATM   10  C   UNL     1      39.997  41.254  64.479  1.00  0.00     0.071 A 
BRANCH   9  11
HETATM   11  C   UNL     1      40.466  38.708  64.611  1.00  0.00    -0.005 A 
HETATM   12  C   UNL     1      39.806  38.219  65.748  1.00  0.00     0.016 A 
HETATM   13  C   UNL     1      40.204  37.021  66.354  1.00  0.00     0.037 A 
HETATM   14  C   UNL     1      41.272  36.294  65.833  1.00  0.00     0.068 A 
HETATM   15  C   UNL     1      41.953  36.789  64.718  1.00  0.00     0.037 A 
HETATM   16  C   UNL     1      41.553  37.983  64.109  1.00  0.00     0.016 A 
BRANCH  14  17
HETATM   17  O   UNL     1      41.751  35.108  66.316  1.00  0.00    -0.356 OA
HETATM   18  C   UNL     1      40.970  33.950  66.051  1.00  0.00     0.210 C 
ENDBRANCH  14  17
ENDBRANCH   9  11
ENDBRANCH   1   5
BRANCH   2  19
HETATM   19  N   UNL     1      37.738  45.276  63.452  1.00  0.00    -0.267 N 
HETATM   20  C   UNL     1      37.367  46.008  64.556  1.00  0.00     0.240 C 
HETATM   21  O   UNL     1      37.311  45.542  65.690  1.00  0.00    -0.271 OA
HETATM   22  H   UNL     1      37.780  45.651  62.506  1.00  0.00     0.190 HD
BRANCH  20  23
HETATM   23  C   UNL     1      37.030  47.427  64.263  1.00  0.00     0.089 A 
HETATM   24  C   UNL     1      37.969  48.565  64.627  1.00  0.00     0.036 A 
HETATM   25  C   UNL     1      36.680  48.369  65.387  1.00  0.00     0.025 A 
BRANCH  24  26
HETATM   26  C   UNL     1      39.306  48.310  65.285  1.00  0.00    -0.015 A 
HETATM   27  C   UNL     1      39.535  48.654  66.627  1.00  0.00     0.123 A 
HETATM   28  F   UNL     1      38.551  49.237  67.331  1.00  0.00    -0.206 F 
HETATM   29  C   UNL     1      40.751  48.406  67.263  1.00  0.00     0.043 A 
HETATM   30  C   UNL     1      41.782  47.790  66.561  1.00  0.00     0.003 A 
HETATM   31  C   UNL     1      41.587  47.424  65.231  1.00  0.00     0.001 A 
HETATM   32  C   UNL     1      40.361  47.677  64.605  1.00  0.00     0.011 A 
ENDBRANCH  24  26
ENDBRANCH  20  23
ENDBRANCH   2  19
TORSDOF 6
ENDMDL
MODEL 10
REMARK VINA RESULT:      -7.5      2.270      2.785
REMARK  6 active torsions:
REMARK  status: ('A' for Active; 'I' for Inactive)
REMARK    1  A    between atoms: O_2  and  C_3 
REMARK    2  A    between atoms: C_6  and  C_7 
REMARK    3  A    between atoms: C_11  and  C_12 
REMARK       I    between atoms: C_12  and  N_13 
REMARK    4  A    between atoms: N_13  and  N_14 
REMARK       I    between atoms: N_14  and  C_15 
REMARK    5  A    between atoms: C_15  and  C_16 
REMARK    6  A    between atoms: C_17  and  C_18 
ROOT
HETATM    1  C   UNL     1      25.329  43.433  49.592  1.00  0.00     0.288 C 
HETATM    2  N   UNL     1      24.539  44.554  49.450  1.00  0.00    -0.262 N 
HETATM    3  O   UNL     1      25.394  42.563  48.726  1.00  0.00    -0.264 OA
HETATM    4  H   UNL     1      24.363  45.211  50.205  1.00  0.00     0.190 HD
ENDROOT
BRANCH   1   5
HETATM    5  C   UNL     1      26.076  43.364  50.819  1.00  0.00     0.121 A 
HETATM    6  N   UNL     1      26.403  42.172  51.400  1.00  0.00    -0.272 N 
HETATM    7  N   UNL     1      27.147  42.286  52.510  1.00  0.00    -0.174 NA
HETATM    8  H   UNL     1      26.158  41.244  51.067  1.00  0.00     0.189 HD
HETATM    9  C   UNL     1      27.298  43.609  52.682  1.00  0.00     0.089 A 
HETATM   10  C   UNL     1      26.630  44.320  51.646  1.00  0.00     0.071 A 
BRANCH   9  11
HETATM   11  C   UNL     1      28.088  44.164  53.785  1.00  0.00    -0.005 A 
HETATM   12  C   UNL     1      29.220  43.487  54.259  1.00  0.00     0.016 A 
HETATM   13  C   UNL     1      30.015  44.033  55.275  1.00  0.00     0.037 A 
HETATM   14  C   UNL     1      29.685  45.266  55.836  1.00  0.00     0.068 A 
HETATM   15  C   UNL     1      28.542  45.932  55.389  1.00  0.00     0.037 A 
HETATM   16  C   UNL     1      27.750  45.390  54.370  1.00  0.00     0.016 A 
BRANCH  14  17
HETATM   17  O   UNL     1      30.379  45.915  56.818  1.00  0.00    -0.356 OA
HETATM   18  C   UNL     1      30.677  45.165  57.990  1.00  0.00     0.210 C 
ENDBRANCH  14  17
ENDBRANCH   9  11
ENDBRANCH   1   5
BRANCH   2  19
HETATM   19  N   UNL     1      23.703  44.664  48.337  1.00  0.00    -0.267 N 
HETATM   20  C   UNL     1      22.363  44.399  48.501  1.00  0.00     0.240 C 
HETATM   21  O   UNL     1      21.861  44.088  49.578  1.00  0.00    -0.271 OA
HETATM   22  H   UNL     1      24.130  44.914  47.448  1.00  0.00     0.190 HD
BRANCH  20  23
HETATM   23  C   UNL     1      21.559  44.518  47.256  1.00  0.00     0.089 A 
HETATM   24  C   UNL     1      20.877  45.817  46.863  1.00  0.00     0.036 A 
HETATM   25  C   UNL     1      20.058  44.639  47.333  1.00  0.00     0.025 A 
BRANCH  24  26
HETATM   26  C   UNL     1      21.000  47.064  47.708  1.00  0.00    -0.015 A 
HETATM   27  C   UNL     1      19.982  47.448  48.595  1.00  0.00     0.123 A 
HETATM   28  F   UNL     1      18.870  46.699  48.679  1.00  0.00    -0.206 F 
HETATM   29  C   UNL     1      20.083  48.579  49.403  1.00  0.00     0.043 A 
HETATM   30  C   UNL     1      21.230  49.365  49.347  1.00  0.00     0.003 A 
HETATM   31  C   UNL     1      22.267  49.009  48.487  1.00  0.00     0.001 A 
HETATM   32  C   UNL     1      22.153  47.869  47.683  1.00  0.00     0.011 A 
ENDBRANCH  24  26
ENDBRANCH  20  23
ENDBRANCH   2  19
TORSDOF 6
ENDMDL
