MODEL 1
REMARK VINA RESULT:      -9.4      0.000      0.000
REMARK  6 active torsions:
REMARK  status: ('A' for Active; 'I' for Inactive)
REMARK    1  A    between atoms: C_2  and  C_4 
REMARK    2  A    between atoms: C_2  and  C_11 
REMARK    3  A    between atoms: C_2  and  O_3 
REMARK    4  A    between atoms: C_11  and  N_12 
REMARK       I    between atoms: N_12  and  C_13 
REMARK    5  A    between atoms: C_13  and  C_14 
REMARK    6  A    between atoms: C_15  and  C_16 
ROOT
HETATM    1  N   UNL     1      26.801  45.276  52.615  1.00  0.00    -0.354 N 
HETATM    2  C   UNL     1      25.852  46.239  52.362  1.00  0.00     0.255 C 
HETATM    3  O   UNL     1      25.797  47.282  53.008  1.00  0.00    -0.268 OA
HETATM    4  H   UNL     1      26.648  44.358  52.220  1.00  0.00     0.162 HD
ENDROOT
BRANCH   2   5
HETATM    5  C   UNL     1      24.929  45.917  51.287  1.00  0.00     0.080 A 
HETATM    6  C   UNL     1      24.778  46.554  50.015  1.00  0.00     0.107 A 
HETATM    7  N   UNL     1      23.879  45.900  49.255  1.00  0.00    -0.173 NA
HETATM    8  N   UNL     1      23.438  44.905  50.032  1.00  0.00    -0.288 N 
HETATM    9  H   UNL     1      22.738  44.277  49.652  1.00  0.00     0.188 HD
HETATM   10  C   UNL     1      24.025  44.870  51.259  1.00  0.00     0.128 A 
BRANCH   6  11
HETATM   11  C   UNL     1      25.437  47.751  49.503  1.00  0.00     0.034 A 
HETATM   12  C   UNL     1      24.699  48.813  48.974  1.00  0.00     0.129 A 
HETATM   13  F   UNL     1      23.361  48.748  48.904  1.00  0.00    -0.205 F 
HETATM   14  C   UNL     1      25.329  49.953  48.476  1.00  0.00     0.043 A 
HETATM   15  C   UNL     1      26.719  50.038  48.491  1.00  0.00     0.003 A 
HETATM   16  C   UNL     1      27.474  48.980  48.999  1.00  0.00     0.001 A 
HETATM   17  C   UNL     1      26.837  47.840  49.500  1.00  0.00     0.017 A 
ENDBRANCH   6  11
ENDBRANCH   2   5
BRANCH   1  18
HETATM   18  C   UNL     1      27.801  45.417  53.667  1.00  0.00     0.165 C 
BRANCH  18  19
HETATM   19  C   UNL     1      28.610  44.125  54.004  1.00  0.00     0.097 C 
HETATM   20  C   UNL     1      27.623  42.969  54.241  1.00  0.00     0.053 C 
BRANCH  19  21
HETATM   21  C   UNL     1      29.510  44.265  55.235  1.00  0.00    -0.023 A 
HETATM   22  C   UNL     1      30.496  43.304  55.530  1.00  0.00     0.013 A 
HETATM   23  C   UNL     1      31.315  43.439  56.654  1.00  0.00     0.043 A 
HETATM   24  C   UNL     1      31.165  44.538  57.487  1.00  0.00     0.116 A 
HETATM   25  F   UNL     1      31.953  44.665  58.563  1.00  0.00    -0.206 F 
HETATM   26  C   UNL     1      30.212  45.509  57.217  1.00  0.00     0.043 A 
HETATM   27  C   UNL     1      29.391  45.374  56.095  1.00  0.00     0.013 A 
ENDBRANCH  19  21
BRANCH  19  28
HETATM   28  O   UNL     1      29.382  43.720  52.863  1.00  0.00    -0.384 OA
HETATM   29  H   UNL     1      29.907  42.931  53.119  1.00  0.00     0.211 HD
ENDBRANCH  19  28
ENDBRANCH  18  19
ENDBRANCH   1  18
TORSDOF 6
ENDMDL
MODEL 2
REMARK VINA RESULT:      -9.2      2.603      3.881
REMARK  6 active torsions:
REMARK  status: ('A' for Active; 'I' for Inactive)
REMARK    1  A    between atoms: C_2  and  C_4 
REMARK    2  A    between atoms: C_2  and  C_11 
REMARK    3  A    between atoms: C_2  and  O_3 
REMARK    4  A    between atoms: C_11  and  N_12 
REMARK       I    between atoms: N_12  and  C_13 
REMARK    5  A    between atoms: C_13  and  C_14 
REMARK    6  A    between atoms: C_15  and  C_16 
ROOT
HETATM    1  N   UNL     1      26.183  46.127  50.488  1.00  0.00    -0.354 N 
HETATM    2  C   UNL     1      25.681  47.393  50.690  1.00  0.00     0.255 C 
HETATM    3  O   UNL     1      25.065  47.691  51.709  1.00  0.00    -0.268 OA
HETATM    4  H   UNL     1      26.464  45.884  49.547  1.00  0.00     0.162 HD
ENDROOT
BRANCH   2   5
HETATM    5  C   UNL     1      25.934  48.328  49.607  1.00  0.00     0.080 A 
HETATM    6  C   UNL     1      24.993  49.086  48.839  1.00  0.00     0.107 A 
HETATM    7  N   UNL     1      25.627  49.916  47.989  1.00  0.00    -0.173 NA
HETATM    8  N   UNL     1      26.926  49.666  48.176  1.00  0.00    -0.288 N 
HETATM    9  H   UNL     1      27.597  50.189  47.623  1.00  0.00     0.188 HD
HETATM   10  C   UNL     1      27.170  48.722  49.126  1.00  0.00     0.128 A 
BRANCH   6  11
HETATM   11  C   UNL     1      23.535  49.044  48.874  1.00  0.00     0.034 A 
HETATM   12  C   UNL     1      22.788  50.174  49.217  1.00  0.00     0.129 A 
HETATM   13  F   UNL     1      23.398  51.323  49.546  1.00  0.00    -0.205 F 
HETATM   14  C   UNL     1      21.395  50.134  49.259  1.00  0.00     0.043 A 
HETATM   15  C   UNL     1      20.728  48.946  48.966  1.00  0.00     0.003 A 
HETATM   16  C   UNL     1      21.458  47.803  48.639  1.00  0.00     0.001 A 
HETATM   17  C   UNL     1      22.855  47.850  48.595  1.00  0.00     0.017 A 
ENDBRANCH   6  11
ENDBRANCH   2   5
BRANCH   1  18
HETATM   18  C   UNL     1      26.012  45.052  51.457  1.00  0.00     0.165 C 
BRANCH  18  19
HETATM   19  C   UNL     1      26.951  43.819  51.266  1.00  0.00     0.097 C 
HETATM   20  C   UNL     1      26.095  42.542  51.249  1.00  0.00     0.053 C 
BRANCH  19  21
HETATM   21  C   UNL     1      28.019  43.684  52.355  1.00  0.00    -0.023 A 
HETATM   22  C   UNL     1      27.941  44.429  53.548  1.00  0.00     0.013 A 
HETATM   23  C   UNL     1      28.917  44.300  54.539  1.00  0.00     0.043 A 
HETATM   24  C   UNL     1      29.973  43.419  54.354  1.00  0.00     0.116 A 
HETATM   25  F   UNL     1      30.906  43.296  55.307  1.00  0.00    -0.206 F 
HETATM   26  C   UNL     1      30.071  42.660  53.196  1.00  0.00     0.043 A 
HETATM   27  C   UNL     1      29.096  42.791  52.205  1.00  0.00     0.013 A 
ENDBRANCH  19  21
BRANCH  19  28
HETATM   28  O   UNL     1      27.564  43.868  49.968  1.00  0.00    -0.384 OA
HETATM   29  H   UNL     1      26.929  44.291  49.351  1.00  0.00     0.211 HD
ENDBRANCH  19  28
ENDBRANCH  18  19
ENDBRANCH   1  18
TORSDOF 6
ENDMDL
MODEL 3
REMARK VINA RESULT:      -9.2      3.185      7.696
REMARK  6 active torsions:
REMARK  status: ('A' for Active; 'I' for Inactive)
REMARK    1  A    between atoms: C_2  and  C_4 
REMARK    2  A    between atoms: C_2  and  C_11 
REMARK    3  A    between atoms: C_2  and  O_3 
REMARK    4  A    between atoms: C_11  and  N_12 
REMARK       I    between atoms: N_12  and  C_13 
REMARK    5  A    between atoms: C_13  and  C_14 
REMARK    6  A    between atoms: C_15  and  C_16 
ROOT
HETATM    1  N   UNL     1      27.979  43.224  53.178  1.00  0.00    -0.354 N 
HETATM    2  C   UNL     1      27.284  43.759  54.239  1.00  0.00     0.255 C 
HETATM    3  O   UNL     1      26.553  43.073  54.948  1.00  0.00    -0.268 OA
HETATM    4  H   UNL     1      28.365  43.870  52.503  1.00  0.00     0.162 HD
ENDROOT
BRANCH   2   5
HETATM    5  C   UNL     1      27.482  45.185  54.439  1.00  0.00     0.080 A 
HETATM    6  C   UNL     1      28.474  45.849  55.228  1.00  0.00     0.107 A 
HETATM    7  N   UNL     1      28.388  47.185  55.080  1.00  0.00    -0.173 NA
HETATM    8  N   UNL     1      27.348  47.369  54.260  1.00  0.00    -0.288 N 
HETATM    9  H   UNL     1      27.099  48.321  54.012  1.00  0.00     0.188 HD
HETATM   10  C   UNL     1      26.764  46.210  53.850  1.00  0.00     0.128 A 
BRANCH   6  11
HETATM   11  C   UNL     1      29.481  45.274  56.113  1.00  0.00     0.034 A 
HETATM   12  C   UNL     1      29.570  45.658  57.454  1.00  0.00     0.129 A 
HETATM   13  F   UNL     1      28.740  46.586  57.955  1.00  0.00    -0.205 F 
HETATM   14  C   UNL     1      30.537  45.116  58.299  1.00  0.00     0.043 A 
HETATM   15  C   UNL     1      31.444  44.182  57.802  1.00  0.00     0.003 A 
HETATM   16  C   UNL     1      31.383  43.799  56.462  1.00  0.00     0.001 A 
HETATM   17  C   UNL     1      30.408  44.344  55.620  1.00  0.00     0.017 A 
ENDBRANCH   6  11
ENDBRANCH   2   5
BRANCH   1  18
HETATM   18  C   UNL     1      27.892  41.815  52.815  1.00  0.00     0.165 C 
BRANCH  18  19
HETATM   19  C   UNL     1      27.130  41.509  51.487  1.00  0.00     0.097 C 
HETATM   20  C   UNL     1      28.143  41.031  50.433  1.00  0.00     0.053 C 
BRANCH  19  21
HETATM   21  C   UNL     1      26.363  42.710  50.926  1.00  0.00    -0.023 A 
HETATM   22  C   UNL     1      25.013  42.932  51.261  1.00  0.00     0.013 A 
HETATM   23  C   UNL     1      24.319  44.031  50.747  1.00  0.00     0.043 A 
HETATM   24  C   UNL     1      24.968  44.921  49.904  1.00  0.00     0.116 A 
HETATM   25  F   UNL     1      24.300  45.975  49.415  1.00  0.00    -0.206 F 
HETATM   26  C   UNL     1      26.300  44.737  49.566  1.00  0.00     0.043 A 
HETATM   27  C   UNL     1      26.994  43.639  50.077  1.00  0.00     0.013 A 
ENDBRANCH  19  21
BRANCH  19  28
HETATM   28  O   UNL     1      26.245  40.394  51.676  1.00  0.00    -0.384 OA
HETATM   29  H   UNL     1      25.327  40.711  51.537  1.00  0.00     0.211 HD
ENDBRANCH  19  28
ENDBRANCH  18  19
ENDBRANCH   1  18
TORSDOF 6
ENDMDL
MODEL 4
REMARK VINA RESULT:      -9.1      1.737      2.358
REMARK  6 active torsions:
REMARK  status: ('A' for Active; 'I' for Inactive)
REMARK    1  A    between atoms: C_2  and  C_4 
REMARK    2  A    between atoms: C_2  and  C_11 
REMARK    3  A    between atoms: C_2  and  O_3 
REMARK    4  A    between atoms: C_11  and  N_12 
REMARK       I    between atoms: N_12  and  C_13 
REMARK    5  A    between atoms: C_13  and  C_14 
REMARK    6  A    between atoms: C_15  and  C_16 
ROOT
HETATM    1  N   UNL     1      27.038  44.105  52.324  1.00  0.00    -0.354 N 
HETATM    2  C   UNL     1      25.666  43.999  52.300  1.00  0.00     0.255 C 
HETATM    3  O   UNL     1      24.984  44.175  53.306  1.00  0.00    -0.268 OA
HETATM    4  H   UNL     1      27.547  43.721  51.539  1.00  0.00     0.162 HD
ENDROOT
BRANCH   2   5
HETATM    5  C   UNL     1      25.104  43.656  51.004  1.00  0.00     0.080 A 
HETATM    6  C   UNL     1      24.967  44.480  49.842  1.00  0.00     0.107 A 
HETATM    7  N   UNL     1      24.485  43.768  48.805  1.00  0.00    -0.173 NA
HETATM    8  N   UNL     1      24.281  42.543  49.300  1.00  0.00    -0.288 N 
HETATM    9  H   UNL     1      23.910  41.833  48.678  1.00  0.00     0.188 HD
HETATM   10  C   UNL     1      24.626  42.419  50.611  1.00  0.00     0.128 A 
BRANCH   6  11
HETATM   11  C   UNL     1      25.261  45.900  49.682  1.00  0.00     0.034 A 
HETATM   12  C   UNL     1      26.577  46.360  49.590  1.00  0.00     0.129 A 
HETATM   13  F   UNL     1      27.607  45.504  49.668  1.00  0.00    -0.205 F 
HETATM   14  C   UNL     1      26.859  47.718  49.446  1.00  0.00     0.043 A 
HETATM   15  C   UNL     1      25.816  48.641  49.405  1.00  0.00     0.003 A 
HETATM   16  C   UNL     1      24.497  48.202  49.514  1.00  0.00     0.001 A 
HETATM   17  C   UNL     1      24.219  46.839  49.655  1.00  0.00     0.017 A 
ENDBRANCH   6  11
ENDBRANCH   2   5
BRANCH   1  18
HETATM   18  C   UNL     1      27.778  44.425  53.538  1.00  0.00     0.165 C 
BRANCH  18  19
HETATM   19  C   UNL     1      29.001  43.503  53.843  1.00  0.00     0.097 C 
HETATM   20  C   UNL     1      28.508  42.052  53.973  1.00  0.00     0.053 C 
BRANCH  19  21
HETATM   21  C   UNL     1      29.757  43.885  55.119  1.00  0.00    -0.023 A 
HETATM   22  C   UNL     1      29.488  45.093  55.791  1.00  0.00     0.013 A 
HETATM   23  C   UNL     1      30.179  45.435  56.956  1.00  0.00     0.043 A 
HETATM   24  C   UNL     1      31.138  44.570  57.465  1.00  0.00     0.116 A 
HETATM   25  F   UNL     1      31.798  44.900  58.584  1.00  0.00    -0.206 F 
HETATM   26  C   UNL     1      31.416  43.367  56.834  1.00  0.00     0.043 A 
HETATM   27  C   UNL     1      30.727  43.026  55.669  1.00  0.00     0.013 A 
ENDBRANCH  19  21
BRANCH  19  28
HETATM   28  O   UNL     1      29.894  43.487  52.718  1.00  0.00    -0.384 OA
HETATM   29  H   UNL     1      30.285  44.383  52.631  1.00  0.00     0.211 HD
ENDBRANCH  19  28
ENDBRANCH  18  19
ENDBRANCH   1  18
TORSDOF 6
ENDMDL
MODEL 5
REMARK VINA RESULT:      -9.1      3.071      4.953
REMARK  6 active torsions:
REMARK  status: ('A' for Active; 'I' for Inactive)
REMARK    1  A    between atoms: C_2  and  C_4 
REMARK    2  A    between atoms: C_2  and  C_11 
REMARK    3  A    between atoms: C_2  and  O_3 
REMARK    4  A    between atoms: C_11  and  N_12 
REMARK       I    between atoms: N_12  and  C_13 
REMARK    5  A    between atoms: C_13  and  C_14 
REMARK    6  A    between atoms: C_15  and  C_16 
ROOT
HETATM    1  N   UNL     1      26.523  45.823  53.517  1.00  0.00    -0.354 N 
HETATM    2  C   UNL     1      25.603  45.096  52.795  1.00  0.00     0.255 C 
HETATM    3  O   UNL     1      24.563  44.683  53.299  1.00  0.00    -0.268 OA
HETATM    4  H   UNL     1      27.448  45.925  53.120  1.00  0.00     0.162 HD
ENDROOT
BRANCH   2   5
HETATM    5  C   UNL     1      25.968  44.858  51.409  1.00  0.00     0.080 A 
HETATM    6  C   UNL     1      26.917  43.925  50.880  1.00  0.00     0.107 A 
HETATM    7  N   UNL     1      26.900  43.937  49.534  1.00  0.00    -0.173 NA
HETATM    8  N   UNL     1      26.004  44.876  49.213  1.00  0.00    -0.288 N 
HETATM    9  H   UNL     1      25.833  45.056  48.230  1.00  0.00     0.188 HD
HETATM   10  C   UNL     1      25.421  45.464  50.293  1.00  0.00     0.128 A 
BRANCH   6  11
HETATM   11  C   UNL     1      27.833  43.042  51.594  1.00  0.00     0.034 A 
HETATM   12  C   UNL     1      27.582  41.672  51.700  1.00  0.00     0.129 A 
HETATM   13  F   UNL     1      26.475  41.137  51.163  1.00  0.00    -0.205 F 
HETATM   14  C   UNL     1      28.452  40.829  52.390  1.00  0.00     0.043 A 
HETATM   15  C   UNL     1      29.589  41.356  52.997  1.00  0.00     0.003 A 
HETATM   16  C   UNL     1      29.848  42.725  52.918  1.00  0.00     0.001 A 
HETATM   17  C   UNL     1      28.973  43.565  52.222  1.00  0.00     0.017 A 
ENDBRANCH   6  11
ENDBRANCH   2   5
BRANCH   1  18
HETATM   18  C   UNL     1      26.335  46.146  54.925  1.00  0.00     0.165 C 
BRANCH  18  19
HETATM   19  C   UNL     1      27.437  47.052  55.560  1.00  0.00     0.097 C 
HETATM   20  C   UNL     1      28.028  47.956  54.465  1.00  0.00     0.053 C 
BRANCH  19  21
HETATM   21  C   UNL     1      28.575  46.268  56.220  1.00  0.00    -0.023 A 
HETATM   22  C   UNL     1      28.795  46.334  57.610  1.00  0.00     0.013 A 
HETATM   23  C   UNL     1      29.833  45.615  58.207  1.00  0.00     0.043 A 
HETATM   24  C   UNL     1      30.655  44.816  57.424  1.00  0.00     0.116 A 
HETATM   25  F   UNL     1      31.649  44.127  58.000  1.00  0.00    -0.206 F 
HETATM   26  C   UNL     1      30.457  44.720  56.055  1.00  0.00     0.043 A 
HETATM   27  C   UNL     1      29.420  45.440  55.457  1.00  0.00     0.013 A 
ENDBRANCH  19  21
BRANCH  19  28
HETATM   28  O   UNL     1      26.842  47.959  56.502  1.00  0.00    -0.384 OA
HETATM   29  H   UNL     1      26.254  48.567  56.005  1.00  0.00     0.211 HD
ENDBRANCH  19  28
ENDBRANCH  18  19
ENDBRANCH   1  18
TORSDOF 6
ENDMDL
MODEL 6
REMARK VINA RESULT:      -8.9      3.292      4.758
REMARK  6 active torsions:
REMARK  status: ('A' for Active; 'I' for Inactive)
REMARK    1  A    between atoms: C_2  and  C_4 
REMARK    2  A    between atoms: C_2  and  C_11 
REMARK    3  A    between atoms: C_2  and  O_3 
REMARK    4  A    between atoms: C_11  and  N_12 
REMARK       I    between atoms: N_12  and  C_13 
REMARK    5  A    between atoms: C_13  and  C_14 
REMARK    6  A    between atoms: C_15  and  C_16 
ROOT
HETATM    1  N   UNL     1      27.028  42.008  52.829  1.00  0.00    -0.354 N 
HETATM    2  C   UNL     1      27.562  41.185  51.864  1.00  0.00     0.255 C 
HETATM    3  O   UNL     1      28.702  40.739  51.951  1.00  0.00    -0.268 OA
HETATM    4  H   UNL     1      26.192  42.525  52.588  1.00  0.00     0.162 HD
ENDROOT
BRANCH   2   5
HETATM    5  C   UNL     1      26.676  40.900  50.748  1.00  0.00     0.080 A 
HETATM    6  C   UNL     1      25.933  41.817  49.938  1.00  0.00     0.107 A 
HETATM    7  N   UNL     1      25.302  41.171  48.939  1.00  0.00    -0.173 NA
HETATM    8  N   UNL     1      25.596  39.881  49.130  1.00  0.00    -0.288 N 
HETATM    9  H   UNL     1      25.214  39.203  48.480  1.00  0.00     0.188 HD
HETATM   10  C   UNL     1      26.408  39.659  50.200  1.00  0.00     0.128 A 
BRANCH   6  11
HETATM   11  C   UNL     1      25.791  43.262  50.080  1.00  0.00     0.034 A 
HETATM   12  C   UNL     1      24.599  43.831  50.536  1.00  0.00     0.129 A 
HETATM   13  F   UNL     1      23.543  43.058  50.834  1.00  0.00    -0.205 F 
HETATM   14  C   UNL     1      24.459  45.212  50.664  1.00  0.00     0.043 A 
HETATM   15  C   UNL     1      25.519  46.049  50.322  1.00  0.00     0.003 A 
HETATM   16  C   UNL     1      26.711  45.501  49.848  1.00  0.00     0.001 A 
HETATM   17  C   UNL     1      26.847  44.114  49.725  1.00  0.00     0.017 A 
ENDBRANCH   6  11
ENDBRANCH   2   5
BRANCH   1  18
HETATM   18  C   UNL     1      27.774  42.416  54.012  1.00  0.00     0.165 C 
BRANCH  18  19
HETATM   19  C   UNL     1      28.672  43.682  53.838  1.00  0.00     0.097 C 
HETATM   20  C   UNL     1      29.921  43.530  54.722  1.00  0.00     0.053 C 
BRANCH  19  21
HETATM   21  C   UNL     1      27.966  44.992  54.203  1.00  0.00    -0.023 A 
HETATM   22  C   UNL     1      28.563  45.922  55.076  1.00  0.00     0.013 A 
HETATM   23  C   UNL     1      27.915  47.116  55.403  1.00  0.00     0.043 A 
HETATM   24  C   UNL     1      26.672  47.396  54.855  1.00  0.00     0.116 A 
HETATM   25  F   UNL     1      26.054  48.543  55.169  1.00  0.00    -0.206 F 
HETATM   26  C   UNL     1      26.063  46.507  53.982  1.00  0.00     0.043 A 
HETATM   27  C   UNL     1      26.710  45.313  53.656  1.00  0.00     0.013 A 
ENDBRANCH  19  21
BRANCH  19  28
HETATM   28  O   UNL     1      29.177  43.743  52.496  1.00  0.00    -0.384 OA
HETATM   29  H   UNL     1      30.071  44.146  52.528  1.00  0.00     0.211 HD
ENDBRANCH  19  28
ENDBRANCH  18  19
ENDBRANCH   1  18
TORSDOF 6
ENDMDL
MODEL 7
REMARK VINA RESULT:      -8.8      3.755      5.040
REMARK  6 active torsions:
REMARK  status: ('A' for Active; 'I' for Inactive)
REMARK    1  A    between atoms: C_2  and  C_4 
REMARK    2  A    between atoms: C_2  and  C_11 
REMARK    3  A    between atoms: C_2  and  O_3 
REMARK    4  A    between atoms: C_11  and  N_12 
REMARK       I    between atoms: N_12  and  C_13 
REMARK    5  A    between atoms: C_13  and  C_14 
REMARK    6  A    between atoms: C_15  and  C_16 
ROOT
HETATM    1  N   UNL     1      25.850  43.184  52.328  1.00  0.00    -0.354 N 
HETATM    2  C   UNL     1      25.670  43.726  51.076  1.00  0.00     0.255 C 
HETATM    3  O   UNL     1      26.230  44.763  50.732  1.00  0.00    -0.268 OA
HETATM    4  H   UNL     1      25.191  42.478  52.628  1.00  0.00     0.162 HD
ENDROOT
BRANCH   2   5
HETATM    5  C   UNL     1      24.768  42.981  50.215  1.00  0.00     0.080 A 
HETATM    6  C   UNL     1      25.037  41.816  49.429  1.00  0.00     0.107 A 
HETATM    7  N   UNL     1      23.913  41.364  48.841  1.00  0.00    -0.173 NA
HETATM    8  N   UNL     1      22.967  42.236  49.203  1.00  0.00    -0.288 N 
HETATM    9  H   UNL     1      22.023  42.085  48.862  1.00  0.00     0.188 HD
HETATM   10  C   UNL     1      23.421  43.227  50.018  1.00  0.00     0.128 A 
BRANCH   6  11
HETATM   11  C   UNL     1      26.306  41.130  49.208  1.00  0.00     0.034 A 
HETATM   12  C   UNL     1      26.836  40.263  50.168  1.00  0.00     0.129 A 
HETATM   13  F   UNL     1      26.197  40.058  51.330  1.00  0.00    -0.205 F 
HETATM   14  C   UNL     1      28.053  39.614  49.963  1.00  0.00     0.043 A 
HETATM   15  C   UNL     1      28.766  39.837  48.787  1.00  0.00     0.003 A 
HETATM   16  C   UNL     1      28.261  40.712  47.825  1.00  0.00     0.001 A 
HETATM   17  C   UNL     1      27.039  41.359  48.035  1.00  0.00     0.017 A 
ENDBRANCH   6  11
ENDBRANCH   2   5
BRANCH   1  18
HETATM   18  C   UNL     1      26.707  43.800  53.334  1.00  0.00     0.165 C 
BRANCH  18  19
HETATM   19  C   UNL     1      28.195  43.327  53.332  1.00  0.00     0.097 C 
HETATM   20  C   UNL     1      28.227  41.790  53.368  1.00  0.00     0.053 C 
BRANCH  19  21
HETATM   21  C   UNL     1      29.014  43.866  54.508  1.00  0.00    -0.023 A 
HETATM   22  C   UNL     1      30.158  43.188  54.970  1.00  0.00     0.013 A 
HETATM   23  C   UNL     1      30.903  43.686  56.043  1.00  0.00     0.043 A 
HETATM   24  C   UNL     1      30.518  44.869  56.656  1.00  0.00     0.116 A 
HETATM   25  F   UNL     1      31.235  45.345  57.683  1.00  0.00    -0.206 F 
HETATM   26  C   UNL     1      29.404  45.568  56.216  1.00  0.00     0.043 A 
HETATM   27  C   UNL     1      28.658  45.070  55.146  1.00  0.00     0.013 A 
ENDBRANCH  19  21
BRANCH  19  28
HETATM   28  O   UNL     1      28.817  43.677  52.086  1.00  0.00    -0.384 OA
HETATM   29  H   UNL     1      29.789  43.621  52.208  1.00  0.00     0.211 HD
ENDBRANCH  19  28
ENDBRANCH  18  19
ENDBRANCH   1  18
TORSDOF 6
ENDMDL
MODEL 8
REMARK VINA RESULT:      -8.7      5.981      8.651
REMARK  6 active torsions:
REMARK  status: ('A' for Active; 'I' for Inactive)
REMARK    1  A    between atoms: C_2  and  C_4 
REMARK    2  A    between atoms: C_2  and  C_11 
REMARK    3  A    between atoms: C_2  and  O_3 
REMARK    4  A    between atoms: C_11  and  N_12 
REMARK       I    between atoms: N_12  and  C_13 
REMARK    5  A    between atoms: C_13  and  C_14 
REMARK    6  A    between atoms: C_15  and  C_16 
ROOT
HETATM    1  N   UNL     1      20.917  47.922  48.427  1.00  0.00    -0.354 N 
HETATM    2  C   UNL     1      20.055  47.215  47.620  1.00  0.00     0.255 C 
HETATM    3  O   UNL     1      20.432  46.676  46.583  1.00  0.00    -0.268 OA
HETATM    4  H   UNL     1      20.508  48.531  49.123  1.00  0.00     0.162 HD
ENDROOT
BRANCH   2   5
HETATM    5  C   UNL     1      18.681  47.172  48.089  1.00  0.00     0.080 A 
HETATM    6  C   UNL     1      17.826  48.258  48.462  1.00  0.00     0.107 A 
HETATM    7  N   UNL     1      16.588  47.816  48.750  1.00  0.00    -0.173 NA
HETATM    8  N   UNL     1      16.659  46.489  48.609  1.00  0.00    -0.288 N 
HETATM    9  H   UNL     1      15.822  45.944  48.784  1.00  0.00     0.188 HD
HETATM   10  C   UNL     1      17.887  46.047  48.221  1.00  0.00     0.128 A 
BRANCH   6  11
HETATM   11  C   UNL     1      18.140  49.679  48.565  1.00  0.00     0.034 A 
HETATM   12  C   UNL     1      18.419  50.271  49.800  1.00  0.00     0.129 A 
HETATM   13  F   UNL     1      18.384  49.546  50.928  1.00  0.00    -0.205 F 
HETATM   14  C   UNL     1      18.709  51.631  49.901  1.00  0.00     0.043 A 
HETATM   15  C   UNL     1      18.712  52.424  48.756  1.00  0.00     0.003 A 
HETATM   16  C   UNL     1      18.418  51.855  47.516  1.00  0.00     0.001 A 
HETATM   17  C   UNL     1      18.130  50.490  47.421  1.00  0.00     0.017 A 
ENDBRANCH   6  11
ENDBRANCH   2   5
BRANCH   1  18
HETATM   18  C   UNL     1      22.330  48.088  48.109  1.00  0.00     0.165 C 
BRANCH  18  19
HETATM   19  C   UNL     1      23.027  49.322  48.765  1.00  0.00     0.097 C 
HETATM   20  C   UNL     1      22.717  50.571  47.924  1.00  0.00     0.053 C 
BRANCH  19  21
HETATM   21  C   UNL     1      24.546  49.176  48.892  1.00  0.00    -0.023 A 
HETATM   22  C   UNL     1      25.420  50.069  48.243  1.00  0.00     0.013 A 
HETATM   23  C   UNL     1      26.805  49.933  48.364  1.00  0.00     0.043 A 
HETATM   24  C   UNL     1      27.330  48.910  49.141  1.00  0.00     0.116 A 
HETATM   25  F   UNL     1      28.658  48.782  49.257  1.00  0.00    -0.206 F 
HETATM   26  C   UNL     1      26.496  48.022  49.804  1.00  0.00     0.043 A 
HETATM   27  C   UNL     1      25.111  48.157  49.682  1.00  0.00     0.013 A 
ENDBRANCH  19  21
BRANCH  19  28
HETATM   28  O   UNL     1      22.441  49.589  50.049  1.00  0.00    -0.384 OA
HETATM   29  H   UNL     1      23.136  49.977  50.623  1.00  0.00     0.211 HD
ENDBRANCH  19  28
ENDBRANCH  18  19
ENDBRANCH   1  18
TORSDOF 6
ENDMDL
MODEL 9
REMARK VINA RESULT:      -8.7      2.888      4.153
REMARK  6 active torsions:
REMARK  status: ('A' for Active; 'I' for Inactive)
REMARK    1  A    between atoms: C_2  and  C_4 
REMARK    2  A    between atoms: C_2  and  C_11 
REMARK    3  A    between atoms: C_2  and  O_3 
REMARK    4  A    between atoms: C_11  and  N_12 
REMARK       I    between atoms: N_12  and  C_13 
REMARK    5  A    between atoms: C_13  and  C_14 
REMARK    6  A    between atoms: C_15  and  C_16 
ROOT
HETATM    1  N   UNL     1      27.244  41.958  52.800  1.00  0.00    -0.354 N 
HETATM    2  C   UNL     1      27.637  41.076  51.819  1.00  0.00     0.255 C 
HETATM    3  O   UNL     1      28.729  40.515  51.851  1.00  0.00    -0.268 OA
HETATM    4  H   UNL     1      26.453  42.555  52.597  1.00  0.00     0.162 HD
ENDROOT
BRANCH   2   5
HETATM    5  C   UNL     1      26.666  40.875  50.757  1.00  0.00     0.080 A 
HETATM    6  C   UNL     1      25.926  41.856  50.023  1.00  0.00     0.107 A 
HETATM    7  N   UNL     1      25.197  41.276  49.050  1.00  0.00    -0.173 NA
HETATM    8  N   UNL     1      25.429  39.967  49.186  1.00  0.00    -0.288 N 
HETATM    9  H   UNL     1      24.967  39.331  48.545  1.00  0.00     0.188 HD
HETATM   10  C   UNL     1      26.293  39.668  50.194  1.00  0.00     0.128 A 
BRANCH   6  11
HETATM   11  C   UNL     1      25.876  43.301  50.214  1.00  0.00     0.034 A 
HETATM   12  C   UNL     1      24.816  43.904  50.896  1.00  0.00     0.129 A 
HETATM   13  F   UNL     1      23.804  43.166  51.376  1.00  0.00    -0.205 F 
HETATM   14  C   UNL     1      24.763  45.287  51.071  1.00  0.00     0.043 A 
HETATM   15  C   UNL     1      25.774  46.090  50.549  1.00  0.00     0.003 A 
HETATM   16  C   UNL     1      26.831  45.507  49.849  1.00  0.00     0.001 A 
HETATM   17  C   UNL     1      26.881  44.120  49.679  1.00  0.00     0.017 A 
ENDBRANCH   6  11
ENDBRANCH   2   5
BRANCH   1  18
HETATM   18  C   UNL     1      28.092  42.296  53.936  1.00  0.00     0.165 C 
BRANCH  18  19
HETATM   19  C   UNL     1      29.074  43.490  53.710  1.00  0.00     0.097 C 
HETATM   20  C   UNL     1      30.348  42.962  53.029  1.00  0.00     0.053 C 
BRANCH  19  21
HETATM   21  C   UNL     1      29.468  44.215  55.000  1.00  0.00    -0.023 A 
HETATM   22  C   UNL     1      28.727  45.316  55.471  1.00  0.00     0.013 A 
HETATM   23  C   UNL     1      29.090  45.973  56.650  1.00  0.00     0.043 A 
HETATM   24  C   UNL     1      30.188  45.532  57.373  1.00  0.00     0.116 A 
HETATM   25  F   UNL     1      30.533  46.163  58.503  1.00  0.00    -0.206 F 
HETATM   26  C   UNL     1      30.931  44.442  56.942  1.00  0.00     0.043 A 
HETATM   27  C   UNL     1      30.570  43.786  55.763  1.00  0.00     0.013 A 
ENDBRANCH  19  21
BRANCH  19  28
HETATM   28  O   UNL     1      28.510  44.415  52.767  1.00  0.00    -0.384 OA
HETATM   29  H   UNL     1      29.166  45.129  52.617  1.00  0.00     0.211 HD
ENDBRANCH  19  28
ENDBRANCH  18  19
ENDBRANCH   1  18
TORSDOF 6
ENDMDL
MODEL 10
REMARK VINA RESULT:      -8.7     12.178     14.014
REMARK  6 active torsions:
REMARK  status: ('A' for Active; 'I' for Inactive)
REMARK    1  A    between atoms: C_2  and  C_4 
REMARK    2  A    between atoms: C_2  and  C_11 
REMARK    3  A    between atoms: C_2  and  O_3 
REMARK    4  A    between atoms: C_11  and  N_12 
REMARK       I    between atoms: N_12  and  C_13 
REMARK    5  A    between atoms: C_13  and  C_14 
REMARK    6  A    between atoms: C_15  and  C_16 
ROOT
HETATM    1  N   UNL     1      29.919  47.989  40.292  1.00  0.00    -0.354 N 
HETATM    2  C   UNL     1      29.157  47.939  39.148  1.00  0.00     0.255 C 
HETATM    3  O   UNL     1      29.619  47.554  38.077  1.00  0.00    -0.268 OA
HETATM    4  H   UNL     1      29.559  48.530  41.067  1.00  0.00     0.162 HD
ENDROOT
BRANCH   2   5
HETATM    5  C   UNL     1      27.783  48.383  39.311  1.00  0.00     0.080 A 
HETATM    6  C   UNL     1      27.285  49.716  39.465  1.00  0.00     0.107 A 
HETATM    7  N   UNL     1      25.938  49.723  39.491  1.00  0.00    -0.173 NA
HETATM    8  N   UNL     1      25.590  48.436  39.402  1.00  0.00    -0.288 N 
HETATM    9  H   UNL     1      24.601  48.208  39.407  1.00  0.00     0.188 HD
HETATM   10  C   UNL     1      26.650  47.589  39.299  1.00  0.00     0.128 A 
BRANCH   6  11
HETATM   11  C   UNL     1      28.027  50.965  39.597  1.00  0.00     0.034 A 
HETATM   12  C   UNL     1      28.607  51.337  40.813  1.00  0.00     0.129 A 
HETATM   13  F   UNL     1      28.474  50.560  41.899  1.00  0.00    -0.205 F 
HETATM   14  C   UNL     1      29.309  52.534  40.942  1.00  0.00     0.043 A 
HETATM   15  C   UNL     1      29.430  53.387  39.848  1.00  0.00     0.003 A 
HETATM   16  C   UNL     1      28.843  53.041  38.630  1.00  0.00     0.001 A 
HETATM   17  C   UNL     1      28.142  51.838  38.505  1.00  0.00     0.017 A 
ENDBRANCH   6  11
ENDBRANCH   2   5
BRANCH   1  18
HETATM   18  C   UNL     1      31.323  47.599  40.317  1.00  0.00     0.165 C 
BRANCH  18  19
HETATM   19  C   UNL     1      32.239  48.442  41.260  1.00  0.00     0.097 C 
HETATM   20  C   UNL     1      31.498  48.684  42.585  1.00  0.00     0.053 C 
BRANCH  19  21
HETATM   21  C   UNL     1      32.652  49.793  40.670  1.00  0.00    -0.023 A 
HETATM   22  C   UNL     1      32.035  50.301  39.510  1.00  0.00     0.013 A 
HETATM   23  C   UNL     1      32.414  51.535  38.977  1.00  0.00     0.043 A 
HETATM   24  C   UNL     1      33.405  52.279  39.603  1.00  0.00     0.116 A 
HETATM   25  F   UNL     1      33.765  53.463  39.091  1.00  0.00    -0.206 F 
HETATM   26  C   UNL     1      34.023  51.813  40.754  1.00  0.00     0.043 A 
HETATM   27  C   UNL     1      33.645  50.578  41.286  1.00  0.00     0.013 A 
ENDBRANCH  19  21
BRANCH  19  28
HETATM   28  O   UNL     1      33.401  47.679  41.623  1.00  0.00    -0.384 OA
HETATM   29  H   UNL     1      33.583  47.842  42.574  1.00  0.00     0.211 HD
ENDBRANCH  19  28
ENDBRANCH  18  19
ENDBRANCH   1  18
TORSDOF 6
ENDMDL
