MODEL 1
REMARK VINA RESULT:      -9.1      0.000      0.000
REMARK  4 active torsions:
REMARK  status: ('A' for Active; 'I' for Inactive)
REMARK    1  A    between atoms: C_6  and  N_7 
REMARK       I    between atoms: N_7  and  C_8 
REMARK    2  A    between atoms: C_8  and  C_9 
REMARK    3  A    between atoms: C_10  and  C_11 
REMARK    4  A    between atoms: C_14  and  O_15 
ROOT
HETATM    1  C   UNL     1      27.053  42.756  51.534  1.00  0.00     0.062 A 
HETATM    2  C   UNL     1      25.805  43.627  51.487  1.00  0.00     0.202 A 
HETATM    3  N   UNL     1      24.760  43.016  50.653  1.00  0.00    -0.084 N 
HETATM    4  C   UNL     1      24.904  41.827  49.991  1.00  0.00     0.725 A 
HETATM    5  N   UNL     1      26.070  41.160  50.078  1.00  0.00    -0.192 N 
HETATM    6  N   UNL     1      23.486  43.462  50.579  1.00  0.00    -0.149 NA
HETATM    7  C   UNL     1      22.956  42.550  49.755  1.00  0.00     0.275 A 
HETATM    8  N   UNL     1      23.786  41.525  49.384  1.00  0.00    -0.054 NA
HETATM    9  C   UNL     1      27.145  41.592  50.844  1.00  0.00     0.037 A 
HETATM   10  C   UNL     1      28.351  40.686  50.851  1.00  0.00     0.070 C 
HETATM   11  H   UNL     1      26.169  40.281  49.577  1.00  0.00     0.184 HD
ENDROOT
BRANCH   1  12
HETATM   12  C   UNL     1      28.221  43.267  52.296  1.00  0.00     0.256 C 
HETATM   13  N   UNL     1      28.019  43.263  53.658  1.00  0.00    -0.323 N 
HETATM   14  H   UNL     1      27.135  42.908  53.993  1.00  0.00     0.169 HD
HETATM   15  O   UNL     1      29.226  43.607  51.682  1.00  0.00    -0.267 OA
BRANCH  13  16
HETATM   16  C   UNL     1      28.937  43.660  54.664  1.00  0.00     0.041 A 
HETATM   17  C   UNL     1      28.759  44.908  55.298  1.00  0.00    -0.035 A 
HETATM   18  C   UNL     1      29.645  45.300  56.321  1.00  0.00     0.015 A 
HETATM   19  C   UNL     1      27.648  45.854  54.924  1.00  0.00     0.050 C 
HETATM   20  C   UNL     1      30.712  44.484  56.711  1.00  0.00    -0.061 A 
HETATM   21  C   UNL     1      31.626  44.891  57.828  1.00  0.00     0.048 C 
HETATM   22  C   UNL     1      30.880  43.254  56.077  1.00  0.00     0.009 A 
HETATM   23  C   UNL     1      30.007  42.851  55.062  1.00  0.00     0.030 A 
ENDBRANCH  13  16
ENDBRANCH   1  12
BRANCH   2  24
HETATM   24  C   UNL     1      26.039  45.072  51.057  1.00  0.00    -0.028 A 
HETATM   25  C   UNL     1      26.625  45.406  49.827  1.00  0.00     0.012 A 
HETATM   26  C   UNL     1      26.813  46.746  49.472  1.00  0.00     0.037 A 
HETATM   27  C   UNL     1      26.402  47.777  50.318  1.00  0.00     0.068 A 
HETATM   28  C   UNL     1      25.802  47.458  51.534  1.00  0.00     0.037 A 
HETATM   29  C   UNL     1      25.622  46.118  51.899  1.00  0.00     0.012 A 
BRANCH  27  30
HETATM   30  O   UNL     1      26.639  49.038  49.845  1.00  0.00    -0.356 OA
HETATM   31  C   UNL     1      27.809  49.217  49.054  1.00  0.00     0.210 C 
ENDBRANCH  27  30
ENDBRANCH   2  24
TORSDOF 4
ENDMDL
MODEL 2
REMARK VINA RESULT:      -9.1      1.428      1.624
REMARK  4 active torsions:
REMARK  status: ('A' for Active; 'I' for Inactive)
REMARK    1  A    between atoms: C_6  and  N_7 
REMARK       I    between atoms: N_7  and  C_8 
REMARK    2  A    between atoms: C_8  and  C_9 
REMARK    3  A    between atoms: C_10  and  C_11 
REMARK    4  A    between atoms: C_14  and  O_15 
ROOT
HETATM    1  C   UNL     1      27.182  42.051  51.916  1.00  0.00     0.062 A 
HETATM    2  C   UNL     1      26.046  42.628  51.083  1.00  0.00     0.202 A 
HETATM    3  N   UNL     1      25.951  41.962  49.777  1.00  0.00    -0.084 N 
HETATM    4  C   UNL     1      26.792  40.965  49.361  1.00  0.00     0.725 A 
HETATM    5  N   UNL     1      27.788  40.560  50.171  1.00  0.00    -0.192 N 
HETATM    6  N   UNL     1      24.930  42.129  48.907  1.00  0.00    -0.149 NA
HETATM    7  C   UNL     1      25.294  41.283  47.936  1.00  0.00     0.275 A 
HETATM    8  N   UNL     1      26.419  40.540  48.181  1.00  0.00    -0.054 NA
HETATM    9  C   UNL     1      27.994  41.073  51.445  1.00  0.00     0.037 A 
HETATM   10  C   UNL     1      29.135  40.461  52.220  1.00  0.00     0.070 C 
HETATM   11  H   UNL     1      28.411  39.824  49.850  1.00  0.00     0.184 HD
ENDROOT
BRANCH   1  12
HETATM   12  C   UNL     1      27.439  42.661  53.246  1.00  0.00     0.256 C 
HETATM   13  N   UNL     1      28.650  43.316  53.312  1.00  0.00    -0.323 N 
HETATM   14  H   UNL     1      29.213  43.332  52.475  1.00  0.00     0.169 HD
HETATM   15  O   UNL     1      26.587  42.560  54.119  1.00  0.00    -0.267 OA
BRANCH  13  16
HETATM   16  C   UNL     1      29.184  44.023  54.420  1.00  0.00     0.041 A 
HETATM   17  C   UNL     1      28.601  45.254  54.790  1.00  0.00    -0.035 A 
HETATM   18  C   UNL     1      29.101  45.950  55.908  1.00  0.00     0.015 A 
HETATM   19  C   UNL     1      27.452  45.865  54.032  1.00  0.00     0.050 C 
HETATM   20  C   UNL     1      30.178  45.456  56.651  1.00  0.00    -0.061 A 
HETATM   21  C   UNL     1      30.677  46.184  57.863  1.00  0.00     0.048 C 
HETATM   22  C   UNL     1      30.748  44.241  56.276  1.00  0.00     0.009 A 
HETATM   23  C   UNL     1      30.260  43.537  55.171  1.00  0.00     0.030 A 
ENDBRANCH  13  16
ENDBRANCH   1  12
BRANCH   2  24
HETATM   24  C   UNL     1      26.082  44.142  50.897  1.00  0.00    -0.028 A 
HETATM   25  C   UNL     1      27.069  44.783  50.132  1.00  0.00     0.012 A 
HETATM   26  C   UNL     1      27.058  46.174  49.983  1.00  0.00     0.037 A 
HETATM   27  C   UNL     1      26.056  46.950  50.568  1.00  0.00     0.068 A 
HETATM   28  C   UNL     1      25.060  46.323  51.313  1.00  0.00     0.037 A 
HETATM   29  C   UNL     1      25.073  44.933  51.475  1.00  0.00     0.012 A 
BRANCH  27  30
HETATM   30  O   UNL     1      26.161  48.294  50.336  1.00  0.00    -0.356 OA
HETATM   31  C   UNL     1      27.018  48.695  49.273  1.00  0.00     0.210 C 
ENDBRANCH  27  30
ENDBRANCH   2  24
TORSDOF 4
ENDMDL
MODEL 3
REMARK VINA RESULT:      -8.8      2.331      5.239
REMARK  4 active torsions:
REMARK  status: ('A' for Active; 'I' for Inactive)
REMARK    1  A    between atoms: C_6  and  N_7 
REMARK       I    between atoms: N_7  and  C_8 
REMARK    2  A    between atoms: C_8  and  C_9 
REMARK    3  A    between atoms: C_10  and  C_11 
REMARK    4  A    between atoms: C_14  and  O_15 
ROOT
HETATM    1  C   UNL     1      25.638  43.312  50.000  1.00  0.00     0.062 A 
HETATM    2  C   UNL     1      25.847  42.400  48.799  1.00  0.00     0.202 A 
HETATM    3  N   UNL     1      24.566  42.037  48.177  1.00  0.00    -0.084 N 
HETATM    4  C   UNL     1      23.345  42.453  48.635  1.00  0.00     0.725 A 
HETATM    5  N   UNL     1      23.281  43.231  49.731  1.00  0.00    -0.192 N 
HETATM    6  N   UNL     1      24.448  41.400  46.991  1.00  0.00    -0.149 NA
HETATM    7  C   UNL     1      23.116  41.365  46.863  1.00  0.00     0.275 A 
HETATM    8  N   UNL     1      22.405  42.011  47.840  1.00  0.00    -0.054 NA
HETATM    9  C   UNL     1      24.402  43.680  50.418  1.00  0.00     0.037 A 
HETATM   10  C   UNL     1      24.130  44.580  51.598  1.00  0.00     0.070 C 
HETATM   11  H   UNL     1      22.369  43.528  50.068  1.00  0.00     0.184 HD
ENDROOT
BRANCH   1  12
HETATM   12  C   UNL     1      26.840  43.723  50.770  1.00  0.00     0.256 C 
HETATM   13  N   UNL     1      26.858  43.215  52.051  1.00  0.00    -0.323 N 
HETATM   14  H   UNL     1      26.090  42.620  52.323  1.00  0.00     0.169 HD
HETATM   15  O   UNL     1      27.685  44.420  50.222  1.00  0.00    -0.267 OA
BRANCH  13  16
HETATM   16  C   UNL     1      27.869  43.392  53.030  1.00  0.00     0.041 A 
HETATM   17  C   UNL     1      28.844  42.385  53.195  1.00  0.00    -0.035 A 
HETATM   18  C   UNL     1      29.872  42.563  54.143  1.00  0.00     0.015 A 
HETATM   19  C   UNL     1      28.834  41.110  52.393  1.00  0.00     0.050 C 
HETATM   20  C   UNL     1      29.937  43.711  54.938  1.00  0.00    -0.061 A 
HETATM   21  C   UNL     1      31.057  43.910  55.915  1.00  0.00     0.048 C 
HETATM   22  C   UNL     1      28.968  44.699  54.769  1.00  0.00     0.009 A 
HETATM   23  C   UNL     1      27.944  44.538  53.831  1.00  0.00     0.030 A 
ENDBRANCH  13  16
ENDBRANCH   1  12
BRANCH   2  24
HETATM   24  C   UNL     1      26.670  41.145  49.073  1.00  0.00    -0.028 A 
HETATM   25  C   UNL     1      26.187  40.085  49.855  1.00  0.00     0.012 A 
HETATM   26  C   UNL     1      26.975  38.950  50.074  1.00  0.00     0.037 A 
HETATM   27  C   UNL     1      28.243  38.836  49.502  1.00  0.00     0.068 A 
HETATM   28  C   UNL     1      28.724  39.873  48.708  1.00  0.00     0.037 A 
HETATM   29  C   UNL     1      27.945  41.016  48.495  1.00  0.00     0.012 A 
BRANCH  27  30
HETATM   30  O   UNL     1      28.900  37.671  49.790  1.00  0.00    -0.356 OA
HETATM   31  C   UNL     1      29.861  37.720  50.839  1.00  0.00     0.210 C 
ENDBRANCH  27  30
ENDBRANCH   2  24
TORSDOF 4
ENDMDL
MODEL 4
REMARK VINA RESULT:      -8.6      2.387      3.884
REMARK  4 active torsions:
REMARK  status: ('A' for Active; 'I' for Inactive)
REMARK    1  A    between atoms: C_6  and  N_7 
REMARK       I    between atoms: N_7  and  C_8 
REMARK    2  A    between atoms: C_8  and  C_9 
REMARK    3  A    between atoms: C_10  and  C_11 
REMARK    4  A    between atoms: C_14  and  O_15 
ROOT
HETATM    1  C   UNL     1      27.493  42.146  52.476  1.00  0.00     0.062 A 
HETATM    2  C   UNL     1      26.397  41.704  51.516  1.00  0.00     0.202 A 
HETATM    3  N   UNL     1      26.911  40.750  50.523  1.00  0.00    -0.084 N 
HETATM    4  C   UNL     1      28.214  40.333  50.462  1.00  0.00     0.725 A 
HETATM    5  N   UNL     1      29.105  40.822  51.344  1.00  0.00    -0.192 N 
HETATM    6  N   UNL     1      26.136  40.046  49.668  1.00  0.00    -0.149 NA
HETATM    7  C   UNL     1      27.064  39.312  49.044  1.00  0.00     0.275 A 
HETATM    8  N   UNL     1      28.346  39.446  49.510  1.00  0.00    -0.054 NA
HETATM    9  C   UNL     1      28.771  41.711  52.357  1.00  0.00     0.037 A 
HETATM   10  C   UNL     1      29.900  42.111  53.275  1.00  0.00     0.070 C 
HETATM   11  H   UNL     1      30.072  40.511  51.286  1.00  0.00     0.184 HD
ENDROOT
BRANCH   1  12
HETATM   12  C   UNL     1      27.139  43.155  53.507  1.00  0.00     0.256 C 
HETATM   13  N   UNL     1      27.379  44.449  53.099  1.00  0.00    -0.323 N 
HETATM   14  H   UNL     1      27.741  44.580  52.166  1.00  0.00     0.169 HD
HETATM   15  O   UNL     1      26.663  42.774  54.569  1.00  0.00    -0.267 OA
BRANCH  13  16
HETATM   16  C   UNL     1      27.128  45.640  53.827  1.00  0.00     0.041 A 
HETATM   17  C   UNL     1      28.002  45.995  54.877  1.00  0.00    -0.035 A 
HETATM   18  C   UNL     1      27.782  47.192  55.588  1.00  0.00     0.015 A 
HETATM   19  C   UNL     1      29.175  45.140  55.277  1.00  0.00     0.050 C 
HETATM   20  C   UNL     1      26.703  48.029  55.287  1.00  0.00    -0.061 A 
HETATM   21  C   UNL     1      26.501  49.320  56.022  1.00  0.00     0.048 C 
HETATM   22  C   UNL     1      25.845  47.668  54.250  1.00  0.00     0.009 A 
HETATM   23  C   UNL     1      26.052  46.485  53.534  1.00  0.00     0.030 A 
ENDBRANCH  13  16
ENDBRANCH   1  12
BRANCH   2  24
HETATM   24  C   UNL     1      25.651  42.836  50.817  1.00  0.00    -0.028 A 
HETATM   25  C   UNL     1      24.290  43.093  51.042  1.00  0.00     0.012 A 
HETATM   26  C   UNL     1      23.649  44.147  50.384  1.00  0.00     0.037 A 
HETATM   27  C   UNL     1      24.350  44.979  49.509  1.00  0.00     0.068 A 
HETATM   28  C   UNL     1      25.706  44.746  49.292  1.00  0.00     0.037 A 
HETATM   29  C   UNL     1      26.349  43.685  49.940  1.00  0.00     0.012 A 
BRANCH  27  30
HETATM   30  O   UNL     1      23.604  45.974  48.941  1.00  0.00    -0.356 OA
HETATM   31  C   UNL     1      23.753  47.280  49.486  1.00  0.00     0.210 C 
ENDBRANCH  27  30
ENDBRANCH   2  24
TORSDOF 4
ENDMDL
MODEL 5
REMARK VINA RESULT:      -8.1     16.170     18.116
REMARK  4 active torsions:
REMARK  status: ('A' for Active; 'I' for Inactive)
REMARK    1  A    between atoms: C_6  and  N_7 
REMARK       I    between atoms: N_7  and  C_8 
REMARK    2  A    between atoms: C_8  and  C_9 
REMARK    3  A    between atoms: C_10  and  C_11 
REMARK    4  A    between atoms: C_14  and  O_15 
ROOT
HETATM    1  C   UNL     1      37.740  43.631  64.248  1.00  0.00     0.062 A 
HETATM    2  C   UNL     1      39.029  43.039  63.695  1.00  0.00     0.202 A 
HETATM    3  N   UNL     1      39.091  41.589  63.926  1.00  0.00    -0.084 N 
HETATM    4  C   UNL     1      38.121  40.873  64.574  1.00  0.00     0.725 A 
HETATM    5  N   UNL     1      37.038  41.512  65.055  1.00  0.00    -0.192 N 
HETATM    6  N   UNL     1      40.019  40.769  63.383  1.00  0.00    -0.149 NA
HETATM    7  C   UNL     1      39.604  39.586  63.852  1.00  0.00     0.275 A 
HETATM    8  N   UNL     1      38.438  39.604  64.572  1.00  0.00    -0.054 NA
HETATM    9  C   UNL     1      36.821  42.874  64.896  1.00  0.00     0.037 A 
HETATM   10  C   UNL     1      35.526  43.401  65.465  1.00  0.00     0.070 C 
HETATM   11  H   UNL     1      36.327  40.972  65.540  1.00  0.00     0.184 HD
ENDROOT
BRANCH   1  12
HETATM   12  C   UNL     1      37.555  45.101  64.139  1.00  0.00     0.256 C 
HETATM   13  N   UNL     1      38.056  45.789  65.222  1.00  0.00    -0.323 N 
HETATM   14  H   UNL     1      38.500  45.246  65.949  1.00  0.00     0.169 HD
HETATM   15  O   UNL     1      37.025  45.558  63.134  1.00  0.00    -0.267 OA
BRANCH  13  16
HETATM   16  C   UNL     1      38.066  47.193  65.418  1.00  0.00     0.041 A 
HETATM   17  C   UNL     1      37.005  47.791  66.132  1.00  0.00    -0.035 A 
HETATM   18  C   UNL     1      37.018  49.181  66.361  1.00  0.00     0.015 A 
HETATM   19  C   UNL     1      35.841  46.997  66.666  1.00  0.00     0.050 C 
HETATM   20  C   UNL     1      38.054  49.987  65.880  1.00  0.00    -0.061 A 
HETATM   21  C   UNL     1      38.081  51.459  66.164  1.00  0.00     0.048 C 
HETATM   22  C   UNL     1      39.097  49.388  65.175  1.00  0.00     0.009 A 
HETATM   23  C   UNL     1      39.098  48.009  64.942  1.00  0.00     0.030 A 
ENDBRANCH  13  16
ENDBRANCH   1  12
BRANCH   2  24
HETATM   24  C   UNL     1      40.311  43.703  64.186  1.00  0.00    -0.028 A 
HETATM   25  C   UNL     1      41.066  44.569  63.381  1.00  0.00     0.012 A 
HETATM   26  C   UNL     1      42.233  45.161  63.876  1.00  0.00     0.037 A 
HETATM   27  C   UNL     1      42.657  44.924  65.185  1.00  0.00     0.068 A 
HETATM   28  C   UNL     1      41.906  44.081  65.999  1.00  0.00     0.037 A 
HETATM   29  C   UNL     1      40.744  43.477  65.505  1.00  0.00     0.012 A 
BRANCH  27  30
HETATM   30  O   UNL     1      43.808  45.572  65.542  1.00  0.00    -0.356 OA
HETATM   31  C   UNL     1      44.425  46.378  64.545  1.00  0.00     0.210 C 
ENDBRANCH  27  30
ENDBRANCH   2  24
TORSDOF 4
ENDMDL
MODEL 6
REMARK VINA RESULT:      -8.0      2.606      4.648
REMARK  4 active torsions:
REMARK  status: ('A' for Active; 'I' for Inactive)
REMARK    1  A    between atoms: C_6  and  N_7 
REMARK       I    between atoms: N_7  and  C_8 
REMARK    2  A    between atoms: C_8  and  C_9 
REMARK    3  A    between atoms: C_10  and  C_11 
REMARK    4  A    between atoms: C_14  and  O_15 
ROOT
HETATM    1  C   UNL     1      26.263  43.783  52.208  1.00  0.00     0.062 A 
HETATM    2  C   UNL     1      26.451  43.522  50.719  1.00  0.00     0.202 A 
HETATM    3  N   UNL     1      25.289  43.984  49.947  1.00  0.00    -0.084 N 
HETATM    4  C   UNL     1      24.175  44.555  50.503  1.00  0.00     0.725 A 
HETATM    5  N   UNL     1      24.106  44.702  51.839  1.00  0.00    -0.192 N 
HETATM    6  N   UNL     1      25.249  44.058  48.598  1.00  0.00    -0.149 NA
HETATM    7  C   UNL     1      24.029  44.575  48.416  1.00  0.00     0.275 A 
HETATM    8  N   UNL     1      23.345  44.907  49.556  1.00  0.00    -0.054 NA
HETATM    9  C   UNL     1      25.131  44.339  52.704  1.00  0.00     0.037 A 
HETATM   10  C   UNL     1      24.886  44.622  54.165  1.00  0.00     0.070 C 
HETATM   11  H   UNL     1      23.272  45.121  52.243  1.00  0.00     0.184 HD
ENDROOT
BRANCH   1  12
HETATM   12  C   UNL     1      27.334  43.320  53.128  1.00  0.00     0.256 C 
HETATM   13  N   UNL     1      28.022  44.358  53.718  1.00  0.00    -0.323 N 
HETATM   14  H   UNL     1      27.728  45.296  53.489  1.00  0.00     0.169 HD
HETATM   15  O   UNL     1      27.491  42.118  53.297  1.00  0.00    -0.267 OA
BRANCH  13  16
HETATM   16  C   UNL     1      29.077  44.263  54.660  1.00  0.00     0.041 A 
HETATM   17  C   UNL     1      29.270  45.316  55.580  1.00  0.00    -0.035 A 
HETATM   18  C   UNL     1      30.295  45.219  56.542  1.00  0.00     0.015 A 
HETATM   19  C   UNL     1      28.416  46.557  55.578  1.00  0.00     0.050 C 
HETATM   20  C   UNL     1      31.140  44.107  56.594  1.00  0.00    -0.061 A 
HETATM   21  C   UNL     1      32.202  43.994  57.647  1.00  0.00     0.048 C 
HETATM   22  C   UNL     1      30.943  43.073  55.680  1.00  0.00     0.009 A 
HETATM   23  C   UNL     1      29.928  43.153  54.722  1.00  0.00     0.030 A 
ENDBRANCH  13  16
ENDBRANCH   1  12
BRANCH   2  24
HETATM   24  C   UNL     1      26.785  42.080  50.350  1.00  0.00    -0.028 A 
HETATM   25  C   UNL     1      28.043  41.702  49.858  1.00  0.00     0.012 A 
HETATM   26  C   UNL     1      28.308  40.366  49.538  1.00  0.00     0.037 A 
HETATM   27  C   UNL     1      27.338  39.379  49.725  1.00  0.00     0.068 A 
HETATM   28  C   UNL     1      26.092  39.739  50.231  1.00  0.00     0.037 A 
HETATM   29  C   UNL     1      25.819  41.077  50.541  1.00  0.00     0.012 A 
BRANCH  27  30
HETATM   30  O   UNL     1      27.732  38.115  49.380  1.00  0.00    -0.356 OA
HETATM   31  C   UNL     1      26.816  37.062  49.651  1.00  0.00     0.210 C 
ENDBRANCH  27  30
ENDBRANCH   2  24
TORSDOF 4
ENDMDL
MODEL 7
REMARK VINA RESULT:      -7.7      6.199      9.398
REMARK  4 active torsions:
REMARK  status: ('A' for Active; 'I' for Inactive)
REMARK    1  A    between atoms: C_6  and  N_7 
REMARK       I    between atoms: N_7  and  C_8 
REMARK    2  A    between atoms: C_8  and  C_9 
REMARK    3  A    between atoms: C_10  and  C_11 
REMARK    4  A    between atoms: C_14  and  O_15 
ROOT
HETATM    1  C   UNL     1      21.003  49.716  48.512  1.00  0.00     0.062 A 
HETATM    2  C   UNL     1      19.943  49.319  47.492  1.00  0.00     0.202 A 
HETATM    3  N   UNL     1      18.665  49.990  47.764  1.00  0.00    -0.084 N 
HETATM    4  C   UNL     1      18.454  50.844  48.813  1.00  0.00     0.725 A 
HETATM    5  N   UNL     1      19.458  51.093  49.675  1.00  0.00    -0.192 N 
HETATM    6  N   UNL     1      17.604  49.981  46.926  1.00  0.00    -0.149 NA
HETATM    7  C   UNL     1      16.751  50.759  47.601  1.00  0.00     0.275 A 
HETATM    8  N   UNL     1      17.237  51.319  48.754  1.00  0.00    -0.054 NA
HETATM    9  C   UNL     1      20.732  50.556  49.540  1.00  0.00     0.037 A 
HETATM   10  C   UNL     1      21.736  50.986  50.580  1.00  0.00     0.070 C 
HETATM   11  H   UNL     1      19.289  51.723  50.454  1.00  0.00     0.184 HD
ENDROOT
BRANCH   1  12
HETATM   12  C   UNL     1      22.338  49.075  48.401  1.00  0.00     0.256 C 
HETATM   13  N   UNL     1      22.584  48.165  49.405  1.00  0.00    -0.323 N 
HETATM   14  H   UNL     1      21.851  48.014  50.082  1.00  0.00     0.169 HD
HETATM   15  O   UNL     1      23.062  49.375  47.459  1.00  0.00    -0.267 OA
BRANCH  13  16
HETATM   16  C   UNL     1      23.744  47.366  49.575  1.00  0.00     0.041 A 
HETATM   17  C   UNL     1      23.685  45.997  49.237  1.00  0.00    -0.035 A 
HETATM   18  C   UNL     1      24.839  45.199  49.371  1.00  0.00     0.015 A 
HETATM   19  C   UNL     1      22.426  45.341  48.733  1.00  0.00     0.050 C 
HETATM   20  C   UNL     1      26.040  45.732  49.849  1.00  0.00    -0.061 A 
HETATM   21  C   UNL     1      27.274  44.885  49.949  1.00  0.00     0.048 C 
HETATM   22  C   UNL     1      26.087  47.085  50.182  1.00  0.00     0.009 A 
HETATM   23  C   UNL     1      24.951  47.889  50.051  1.00  0.00     0.030 A 
ENDBRANCH  13  16
ENDBRANCH   1  12
BRANCH   2  24
HETATM   24  C   UNL     1      19.724  47.818  47.335  1.00  0.00    -0.028 A 
HETATM   25  C   UNL     1      19.092  47.043  48.320  1.00  0.00     0.012 A 
HETATM   26  C   UNL     1      18.905  45.670  48.130  1.00  0.00     0.037 A 
HETATM   27  C   UNL     1      19.320  45.046  46.952  1.00  0.00     0.068 A 
HETATM   28  C   UNL     1      19.931  45.808  45.960  1.00  0.00     0.037 A 
HETATM   29  C   UNL     1      20.130  47.181  46.150  1.00  0.00     0.012 A 
BRANCH  27  30
HETATM   30  O   UNL     1      19.069  43.702  46.894  1.00  0.00    -0.356 OA
HETATM   31  C   UNL     1      19.763  42.962  45.897  1.00  0.00     0.210 C 
ENDBRANCH  27  30
ENDBRANCH   2  24
TORSDOF 4
ENDMDL
MODEL 8
REMARK VINA RESULT:      -7.6      5.502      9.649
REMARK  4 active torsions:
REMARK  status: ('A' for Active; 'I' for Inactive)
REMARK    1  A    between atoms: C_6  and  N_7 
REMARK       I    between atoms: N_7  and  C_8 
REMARK    2  A    between atoms: C_8  and  C_9 
REMARK    3  A    between atoms: C_10  and  C_11 
REMARK    4  A    between atoms: C_14  and  O_15 
ROOT
HETATM    1  C   UNL     1      23.484  47.878  49.105  1.00  0.00     0.062 A 
HETATM    2  C   UNL     1      23.172  46.454  49.545  1.00  0.00     0.202 A 
HETATM    3  N   UNL     1      24.387  45.752  49.979  1.00  0.00    -0.084 N 
HETATM    4  C   UNL     1      25.639  46.306  49.968  1.00  0.00     0.725 A 
HETATM    5  N   UNL     1      25.800  47.566  49.522  1.00  0.00    -0.192 N 
HETATM    6  N   UNL     1      24.395  44.550  50.597  1.00  0.00    -0.149 NA
HETATM    7  C   UNL     1      25.706  44.397  50.819  1.00  0.00     0.275 A 
HETATM    8  N   UNL     1      26.500  45.455  50.463  1.00  0.00    -0.054 NA
HETATM    9  C   UNL     1      24.747  48.369  49.100  1.00  0.00     0.037 A 
HETATM   10  C   UNL     1      25.120  49.768  48.677  1.00  0.00     0.070 C 
HETATM   11  H   UNL     1      26.734  47.966  49.511  1.00  0.00     0.184 HD
ENDROOT
BRANCH   1  12
HETATM   12  C   UNL     1      22.361  48.700  48.585  1.00  0.00     0.256 C 
HETATM   13  N   UNL     1      21.595  49.259  49.585  1.00  0.00    -0.323 N 
HETATM   14  H   UNL     1      21.875  49.076  50.538  1.00  0.00     0.169 HD
HETATM   15  O   UNL     1      22.231  48.828  47.374  1.00  0.00    -0.267 OA
BRANCH  13  16
HETATM   16  C   UNL     1      20.473  50.112  49.432  1.00  0.00     0.041 A 
HETATM   17  C   UNL     1      19.206  49.657  49.855  1.00  0.00    -0.035 A 
HETATM   18  C   UNL     1      18.088  50.507  49.738  1.00  0.00     0.015 A 
HETATM   19  C   UNL     1      18.991  48.283  50.433  1.00  0.00     0.050 C 
HETATM   20  C   UNL     1      18.205  51.790  49.194  1.00  0.00    -0.061 A 
HETATM   21  C   UNL     1      17.018  52.703  49.111  1.00  0.00     0.048 C 
HETATM   22  C   UNL     1      19.460  52.230  48.778  1.00  0.00     0.009 A 
HETATM   23  C   UNL     1      20.578  51.398  48.891  1.00  0.00     0.030 A 
ENDBRANCH  13  16
ENDBRANCH   1  12
BRANCH   2  24
HETATM   24  C   UNL     1      22.417  45.610  48.523  1.00  0.00    -0.028 A 
HETATM   25  C   UNL     1      21.025  45.435  48.572  1.00  0.00     0.012 A 
HETATM   26  C   UNL     1      20.374  44.658  47.609  1.00  0.00     0.037 A 
HETATM   27  C   UNL     1      21.087  44.060  46.568  1.00  0.00     0.068 A 
HETATM   28  C   UNL     1      22.465  44.242  46.498  1.00  0.00     0.037 A 
HETATM   29  C   UNL     1      23.123  45.010  47.466  1.00  0.00     0.012 A 
BRANCH  27  30
HETATM   30  O   UNL     1      20.326  43.335  45.693  1.00  0.00    -0.356 OA
HETATM   31  C   UNL     1      20.484  41.922  45.724  1.00  0.00     0.210 C 
ENDBRANCH  27  30
ENDBRANCH   2  24
TORSDOF 4
ENDMDL
MODEL 9
REMARK VINA RESULT:      -7.6      2.519      6.758
REMARK  4 active torsions:
REMARK  status: ('A' for Active; 'I' for Inactive)
REMARK    1  A    between atoms: C_6  and  N_7 
REMARK       I    between atoms: N_7  and  C_8 
REMARK    2  A    between atoms: C_8  and  C_9 
REMARK    3  A    between atoms: C_10  and  C_11 
REMARK    4  A    between atoms: C_14  and  O_15 
ROOT
HETATM    1  C   UNL     1      25.432  42.249  49.264  1.00  0.00     0.062 A 
HETATM    2  C   UNL     1      26.937  42.082  49.423  1.00  0.00     0.202 A 
HETATM    3  N   UNL     1      27.385  40.777  48.916  1.00  0.00    -0.084 N 
HETATM    4  C   UNL     1      26.548  39.830  48.389  1.00  0.00     0.725 A 
HETATM    5  N   UNL     1      25.226  40.076  48.332  1.00  0.00    -0.192 N 
HETATM    6  N   UNL     1      28.680  40.425  48.752  1.00  0.00    -0.149 NA
HETATM    7  C   UNL     1      28.537  39.201  48.230  1.00  0.00     0.275 A 
HETATM    8  N   UNL     1      27.249  38.806  47.978  1.00  0.00    -0.054 NA
HETATM    9  C   UNL     1      24.650  41.270  48.748  1.00  0.00     0.037 A 
HETATM   10  C   UNL     1      23.156  41.375  48.564  1.00  0.00     0.070 C 
HETATM   11  H   UNL     1      24.612  39.364  47.945  1.00  0.00     0.184 HD
ENDROOT
BRANCH   1  12
HETATM   12  C   UNL     1      24.820  43.500  49.782  1.00  0.00     0.256 C 
HETATM   13  N   UNL     1      24.759  44.500  48.837  1.00  0.00    -0.323 N 
HETATM   14  H   UNL     1      25.106  44.286  47.914  1.00  0.00     0.169 HD
HETATM   15  O   UNL     1      24.418  43.527  50.938  1.00  0.00    -0.267 OA
BRANCH  13  16
HETATM   16  C   UNL     1      24.213  45.799  48.996  1.00  0.00     0.041 A 
HETATM   17  C   UNL     1      25.030  46.824  49.520  1.00  0.00    -0.035 A 
HETATM   18  C   UNL     1      24.509  48.127  49.654  1.00  0.00     0.015 A 
HETATM   19  C   UNL     1      26.453  46.584  49.950  1.00  0.00     0.050 C 
HETATM   20  C   UNL     1      23.191  48.423  49.294  1.00  0.00    -0.061 A 
HETATM   21  C   UNL     1      22.658  49.821  49.401  1.00  0.00     0.048 C 
HETATM   22  C   UNL     1      22.392  47.404  48.779  1.00  0.00     0.009 A 
HETATM   23  C   UNL     1      22.895  46.107  48.638  1.00  0.00     0.030 A 
ENDBRANCH  13  16
ENDBRANCH   1  12
BRANCH   2  24
HETATM   24  C   UNL     1      27.469  42.305  50.835  1.00  0.00    -0.028 A 
HETATM   25  C   UNL     1      28.019  43.528  51.248  1.00  0.00     0.012 A 
HETATM   26  C   UNL     1      28.489  43.690  52.555  1.00  0.00     0.037 A 
HETATM   27  C   UNL     1      28.398  42.650  53.483  1.00  0.00     0.068 A 
HETATM   28  C   UNL     1      27.837  41.438  53.091  1.00  0.00     0.037 A 
HETATM   29  C   UNL     1      27.376  41.268  51.780  1.00  0.00     0.012 A 
BRANCH  27  30
HETATM   30  O   UNL     1      28.887  42.946  54.726  1.00  0.00    -0.356 OA
HETATM   31  C   UNL     1      30.280  43.219  54.819  1.00  0.00     0.210 C 
ENDBRANCH  27  30
ENDBRANCH   2  24
TORSDOF 4
ENDMDL
MODEL 10
REMARK VINA RESULT:      -7.6      6.126      9.162
REMARK  4 active torsions:
REMARK  status: ('A' for Active; 'I' for Inactive)
REMARK    1  A    between atoms: C_6  and  N_7 
REMARK       I    between atoms: N_7  and  C_8 
REMARK    2  A    between atoms: C_8  and  C_9 
REMARK    3  A    between atoms: C_10  and  C_11 
REMARK    4  A    between atoms: C_14  and  O_15 
ROOT
HETATM    1  C   UNL     1      20.484  47.680  47.566  1.00  0.00     0.062 A 
HETATM    2  C   UNL     1      21.043  48.441  48.760  1.00  0.00     0.202 A 
HETATM    3  N   UNL     1      20.215  49.612  49.081  1.00  0.00    -0.084 N 
HETATM    4  C   UNL     1      19.097  49.977  48.380  1.00  0.00     0.725 A 
HETATM    5  N   UNL     1      18.717  49.245  47.316  1.00  0.00    -0.192 N 
HETATM    6  N   UNL     1      20.354  50.363  50.196  1.00  0.00    -0.149 NA
HETATM    7  C   UNL     1      19.352  51.235  50.031  1.00  0.00     0.275 A 
HETATM    8  N   UNL     1      18.550  51.024  48.940  1.00  0.00    -0.054 NA
HETATM    9  C   UNL     1      19.380  48.097  46.900  1.00  0.00     0.037 A 
HETATM   10  C   UNL     1      18.777  47.387  45.713  1.00  0.00     0.070 C 
HETATM   11  H   UNL     1      17.889  49.528  46.797  1.00  0.00     0.184 HD
ENDROOT
BRANCH   1  12
HETATM   12  C   UNL     1      21.245  46.498  47.086  1.00  0.00     0.256 C 
HETATM   13  N   UNL     1      20.999  45.362  47.827  1.00  0.00    -0.323 N 
HETATM   14  H   UNL     1      20.336  45.439  48.583  1.00  0.00     0.169 HD
HETATM   15  O   UNL     1      21.969  46.618  46.106  1.00  0.00    -0.267 OA
BRANCH  13  16
HETATM   16  C   UNL     1      21.539  44.068  47.618  1.00  0.00     0.041 A 
HETATM   17  C   UNL     1      22.532  43.591  48.501  1.00  0.00    -0.035 A 
HETATM   18  C   UNL     1      23.054  42.295  48.324  1.00  0.00     0.015 A 
HETATM   19  C   UNL     1      23.067  44.420  49.639  1.00  0.00     0.050 C 
HETATM   20  C   UNL     1      22.622  41.473  47.278  1.00  0.00    -0.061 A 
HETATM   21  C   UNL     1      23.153  40.079  47.122  1.00  0.00     0.048 C 
HETATM   22  C   UNL     1      21.642  41.953  46.411  1.00  0.00     0.009 A 
HETATM   23  C   UNL     1      21.112  43.237  46.576  1.00  0.00     0.030 A 
ENDBRANCH  13  16
ENDBRANCH   1  12
BRANCH   2  24
HETATM   24  C   UNL     1      22.507  48.854  48.639  1.00  0.00    -0.028 A 
HETATM   25  C   UNL     1      22.922  49.929  47.839  1.00  0.00     0.012 A 
HETATM   26  C   UNL     1      24.275  50.276  47.763  1.00  0.00     0.037 A 
HETATM   27  C   UNL     1      25.236  49.579  48.498  1.00  0.00     0.068 A 
HETATM   28  C   UNL     1      24.834  48.522  49.310  1.00  0.00     0.037 A 
HETATM   29  C   UNL     1      23.482  48.164  49.380  1.00  0.00     0.012 A 
BRANCH  27  30
HETATM   30  O   UNL     1      26.518  50.028  48.337  1.00  0.00    -0.356 OA
HETATM   31  C   UNL     1      27.541  49.297  49.003  1.00  0.00     0.210 C 
ENDBRANCH  27  30
ENDBRANCH   2  24
TORSDOF 4
ENDMDL
