MODEL 1
REMARK VINA RESULT:     -10.7      0.000      0.000
REMARK  6 active torsions:
REMARK  status: ('A' for Active; 'I' for Inactive)
REMARK    1  A    between atoms: C_4  and  C_5 
REMARK    2  A    between atoms: N_8  and  C_9 
REMARK    3  A    between atoms: C_12  and  N_13 
REMARK       I    between atoms: N_13  and  C_14 
REMARK       I    between atoms: C_14  and  N_15 
REMARK    4  A    between atoms: N_15  and  C_16 
REMARK    5  A    between atoms: C_19  and  O_20 
REMARK    6  A    between atoms: O_20  and  C_21 
ROOT
HETATM    1  C   UNL     1      26.553  45.308  52.258  1.00  0.00     0.161 C 
HETATM    2  C   UNL     1      25.818  46.546  51.766  1.00  0.00     0.179 C 
HETATM    3  C   UNL     1      24.521  46.035  51.157  1.00  0.00     0.177 C 
HETATM    4  C   UNL     1      24.529  46.552  49.722  1.00  0.00     0.141 C 
HETATM    5  C   UNL     1      25.661  47.581  49.717  1.00  0.00     0.196 C 
HETATM    6  O   UNL     1      26.586  47.188  50.734  1.00  0.00    -0.379 OA
HETATM    7  O   UNL     1      24.575  44.595  51.215  1.00  0.00    -0.379 OA
HETATM    8  C   UNL     1      25.438  44.281  52.326  1.00  0.00     0.198 C 
ENDROOT
BRANCH   4   9
HETATM    9  N   UNL     1      23.270  47.093  49.217  1.00  0.00    -0.334 N 
HETATM   10  C   UNL     1      22.252  46.283  48.806  1.00  0.00     0.321 C 
HETATM   11  N   UNL     1      21.017  46.842  48.691  1.00  0.00    -0.309 N 
HETATM   12  O   UNL     1      22.385  45.072  48.655  1.00  0.00    -0.247 OA
HETATM   13  H   UNL     1      20.296  46.130  48.670  1.00  0.00     0.170 HD
HETATM   14  H   UNL     1      22.966  47.947  49.661  1.00  0.00     0.164 HD
BRANCH  11  15
HETATM   15  C   UNL     1      20.585  48.178  48.698  1.00  0.00     0.036 A 
HETATM   16  C   UNL     1      20.926  49.108  47.715  1.00  0.00     0.032 A 
HETATM   17  C   UNL     1      20.460  50.425  47.801  1.00  0.00     0.039 A 
HETATM   18  C   UNL     1      19.657  50.823  48.871  1.00  0.00     0.076 A 
HETATM   19  C   UNL     1      19.281  49.884  49.833  1.00  0.00     0.039 A 
HETATM   20  C   UNL     1      19.731  48.564  49.735  1.00  0.00     0.032 A 
BRANCH  18  21
HETATM   21  O   UNL     1      19.234  52.135  48.850  1.00  0.00    -0.311 OA
BRANCH  21  22
HETATM   22  C   UNL     1      17.880  52.357  48.810  1.00  0.00     0.076 A 
HETATM   23  C   UNL     1      17.147  51.970  47.689  1.00  0.00     0.037 A 
HETATM   24  C   UNL     1      15.765  52.161  47.671  1.00  0.00     0.003 A 
HETATM   25  C   UNL     1      15.125  52.732  48.774  1.00  0.00     0.000 A 
HETATM   26  C   UNL     1      15.862  53.098  49.901  1.00  0.00     0.003 A 
HETATM   27  C   UNL     1      17.242  52.897  49.927  1.00  0.00     0.037 A 
ENDBRANCH  21  22
ENDBRANCH  18  21
ENDBRANCH  11  15
ENDBRANCH   4   9
BRANCH   1  28
HETATM   28  N   UNL     1      27.285  45.543  53.477  1.00  0.00    -0.273 N 
HETATM   29  N   UNL     1      27.051  46.617  54.248  1.00  0.00     0.005 NA
HETATM   30  N   UNL     1      27.881  46.551  55.283  1.00  0.00    -0.158 NA
HETATM   31  C   UNL     1      28.631  45.406  55.166  1.00  0.00     0.101 A 
HETATM   32  C   UNL     1      28.235  44.734  54.032  1.00  0.00     0.142 A 
BRANCH  31  33
HETATM   33  C   UNL     1      29.662  45.000  56.104  1.00  0.00    -0.005 A 
HETATM   34  C   UNL     1      29.806  45.684  57.319  1.00  0.00     0.014 A 
HETATM   35  C   UNL     1      30.797  45.315  58.233  1.00  0.00     0.001 A 
HETATM   36  C   UNL     1      31.659  44.261  57.940  1.00  0.00     0.000 A 
HETATM   37  C   UNL     1      31.532  43.575  56.735  1.00  0.00     0.001 A 
HETATM   38  C   UNL     1      30.538  43.940  55.822  1.00  0.00     0.014 A 
ENDBRANCH  31  33
ENDBRANCH   1  28
TORSDOF 6
ENDMDL
MODEL 2
REMARK VINA RESULT:     -10.6      1.622      1.973
REMARK  6 active torsions:
REMARK  status: ('A' for Active; 'I' for Inactive)
REMARK    1  A    between atoms: C_4  and  C_5 
REMARK    2  A    between atoms: N_8  and  C_9 
REMARK    3  A    between atoms: C_12  and  N_13 
REMARK       I    between atoms: N_13  and  C_14 
REMARK       I    between atoms: C_14  and  N_15 
REMARK    4  A    between atoms: N_15  and  C_16 
REMARK    5  A    between atoms: C_19  and  O_20 
REMARK    6  A    between atoms: O_20  and  C_21 
ROOT
HETATM    1  C   UNL     1      26.589  44.262  52.202  1.00  0.00     0.161 C 
HETATM    2  C   UNL     1      26.499  45.675  51.648  1.00  0.00     0.179 C 
HETATM    3  C   UNL     1      25.019  46.033  51.680  1.00  0.00     0.177 C 
HETATM    4  C   UNL     1      24.671  46.394  50.240  1.00  0.00     0.141 C 
HETATM    5  C   UNL     1      26.035  46.529  49.563  1.00  0.00     0.196 C 
HETATM    6  O   UNL     1      26.943  45.690  50.281  1.00  0.00    -0.379 OA
HETATM    7  O   UNL     1      24.319  44.855  52.130  1.00  0.00    -0.379 OA
HETATM    8  C   UNL     1      25.265  44.119  52.931  1.00  0.00     0.198 C 
ENDROOT
BRANCH   4   9
HETATM    9  N   UNL     1      23.825  47.569  50.050  1.00  0.00    -0.334 N 
HETATM   10  C   UNL     1      24.227  48.631  49.294  1.00  0.00     0.321 C 
HETATM   11  N   UNL     1      23.268  49.505  48.883  1.00  0.00    -0.309 N 
HETATM   12  O   UNL     1      25.377  48.758  48.883  1.00  0.00    -0.247 OA
HETATM   13  H   UNL     1      23.600  50.072  48.112  1.00  0.00     0.170 HD
HETATM   14  H   UNL     1      22.835  47.377  50.000  1.00  0.00     0.164 HD
BRANCH  11  15
HETATM   15  C   UNL     1      21.928  49.675  49.263  1.00  0.00     0.036 A 
HETATM   16  C   UNL     1      20.953  48.685  49.134  1.00  0.00     0.032 A 
HETATM   17  C   UNL     1      19.635  48.939  49.530  1.00  0.00     0.039 A 
HETATM   18  C   UNL     1      19.281  50.186  50.049  1.00  0.00     0.076 A 
HETATM   19  C   UNL     1      20.262  51.164  50.216  1.00  0.00     0.039 A 
HETATM   20  C   UNL     1      21.582  50.901  49.839  1.00  0.00     0.032 A 
BRANCH  18  21
HETATM   21  O   UNL     1      17.962  50.326  50.427  1.00  0.00    -0.311 OA
BRANCH  21  22
HETATM   22  C   UNL     1      17.138  51.027  49.582  1.00  0.00     0.076 A 
HETATM   23  C   UNL     1      16.642  50.415  48.432  1.00  0.00     0.037 A 
HETATM   24  C   UNL     1      15.773  51.120  47.598  1.00  0.00     0.003 A 
HETATM   25  C   UNL     1      15.401  52.427  47.922  1.00  0.00     0.000 A 
HETATM   26  C   UNL     1      15.886  53.026  49.086  1.00  0.00     0.003 A 
HETATM   27  C   UNL     1      16.745  52.321  49.927  1.00  0.00     0.037 A 
ENDBRANCH  21  22
ENDBRANCH  18  21
ENDBRANCH  11  15
ENDBRANCH   4   9
BRANCH   1  28
HETATM   28  N   UNL     1      27.779  44.045  52.985  1.00  0.00    -0.273 N 
HETATM   29  N   UNL     1      28.793  43.286  52.537  1.00  0.00     0.005 NA
HETATM   30  N   UNL     1      29.728  43.277  53.480  1.00  0.00    -0.158 NA
HETATM   31  C   UNL     1      29.299  44.059  54.525  1.00  0.00     0.101 A 
HETATM   32  C   UNL     1      28.068  44.585  54.206  1.00  0.00     0.142 A 
BRANCH  31  33
HETATM   33  C   UNL     1      30.049  44.277  55.749  1.00  0.00    -0.005 A 
HETATM   34  C   UNL     1      29.770  45.395  56.547  1.00  0.00     0.014 A 
HETATM   35  C   UNL     1      30.487  45.629  57.724  1.00  0.00     0.001 A 
HETATM   36  C   UNL     1      31.494  44.750  58.114  1.00  0.00     0.000 A 
HETATM   37  C   UNL     1      31.786  43.637  57.330  1.00  0.00     0.001 A 
HETATM   38  C   UNL     1      31.068  43.400  56.155  1.00  0.00     0.014 A 
ENDBRANCH  31  33
ENDBRANCH   1  28
TORSDOF 6
ENDMDL
MODEL 3
REMARK VINA RESULT:     -10.6      1.709      2.371
REMARK  6 active torsions:
REMARK  status: ('A' for Active; 'I' for Inactive)
REMARK    1  A    between atoms: C_4  and  C_5 
REMARK    2  A    between atoms: N_8  and  C_9 
REMARK    3  A    between atoms: C_12  and  N_13 
REMARK       I    between atoms: N_13  and  C_14 
REMARK       I    between atoms: C_14  and  N_15 
REMARK    4  A    between atoms: N_15  and  C_16 
REMARK    5  A    between atoms: C_19  and  O_20 
REMARK    6  A    between atoms: O_20  and  C_21 
ROOT
HETATM    1  C   UNL     1      25.692  45.306  50.903  1.00  0.00     0.161 C 
HETATM    2  C   UNL     1      25.285  46.771  50.962  1.00  0.00     0.179 C 
HETATM    3  C   UNL     1      24.007  46.872  50.143  1.00  0.00     0.177 C 
HETATM    4  C   UNL     1      24.308  47.914  49.071  1.00  0.00     0.141 C 
HETATM    5  C   UNL     1      25.609  48.559  49.552  1.00  0.00     0.196 C 
HETATM    6  O   UNL     1      26.295  47.580  50.336  1.00  0.00    -0.379 OA
HETATM    7  O   UNL     1      23.770  45.566  49.580  1.00  0.00    -0.379 OA
HETATM    8  C   UNL     1      24.399  44.632  50.480  1.00  0.00     0.198 C 
ENDROOT
BRANCH   4   9
HETATM    9  N   UNL     1      23.258  48.892  48.799  1.00  0.00    -0.334 N 
HETATM   10  C   UNL     1      23.398  49.849  47.837  1.00  0.00     0.321 C 
HETATM   11  N   UNL     1      22.268  50.477  47.411  1.00  0.00    -0.309 N 
HETATM   12  O   UNL     1      24.464  50.075  47.272  1.00  0.00    -0.247 OA
HETATM   13  H   UNL     1      22.422  50.940  46.523  1.00  0.00     0.170 HD
HETATM   14  H   UNL     1      22.316  48.545  48.903  1.00  0.00     0.164 HD
BRANCH  11  15
HETATM   15  C   UNL     1      20.960  50.505  47.921  1.00  0.00     0.036 A 
HETATM   16  C   UNL     1      20.003  49.525  47.657  1.00  0.00     0.032 A 
HETATM   17  C   UNL     1      18.717  49.634  48.199  1.00  0.00     0.039 A 
HETATM   18  C   UNL     1      18.377  50.724  49.002  1.00  0.00     0.076 A 
HETATM   19  C   UNL     1      19.344  51.684  49.301  1.00  0.00     0.039 A 
HETATM   20  C   UNL     1      20.634  51.564  48.775  1.00  0.00     0.032 A 
BRANCH  18  21
HETATM   21  O   UNL     1      17.092  50.724  49.502  1.00  0.00    -0.311 OA
BRANCH  21  22
HETATM   22  C   UNL     1      16.251  51.719  49.070  1.00  0.00     0.076 A 
HETATM   23  C   UNL     1      15.799  52.684  49.968  1.00  0.00     0.037 A 
HETATM   24  C   UNL     1      14.977  53.716  49.514  1.00  0.00     0.003 A 
HETATM   25  C   UNL     1      14.620  53.781  48.165  1.00  0.00     0.000 A 
HETATM   26  C   UNL     1      15.093  52.822  47.267  1.00  0.00     0.003 A 
HETATM   27  C   UNL     1      15.924  51.797  47.715  1.00  0.00     0.037 A 
ENDBRANCH  21  22
ENDBRANCH  18  21
ENDBRANCH  11  15
ENDBRANCH   4   9
BRANCH   1  28
HETATM   28  N   UNL     1      26.285  44.843  52.132  1.00  0.00    -0.273 N 
HETATM   29  N   UNL     1      25.586  44.134  53.033  1.00  0.00     0.005 NA
HETATM   30  N   UNL     1      26.401  43.865  54.046  1.00  0.00    -0.158 NA
HETATM   31  C   UNL     1      27.635  44.398  53.763  1.00  0.00     0.101 A 
HETATM   32  C   UNL     1      27.584  44.996  52.525  1.00  0.00     0.142 A 
BRANCH  31  33
HETATM   33  C   UNL     1      28.785  44.320  54.646  1.00  0.00    -0.005 A 
HETATM   34  C   UNL     1      29.093  45.400  55.486  1.00  0.00     0.014 A 
HETATM   35  C   UNL     1      30.201  45.349  56.337  1.00  0.00     0.001 A 
HETATM   36  C   UNL     1      31.016  44.220  56.355  1.00  0.00     0.000 A 
HETATM   37  C   UNL     1      30.726  43.141  55.524  1.00  0.00     0.001 A 
HETATM   38  C   UNL     1      29.616  43.189  54.675  1.00  0.00     0.014 A 
ENDBRANCH  31  33
ENDBRANCH   1  28
TORSDOF 6
ENDMDL
MODEL 4
REMARK VINA RESULT:      -9.9      1.862      2.465
REMARK  6 active torsions:
REMARK  status: ('A' for Active; 'I' for Inactive)
REMARK    1  A    between atoms: C_4  and  C_5 
REMARK    2  A    between atoms: N_8  and  C_9 
REMARK    3  A    between atoms: C_12  and  N_13 
REMARK       I    between atoms: N_13  and  C_14 
REMARK       I    between atoms: C_14  and  N_15 
REMARK    4  A    between atoms: N_15  and  C_16 
REMARK    5  A    between atoms: C_19  and  O_20 
REMARK    6  A    between atoms: O_20  and  C_21 
ROOT
HETATM    1  C   UNL     1      27.175  44.302  51.933  1.00  0.00     0.161 C 
HETATM    2  C   UNL     1      26.095  45.220  51.381  1.00  0.00     0.179 C 
HETATM    3  C   UNL     1      25.155  44.316  50.595  1.00  0.00     0.177 C 
HETATM    4  C   UNL     1      25.132  44.903  49.187  1.00  0.00     0.141 C 
HETATM    5  C   UNL     1      25.796  46.270  49.356  1.00  0.00     0.196 C 
HETATM    6  O   UNL     1      26.681  46.169  50.475  1.00  0.00    -0.379 OA
HETATM    7  O   UNL     1      25.731  42.994  50.624  1.00  0.00    -0.379 OA
HETATM    8  C   UNL     1      26.519  42.937  51.829  1.00  0.00     0.198 C 
ENDROOT
BRANCH   4   9
HETATM    9  N   UNL     1      23.828  44.983  48.537  1.00  0.00    -0.334 N 
HETATM   10  C   UNL     1      23.141  43.867  48.161  1.00  0.00     0.321 C 
HETATM   11  N   UNL     1      21.813  44.009  47.895  1.00  0.00    -0.309 N 
HETATM   12  O   UNL     1      23.639  42.744  48.168  1.00  0.00    -0.247 OA
HETATM   13  H   UNL     1      21.341  43.112  47.913  1.00  0.00     0.170 HD
HETATM   14  H   UNL     1      23.241  45.743  48.850  1.00  0.00     0.164 HD
BRANCH  11  15
HETATM   15  C   UNL     1      21.009  45.144  47.708  1.00  0.00     0.036 A 
HETATM   16  C   UNL     1      20.930  45.850  46.508  1.00  0.00     0.032 A 
HETATM   17  C   UNL     1      20.108  46.979  46.408  1.00  0.00     0.039 A 
HETATM   18  C   UNL     1      19.366  47.413  47.508  1.00  0.00     0.076 A 
HETATM   19  C   UNL     1      19.412  46.685  48.697  1.00  0.00     0.039 A 
HETATM   20  C   UNL     1      20.218  45.546  48.789  1.00  0.00     0.032 A 
BRANCH  18  21
HETATM   21  O   UNL     1      18.573  48.522  47.298  1.00  0.00    -0.311 OA
BRANCH  21  22
HETATM   22  C   UNL     1      18.827  49.628  48.070  1.00  0.00     0.076 A 
HETATM   23  C   UNL     1      19.923  50.440  47.781  1.00  0.00     0.037 A 
HETATM   24  C   UNL     1      20.151  51.585  48.543  1.00  0.00     0.003 A 
HETATM   25  C   UNL     1      19.280  51.916  49.584  1.00  0.00     0.000 A 
HETATM   26  C   UNL     1      18.173  51.109  49.856  1.00  0.00     0.003 A 
HETATM   27  C   UNL     1      17.935  49.970  49.088  1.00  0.00     0.037 A 
ENDBRANCH  21  22
ENDBRANCH  18  21
ENDBRANCH  11  15
ENDBRANCH   4   9
BRANCH   1  28
HETATM   28  N   UNL     1      27.627  44.699  53.243  1.00  0.00    -0.273 N 
HETATM   29  N   UNL     1      26.949  45.587  53.987  1.00  0.00     0.005 NA
HETATM   30  N   UNL     1      27.616  45.745  55.124  1.00  0.00    -0.158 NA
HETATM   31  C   UNL     1      28.719  44.926  55.097  1.00  0.00     0.101 A 
HETATM   32  C   UNL     1      28.718  44.225  53.913  1.00  0.00     0.142 A 
BRANCH  31  33
HETATM   33  C   UNL     1      29.701  44.836  56.162  1.00  0.00    -0.005 A 
HETATM   34  C   UNL     1      29.685  45.770  57.206  1.00  0.00     0.014 A 
HETATM   35  C   UNL     1      30.627  45.707  58.237  1.00  0.00     0.001 A 
HETATM   36  C   UNL     1      31.600  44.711  58.233  1.00  0.00     0.000 A 
HETATM   37  C   UNL     1      31.633  43.777  57.200  1.00  0.00     0.001 A 
HETATM   38  C   UNL     1      30.689  43.837  56.171  1.00  0.00     0.014 A 
ENDBRANCH  31  33
ENDBRANCH   1  28
TORSDOF 6
ENDMDL
MODEL 5
REMARK VINA RESULT:      -9.9      2.747      3.896
REMARK  6 active torsions:
REMARK  status: ('A' for Active; 'I' for Inactive)
REMARK    1  A    between atoms: C_4  and  C_5 
REMARK    2  A    between atoms: N_8  and  C_9 
REMARK    3  A    between atoms: C_12  and  N_13 
REMARK       I    between atoms: N_13  and  C_14 
REMARK       I    between atoms: C_14  and  N_15 
REMARK    4  A    between atoms: N_15  and  C_16 
REMARK    5  A    between atoms: C_19  and  O_20 
REMARK    6  A    between atoms: O_20  and  C_21 
ROOT
HETATM    1  C   UNL     1      24.132  43.728  49.753  1.00  0.00     0.161 C 
HETATM    2  C   UNL     1      23.123  44.855  49.603  1.00  0.00     0.179 C 
HETATM    3  C   UNL     1      21.894  44.221  48.965  1.00  0.00     0.177 C 
HETATM    4  C   UNL     1      21.654  45.024  47.692  1.00  0.00     0.141 C 
HETATM    5  C   UNL     1      22.555  46.248  47.862  1.00  0.00     0.196 C 
HETATM    6  O   UNL     1      23.639  45.853  48.706  1.00  0.00    -0.379 OA
HETATM    7  O   UNL     1      22.235  42.848  48.686  1.00  0.00    -0.379 OA
HETATM    8  C   UNL     1      23.254  42.495  49.643  1.00  0.00     0.198 C 
ENDROOT
BRANCH   4   9
HETATM    9  N   UNL     1      20.268  45.378  47.397  1.00  0.00    -0.334 N 
HETATM   10  C   UNL     1      19.354  44.445  47.005  1.00  0.00     0.321 C 
HETATM   11  N   UNL     1      18.038  44.781  47.095  1.00  0.00    -0.309 N 
HETATM   12  O   UNL     1      19.665  43.298  46.694  1.00  0.00    -0.247 OA
HETATM   13  H   UNL     1      17.450  43.957  47.066  1.00  0.00     0.170 HD
HETATM   14  H   UNL     1      19.885  46.115  47.972  1.00  0.00     0.164 HD
BRANCH  11  15
HETATM   15  C   UNL     1      17.396  46.010  47.311  1.00  0.00     0.036 A 
HETATM   16  C   UNL     1      17.042  46.489  48.573  1.00  0.00     0.032 A 
HETATM   17  C   UNL     1      16.395  47.723  48.701  1.00  0.00     0.039 A 
HETATM   18  C   UNL     1      16.091  48.484  47.570  1.00  0.00     0.076 A 
HETATM   19  C   UNL     1      16.480  48.026  46.310  1.00  0.00     0.039 A 
HETATM   20  C   UNL     1      17.145  46.802  46.186  1.00  0.00     0.032 A 
BRANCH  18  21
HETATM   21  O   UNL     1      15.472  49.693  47.807  1.00  0.00    -0.311 OA
BRANCH  21  22
HETATM   22  C   UNL     1      16.233  50.687  48.371  1.00  0.00     0.076 A 
HETATM   23  C   UNL     1      17.552  50.871  47.959  1.00  0.00     0.037 A 
HETATM   24  C   UNL     1      18.306  51.908  48.507  1.00  0.00     0.003 A 
HETATM   25  C   UNL     1      17.736  52.758  49.459  1.00  0.00     0.000 A 
HETATM   26  C   UNL     1      16.409  52.580  49.852  1.00  0.00     0.003 A 
HETATM   27  C   UNL     1      15.648  51.552  49.297  1.00  0.00     0.037 A 
ENDBRANCH  21  22
ENDBRANCH  18  21
ENDBRANCH  11  15
ENDBRANCH   4   9
BRANCH   1  28
HETATM   28  N   UNL     1      24.926  43.846  50.950  1.00  0.00    -0.273 N 
HETATM   29  N   UNL     1      24.412  44.318  52.097  1.00  0.00     0.005 NA
HETATM   30  N   UNL     1      25.383  44.310  53.001  1.00  0.00    -0.158 NA
HETATM   31  C   UNL     1      26.518  43.804  52.414  1.00  0.00     0.101 A 
HETATM   32  C   UNL     1      26.229  43.471  51.111  1.00  0.00     0.142 A 
BRANCH  31  33
HETATM   33  C   UNL     1      27.795  43.656  53.089  1.00  0.00    -0.005 A 
HETATM   34  C   UNL     1      28.793  42.850  52.523  1.00  0.00     0.014 A 
HETATM   35  C   UNL     1      30.025  42.687  53.161  1.00  0.00     0.001 A 
HETATM   36  C   UNL     1      30.274  43.323  54.375  1.00  0.00     0.000 A 
HETATM   37  C   UNL     1      29.291  44.123  54.952  1.00  0.00     0.001 A 
HETATM   38  C   UNL     1      28.059  44.290  54.314  1.00  0.00     0.014 A 
ENDBRANCH  31  33
ENDBRANCH   1  28
TORSDOF 6
ENDMDL
MODEL 6
REMARK VINA RESULT:      -9.4      7.649     10.491
REMARK  6 active torsions:
REMARK  status: ('A' for Active; 'I' for Inactive)
REMARK    1  A    between atoms: C_4  and  C_5 
REMARK    2  A    between atoms: N_8  and  C_9 
REMARK    3  A    between atoms: C_12  and  N_13 
REMARK       I    between atoms: N_13  and  C_14 
REMARK       I    between atoms: C_14  and  N_15 
REMARK    4  A    between atoms: N_15  and  C_16 
REMARK    5  A    between atoms: C_19  and  O_20 
REMARK    6  A    between atoms: O_20  and  C_21 
ROOT
HETATM    1  C   UNL     1      26.605  42.428  50.275  1.00  0.00     0.161 C 
HETATM    2  C   UNL     1      25.247  41.749  50.356  1.00  0.00     0.179 C 
HETATM    3  C   UNL     1      25.059  41.051  49.016  1.00  0.00     0.177 C 
HETATM    4  C   UNL     1      23.758  41.615  48.457  1.00  0.00     0.141 C 
HETATM    5  C   UNL     1      23.139  42.343  49.651  1.00  0.00     0.196 C 
HETATM    6  O   UNL     1      24.216  42.741  50.502  1.00  0.00    -0.379 OA
HETATM    7  O   UNL     1      26.198  41.402  48.203  1.00  0.00    -0.379 OA
HETATM    8  C   UNL     1      27.267  41.685  49.128  1.00  0.00     0.198 C 
ENDROOT
BRANCH   4   9
HETATM    9  N   UNL     1      22.844  40.657  47.842  1.00  0.00    -0.334 N 
HETATM   10  C   UNL     1      22.893  40.369  46.509  1.00  0.00     0.321 C 
HETATM   11  N   UNL     1      22.267  39.236  46.091  1.00  0.00    -0.309 N 
HETATM   12  O   UNL     1      23.566  41.017  45.712  1.00  0.00    -0.247 OA
HETATM   13  H   UNL     1      22.594  38.957  45.174  1.00  0.00     0.170 HD
HETATM   14  H   UNL     1      22.593  39.872  48.425  1.00  0.00     0.164 HD
BRANCH  11  15
HETATM   15  C   UNL     1      21.361  38.374  46.728  1.00  0.00     0.036 A 
HETATM   16  C   UNL     1      20.062  38.739  47.084  1.00  0.00     0.032 A 
HETATM   17  C   UNL     1      19.224  37.820  47.726  1.00  0.00     0.039 A 
HETATM   18  C   UNL     1      19.678  36.533  48.021  1.00  0.00     0.076 A 
HETATM   19  C   UNL     1      20.963  36.153  47.630  1.00  0.00     0.039 A 
HETATM   20  C   UNL     1      21.792  37.066  46.971  1.00  0.00     0.032 A 
BRANCH  18  21
HETATM   21  O   UNL     1      18.767  35.699  48.635  1.00  0.00    -0.311 OA
BRANCH  21  22
HETATM   22  C   UNL     1      18.506  34.499  48.023  1.00  0.00     0.076 A 
HETATM   23  C   UNL     1      18.021  34.476  46.716  1.00  0.00     0.037 A 
HETATM   24  C   UNL     1      17.796  33.252  46.087  1.00  0.00     0.003 A 
HETATM   25  C   UNL     1      18.062  32.059  46.764  1.00  0.00     0.000 A 
HETATM   26  C   UNL     1      18.566  32.089  48.066  1.00  0.00     0.003 A 
HETATM   27  C   UNL     1      18.804  33.311  48.694  1.00  0.00     0.037 A 
ENDBRANCH  21  22
ENDBRANCH  18  21
ENDBRANCH  11  15
ENDBRANCH   4   9
BRANCH   1  28
HETATM   28  N   UNL     1      27.307  42.422  51.533  1.00  0.00    -0.273 N 
HETATM   29  N   UNL     1      27.489  41.293  52.237  1.00  0.00     0.005 NA
HETATM   30  N   UNL     1      28.157  41.614  53.338  1.00  0.00    -0.158 NA
HETATM   31  C   UNL     1      28.414  42.964  53.312  1.00  0.00     0.101 A 
HETATM   32  C   UNL     1      27.906  43.486  52.144  1.00  0.00     0.142 A 
BRANCH  31  33
HETATM   33  C   UNL     1      29.115  43.687  54.358  1.00  0.00    -0.005 A 
HETATM   34  C   UNL     1      30.267  43.136  54.935  1.00  0.00     0.014 A 
HETATM   35  C   UNL     1      30.951  43.812  55.949  1.00  0.00     0.001 A 
HETATM   36  C   UNL     1      30.487  45.045  56.403  1.00  0.00     0.000 A 
HETATM   37  C   UNL     1      29.341  45.603  55.843  1.00  0.00     0.001 A 
HETATM   38  C   UNL     1      28.659  44.930  54.825  1.00  0.00     0.014 A 
ENDBRANCH  31  33
ENDBRANCH   1  28
TORSDOF 6
ENDMDL
MODEL 7
REMARK VINA RESULT:      -9.3      2.608     12.645
REMARK  6 active torsions:
REMARK  status: ('A' for Active; 'I' for Inactive)
REMARK    1  A    between atoms: C_4  and  C_5 
REMARK    2  A    between atoms: N_8  and  C_9 
REMARK    3  A    between atoms: C_12  and  N_13 
REMARK       I    between atoms: N_13  and  C_14 
REMARK       I    between atoms: C_14  and  N_15 
REMARK    4  A    between atoms: N_15  and  C_16 
REMARK    5  A    between atoms: C_19  and  O_20 
REMARK    6  A    between atoms: O_20  and  C_21 
ROOT
HETATM    1  C   UNL     1      19.571  49.931  48.231  1.00  0.00     0.161 C 
HETATM    2  C   UNL     1      19.875  48.742  49.129  1.00  0.00     0.179 C 
HETATM    3  C   UNL     1      21.337  48.401  48.874  1.00  0.00     0.177 C 
HETATM    4  C   UNL     1      21.329  46.941  48.435  1.00  0.00     0.141 C 
HETATM    5  C   UNL     1      19.916  46.468  48.782  1.00  0.00     0.196 C 
HETATM    6  O   UNL     1      19.069  47.619  48.737  1.00  0.00    -0.379 OA
HETATM    7  O   UNL     1      21.790  49.282  47.826  1.00  0.00    -0.379 OA
HETATM    8  C   UNL     1      20.960  50.457  47.915  1.00  0.00     0.198 C 
ENDROOT
BRANCH   4   9
HETATM    9  N   UNL     1      22.367  46.085  49.002  1.00  0.00    -0.334 N 
HETATM   10  C   UNL     1      23.076  45.208  48.234  1.00  0.00     0.321 C 
HETATM   11  N   UNL     1      24.236  44.719  48.752  1.00  0.00    -0.309 N 
HETATM   12  O   UNL     1      22.771  44.941  47.075  1.00  0.00    -0.247 OA
HETATM   13  H   UNL     1      24.820  44.325  48.024  1.00  0.00     0.170 HD
HETATM   14  H   UNL     1      22.900  46.501  49.752  1.00  0.00     0.164 HD
BRANCH  11  15
HETATM   15  C   UNL     1      24.777  44.759  50.046  1.00  0.00     0.036 A 
HETATM   16  C   UNL     1      24.400  43.892  51.072  1.00  0.00     0.032 A 
HETATM   17  C   UNL     1      24.984  44.004  52.339  1.00  0.00     0.039 A 
HETATM   18  C   UNL     1      25.943  44.987  52.591  1.00  0.00     0.076 A 
HETATM   19  C   UNL     1      26.351  45.829  51.556  1.00  0.00     0.039 A 
HETATM   20  C   UNL     1      25.781  45.702  50.286  1.00  0.00     0.032 A 
BRANCH  18  21
HETATM   21  O   UNL     1      26.470  44.998  53.865  1.00  0.00    -0.311 OA
BRANCH  21  22
HETATM   22  C   UNL     1      27.692  44.398  54.044  1.00  0.00     0.076 A 
HETATM   23  C   UNL     1      28.621  44.962  54.917  1.00  0.00     0.037 A 
HETATM   24  C   UNL     1      29.845  44.325  55.124  1.00  0.00     0.003 A 
HETATM   25  C   UNL     1      30.129  43.127  54.464  1.00  0.00     0.000 A 
HETATM   26  C   UNL     1      29.186  42.558  53.607  1.00  0.00     0.003 A 
HETATM   27  C   UNL     1      27.957  43.185  53.406  1.00  0.00     0.037 A 
ENDBRANCH  21  22
ENDBRANCH  18  21
ENDBRANCH  11  15
ENDBRANCH   4   9
BRANCH   1  28
HETATM   28  N   UNL     1      18.654  50.865  48.834  1.00  0.00    -0.273 N 
HETATM   29  N   UNL     1      18.943  51.503  49.979  1.00  0.00     0.005 NA
HETATM   30  N   UNL     1      17.907  52.279  50.274  1.00  0.00    -0.158 NA
HETATM   31  C   UNL     1      16.963  52.138  49.286  1.00  0.00     0.101 A 
HETATM   32  C   UNL     1      17.444  51.262  48.340  1.00  0.00     0.142 A 
BRANCH  31  33
HETATM   33  C   UNL     1      15.682  52.820  49.270  1.00  0.00    -0.005 A 
HETATM   34  C   UNL     1      15.176  53.326  48.065  1.00  0.00     0.014 A 
HETATM   35  C   UNL     1      13.949  53.994  48.030  1.00  0.00     0.001 A 
HETATM   36  C   UNL     1      13.215  54.168  49.201  1.00  0.00     0.000 A 
HETATM   37  C   UNL     1      13.706  53.675  50.407  1.00  0.00     0.001 A 
HETATM   38  C   UNL     1      14.931  53.003  50.443  1.00  0.00     0.014 A 
ENDBRANCH  31  33
ENDBRANCH   1  28
TORSDOF 6
ENDMDL
MODEL 8
REMARK VINA RESULT:      -9.3      2.587      3.315
REMARK  6 active torsions:
REMARK  status: ('A' for Active; 'I' for Inactive)
REMARK    1  A    between atoms: C_4  and  C_5 
REMARK    2  A    between atoms: N_8  and  C_9 
REMARK    3  A    between atoms: C_12  and  N_13 
REMARK       I    between atoms: N_13  and  C_14 
REMARK       I    between atoms: C_14  and  N_15 
REMARK    4  A    between atoms: N_15  and  C_16 
REMARK    5  A    between atoms: C_19  and  O_20 
REMARK    6  A    between atoms: O_20  and  C_21 
ROOT
HETATM    1  C   UNL     1      24.327  43.382  49.827  1.00  0.00     0.161 C 
HETATM    2  C   UNL     1      23.824  44.555  49.000  1.00  0.00     0.179 C 
HETATM    3  C   UNL     1      22.337  44.663  49.309  1.00  0.00     0.177 C 
HETATM    4  C   UNL     1      21.645  44.554  47.954  1.00  0.00     0.141 C 
HETATM    5  C   UNL     1      22.789  44.718  46.952  1.00  0.00     0.196 C 
HETATM    6  O   UNL     1      23.980  44.266  47.601  1.00  0.00    -0.379 OA
HETATM    7  O   UNL     1      22.012  43.557  50.175  1.00  0.00    -0.379 OA
HETATM    8  C   UNL     1      23.233  43.232  50.868  1.00  0.00     0.198 C 
ENDROOT
BRANCH   4   9
HETATM    9  N   UNL     1      20.542  45.479  47.709  1.00  0.00    -0.334 N 
HETATM   10  C   UNL     1      19.259  45.043  47.550  1.00  0.00     0.321 C 
HETATM   11  N   UNL     1      18.265  45.964  47.681  1.00  0.00    -0.309 N 
HETATM   12  O   UNL     1      18.971  43.857  47.414  1.00  0.00    -0.247 OA
HETATM   13  H   UNL     1      17.371  45.514  47.836  1.00  0.00     0.170 HD
HETATM   14  H   UNL     1      20.621  46.369  48.179  1.00  0.00     0.164 HD
BRANCH  11  15
HETATM   15  C   UNL     1      18.285  47.366  47.735  1.00  0.00     0.036 A 
HETATM   16  C   UNL     1      18.445  48.184  46.615  1.00  0.00     0.032 A 
HETATM   17  C   UNL     1      18.462  49.576  46.757  1.00  0.00     0.039 A 
HETATM   18  C   UNL     1      18.326  50.160  48.017  1.00  0.00     0.076 A 
HETATM   19  C   UNL     1      18.126  49.347  49.133  1.00  0.00     0.039 A 
HETATM   20  C   UNL     1      18.089  47.957  48.987  1.00  0.00     0.032 A 
BRANCH  18  21
HETATM   21  O   UNL     1      18.335  51.539  48.045  1.00  0.00    -0.311 OA
BRANCH  21  22
HETATM   22  C   UNL     1      17.186  52.165  48.460  1.00  0.00     0.076 A 
HETATM   23  C   UNL     1      16.086  52.236  47.607  1.00  0.00     0.037 A 
HETATM   24  C   UNL     1      14.909  52.838  48.050  1.00  0.00     0.003 A 
HETATM   25  C   UNL     1      14.836  53.359  49.344  1.00  0.00     0.000 A 
HETATM   26  C   UNL     1      15.934  53.266  50.201  1.00  0.00     0.003 A 
HETATM   27  C   UNL     1      17.109  52.654  49.765  1.00  0.00     0.037 A 
ENDBRANCH  21  22
ENDBRANCH  18  21
ENDBRANCH  11  15
ENDBRANCH   4   9
BRANCH   1  28
HETATM   28  N   UNL     1      25.664  43.584  50.324  1.00  0.00    -0.273 N 
HETATM   29  N   UNL     1      26.650  44.045  49.538  1.00  0.00     0.005 NA
HETATM   30  N   UNL     1      27.750  44.114  50.279  1.00  0.00    -0.158 NA
HETATM   31  C   UNL     1      27.440  43.709  51.555  1.00  0.00     0.101 A 
HETATM   32  C   UNL     1      26.099  43.401  51.605  1.00  0.00     0.142 A 
BRANCH  31  33
HETATM   33  C   UNL     1      28.393  43.636  52.647  1.00  0.00    -0.005 A 
HETATM   34  C   UNL     1      28.205  44.425  53.790  1.00  0.00     0.014 A 
HETATM   35  C   UNL     1      29.116  44.376  54.849  1.00  0.00     0.001 A 
HETATM   36  C   UNL     1      30.228  43.540  54.776  1.00  0.00     0.000 A 
HETATM   37  C   UNL     1      30.431  42.753  53.646  1.00  0.00     0.001 A 
HETATM   38  C   UNL     1      29.518  42.798  52.587  1.00  0.00     0.014 A 
ENDBRANCH  31  33
ENDBRANCH   1  28
TORSDOF 6
ENDMDL
MODEL 9
REMARK VINA RESULT:      -9.0      8.906     12.655
REMARK  6 active torsions:
REMARK  status: ('A' for Active; 'I' for Inactive)
REMARK    1  A    between atoms: C_4  and  C_5 
REMARK    2  A    between atoms: N_8  and  C_9 
REMARK    3  A    between atoms: C_12  and  N_13 
REMARK       I    between atoms: N_13  and  C_14 
REMARK       I    between atoms: C_14  and  N_15 
REMARK    4  A    between atoms: N_15  and  C_16 
REMARK    5  A    between atoms: C_19  and  O_20 
REMARK    6  A    between atoms: O_20  and  C_21 
ROOT
HETATM    1  C   UNL     1      26.904  41.197  51.259  1.00  0.00     0.161 C 
HETATM    2  C   UNL     1      27.932  40.867  50.188  1.00  0.00     0.179 C 
HETATM    3  C   UNL     1      27.128  40.549  48.935  1.00  0.00     0.177 C 
HETATM    4  C   UNL     1      27.563  39.143  48.535  1.00  0.00     0.141 C 
HETATM    5  C   UNL     1      28.805  38.893  49.391  1.00  0.00     0.196 C 
HETATM    6  O   UNL     1      28.669  39.692  50.568  1.00  0.00    -0.379 OA
HETATM    7  O   UNL     1      25.737  40.602  49.311  1.00  0.00    -0.379 OA
HETATM    8  C   UNL     1      25.669  41.506  50.433  1.00  0.00     0.198 C 
ENDROOT
BRANCH   4   9
HETATM    9  N   UNL     1      27.799  38.915  47.112  1.00  0.00    -0.334 N 
HETATM   10  C   UNL     1      26.794  38.555  46.264  1.00  0.00     0.321 C 
HETATM   11  N   UNL     1      27.016  38.707  44.930  1.00  0.00    -0.309 N 
HETATM   12  O   UNL     1      25.679  38.219  46.656  1.00  0.00    -0.247 OA
HETATM   13  H   UNL     1      26.145  38.697  44.412  1.00  0.00     0.170 HD
HETATM   14  H   UNL     1      28.497  39.513  46.695  1.00  0.00     0.164 HD
BRANCH  11  15
HETATM   15  C   UNL     1      28.185  38.963  44.196  1.00  0.00     0.036 A 
HETATM   16  C   UNL     1      28.575  40.236  43.778  1.00  0.00     0.032 A 
HETATM   17  C   UNL     1      29.752  40.405  43.041  1.00  0.00     0.039 A 
HETATM   18  C   UNL     1      30.545  39.304  42.712  1.00  0.00     0.076 A 
HETATM   19  C   UNL     1      30.179  38.035  43.164  1.00  0.00     0.039 A 
HETATM   20  C   UNL     1      29.012  37.871  43.917  1.00  0.00     0.032 A 
BRANCH  18  21
HETATM   21  O   UNL     1      31.695  39.581  42.003  1.00  0.00    -0.311 OA
BRANCH  21  22
HETATM   22  C   UNL     1      31.968  38.788  40.916  1.00  0.00     0.076 A 
HETATM   23  C   UNL     1      32.975  37.826  40.994  1.00  0.00     0.037 A 
HETATM   24  C   UNL     1      33.219  36.996  39.901  1.00  0.00     0.003 A 
HETATM   25  C   UNL     1      32.453  37.127  38.740  1.00  0.00     0.000 A 
HETATM   26  C   UNL     1      31.433  38.077  38.676  1.00  0.00     0.003 A 
HETATM   27  C   UNL     1      31.177  38.901  39.772  1.00  0.00     0.037 A 
ENDBRANCH  21  22
ENDBRANCH  18  21
ENDBRANCH  11  15
ENDBRANCH   4   9
BRANCH   1  28
HETATM   28  N   UNL     1      27.349  42.232  52.158  1.00  0.00    -0.273 N 
HETATM   29  N   UNL     1      26.790  43.453  52.166  1.00  0.00     0.005 NA
HETATM   30  N   UNL     1      27.417  44.171  53.090  1.00  0.00    -0.158 NA
HETATM   31  C   UNL     1      28.370  43.379  53.683  1.00  0.00     0.101 A 
HETATM   32  C   UNL     1      28.313  42.124  53.120  1.00  0.00     0.142 A 
BRANCH  31  33
HETATM   33  C   UNL     1      29.270  43.823  54.732  1.00  0.00    -0.005 A 
HETATM   34  C   UNL     1      30.269  42.960  55.205  1.00  0.00     0.014 A 
HETATM   35  C   UNL     1      31.139  43.365  56.221  1.00  0.00     0.001 A 
HETATM   36  C   UNL     1      31.018  44.635  56.780  1.00  0.00     0.000 A 
HETATM   37  C   UNL     1      30.028  45.502  56.325  1.00  0.00     0.001 A 
HETATM   38  C   UNL     1      29.159  45.100  55.306  1.00  0.00     0.014 A 
ENDBRANCH  31  33
ENDBRANCH   1  28
TORSDOF 6
ENDMDL
MODEL 10
REMARK VINA RESULT:      -9.0      6.918     10.681
REMARK  6 active torsions:
REMARK  status: ('A' for Active; 'I' for Inactive)
REMARK    1  A    between atoms: C_4  and  C_5 
REMARK    2  A    between atoms: N_8  and  C_9 
REMARK    3  A    between atoms: C_12  and  N_13 
REMARK       I    between atoms: N_13  and  C_14 
REMARK       I    between atoms: C_14  and  N_15 
REMARK    4  A    between atoms: N_15  and  C_16 
REMARK    5  A    between atoms: C_19  and  O_20 
REMARK    6  A    between atoms: O_20  and  C_21 
ROOT
HETATM    1  C   UNL     1      26.126  44.959  51.506  1.00  0.00     0.161 C 
HETATM    2  C   UNL     1      26.423  43.584  50.927  1.00  0.00     0.179 C 
HETATM    3  C   UNL     1      26.383  43.762  49.415  1.00  0.00     0.177 C 
HETATM    4  C   UNL     1      25.335  42.766  48.929  1.00  0.00     0.141 C 
HETATM    5  C   UNL     1      25.092  41.876  50.149  1.00  0.00     0.196 C 
HETATM    6  O   UNL     1      25.386  42.663  51.305  1.00  0.00    -0.379 OA
HETATM    7  O   UNL     1      25.990  45.128  49.169  1.00  0.00    -0.379 OA
HETATM    8  C   UNL     1      26.414  45.872  50.329  1.00  0.00     0.198 C 
ENDROOT
BRANCH   4   9
HETATM    9  N   UNL     1      25.669  42.004  47.729  1.00  0.00    -0.334 N 
HETATM   10  C   UNL     1      24.742  41.242  47.080  1.00  0.00     0.321 C 
HETATM   11  N   UNL     1      25.029  40.861  45.805  1.00  0.00    -0.309 N 
HETATM   12  O   UNL     1      23.635  40.995  47.551  1.00  0.00    -0.247 OA
HETATM   13  H   UNL     1      24.192  40.563  45.318  1.00  0.00     0.170 HD
HETATM   14  H   UNL     1      26.344  42.443  47.120  1.00  0.00     0.164 HD
BRANCH  11  15
HETATM   15  C   UNL     1      26.215  40.903  45.057  1.00  0.00     0.036 A 
HETATM   16  C   UNL     1      27.389  40.243  45.425  1.00  0.00     0.032 A 
HETATM   17  C   UNL     1      28.532  40.344  44.625  1.00  0.00     0.039 A 
HETATM   18  C   UNL     1      28.514  41.108  43.456  1.00  0.00     0.076 A 
HETATM   19  C   UNL     1      27.330  41.735  43.065  1.00  0.00     0.039 A 
HETATM   20  C   UNL     1      26.183  41.617  43.855  1.00  0.00     0.032 A 
BRANCH  18  21
HETATM   21  O   UNL     1      29.686  41.124  42.730  1.00  0.00    -0.311 OA
BRANCH  21  22
HETATM   22  C   UNL     1      30.066  39.951  42.126  1.00  0.00     0.076 A 
HETATM   23  C   UNL     1      29.303  39.430  41.082  1.00  0.00     0.037 A 
HETATM   24  C   UNL     1      29.717  38.259  40.446  1.00  0.00     0.003 A 
HETATM   25  C   UNL     1      30.892  37.622  40.852  1.00  0.00     0.000 A 
HETATM   26  C   UNL     1      31.661  38.161  41.884  1.00  0.00     0.003 A 
HETATM   27  C   UNL     1      31.257  39.337  42.515  1.00  0.00     0.037 A 
ENDBRANCH  21  22
ENDBRANCH  18  21
ENDBRANCH  11  15
ENDBRANCH   4   9
BRANCH   1  28
HETATM   28  N   UNL     1      26.860  45.223  52.718  1.00  0.00    -0.273 N 
HETATM   29  N   UNL     1      26.585  46.281  53.497  1.00  0.00     0.005 NA
HETATM   30  N   UNL     1      27.429  46.251  54.521  1.00  0.00    -0.158 NA
HETATM   31  C   UNL     1      28.231  45.143  54.391  1.00  0.00     0.101 A 
HETATM   32  C   UNL     1      27.854  44.457  53.259  1.00  0.00     0.142 A 
BRANCH  31  33
HETATM   33  C   UNL     1      29.290  44.782  55.316  1.00  0.00    -0.005 A 
HETATM   34  C   UNL     1      30.029  43.610  55.106  1.00  0.00     0.014 A 
HETATM   35  C   UNL     1      31.047  43.240  55.990  1.00  0.00     0.001 A 
HETATM   36  C   UNL     1      31.334  44.035  57.097  1.00  0.00     0.000 A 
HETATM   37  C   UNL     1      30.606  45.200  57.321  1.00  0.00     0.001 A 
HETATM   38  C   UNL     1      29.590  45.574  56.436  1.00  0.00     0.014 A 
ENDBRANCH  31  33
ENDBRANCH   1  28
TORSDOF 6
ENDMDL
