MODEL 1
REMARK VINA RESULT:     -10.3      0.000      0.000
REMARK  7 active torsions:
REMARK  status: ('A' for Active; 'I' for Inactive)
REMARK    1  A    between atoms: C_2  and  C_3 
REMARK    2  A    between atoms: C_3  and  C_4 
REMARK    3  A    between atoms: C_4  and  N_5 
REMARK       I    between atoms: N_5  and  C_6 
REMARK    4  A    between atoms: C_6  and  C_7 
REMARK    5  A    between atoms: C_8  and  N_9 
REMARK    6  A    between atoms: N_10  and  N_11 
REMARK    7  A    between atoms: C_12  and  C_13 
ROOT
HETATM    1  C   UNL     1      26.991  45.006  53.656  1.00  0.00     0.104 C 
HETATM    2  C   UNL     1      26.144  46.100  53.519  1.00  0.00     0.123 C 
HETATM    3  N   UNL     1      25.657  46.078  52.211  1.00  0.00    -0.202 N 
HETATM    4  C   UNL     1      25.714  44.768  51.779  1.00  0.00     0.183 A 
HETATM    5  C   UNL     1      26.606  44.104  52.622  1.00  0.00     0.124 A 
HETATM    6  N   UNL     1      26.990  42.829  52.360  1.00  0.00    -0.242 NA
HETATM    7  C   UNL     1      26.400  42.267  51.291  1.00  0.00     0.086 A 
HETATM    8  C   UNL     1      25.472  42.962  50.469  1.00  0.00     0.088 A 
HETATM    9  N   UNL     1      25.131  44.242  50.679  1.00  0.00    -0.225 NA
HETATM   10  C   UNL     1      26.706  40.948  50.983  1.00  0.00     0.034 A 
HETATM   11  C   UNL     1      26.115  40.290  49.902  1.00  0.00     0.002 A 
HETATM   12  C   UNL     1      25.199  40.966  49.110  1.00  0.00     0.002 A 
HETATM   13  C   UNL     1      24.889  42.294  49.399  1.00  0.00     0.034 A 
ENDROOT
BRANCH   3  14
HETATM   14  N   UNL     1      25.263  47.156  51.449  1.00  0.00    -0.176 NA
HETATM   15  C   UNL     1      26.031  47.342  50.425  1.00  0.00     0.153 C 
BRANCH  15  16
HETATM   16  C   UNL     1      25.786  48.386  49.458  1.00  0.00     0.011 A 
HETATM   17  C   UNL     1      24.498  48.854  49.042  1.00  0.00     0.004 A 
HETATM   18  C   UNL     1      24.706  49.947  48.202  1.00  0.00     0.043 A 
HETATM   19  C   UNL     1      23.171  48.452  49.313  1.00  0.00     0.014 A 
HETATM   20  C   UNL     1      23.651  50.677  47.639  1.00  0.00     0.030 A 
HETATM   21  N   UNL     1      26.068  50.113  48.085  1.00  0.00    -0.364 N 
HETATM   22  C   UNL     1      22.347  50.261  47.926  1.00  0.00     0.002 A 
HETATM   23  C   UNL     1      22.106  49.160  48.744  1.00  0.00     0.001 A 
HETATM   24  H   UNL     1      26.512  50.841  47.543  1.00  0.00     0.165 HD
HETATM   25  C   UNL     1      26.728  49.165  48.821  1.00  0.00     0.102 A 
ENDBRANCH  15  16
ENDBRANCH   3  14
BRANCH   2  26
HETATM   26  N   UNL     1      25.875  47.136  54.375  1.00  0.00    -0.286 NA
HETATM   27  H   UNL     1      25.029  47.680  54.182  1.00  0.00     0.125 HD
HETATM   28  H   UNL     1      26.650  47.782  54.562  1.00  0.00     0.125 HD
ENDBRANCH   2  26
BRANCH   1  29
HETATM   29  C   UNL     1      28.047  44.874  54.653  1.00  0.00     0.257 C 
HETATM   30  N   UNL     1      29.071  44.051  54.220  1.00  0.00    -0.357 N 
HETATM   31  H   UNL     1      28.925  43.606  53.319  1.00  0.00     0.162 HD
HETATM   32  O   UNL     1      28.006  45.356  55.777  1.00  0.00    -0.267 OA
BRANCH  30  33
HETATM   33  C   UNL     1      30.070  43.467  55.088  1.00  0.00     0.123 C 
BRANCH  33  34
HETATM   34  C   UNL     1      30.905  44.589  55.709  1.00  0.00     0.023 C 
BRANCH  34  35
HETATM   35  C   UNL     1      31.571  44.233  57.046  1.00  0.00    -0.021 C 
HETATM   36  C   UNL     1      31.553  42.731  57.316  1.00  0.00     0.009 C 
HETATM   37  C   UNL     1      30.862  44.977  58.183  1.00  0.00     0.009 C 
ENDBRANCH  34  35
ENDBRANCH  33  34
ENDBRANCH  30  33
ENDBRANCH   1  29
TORSDOF 7
ENDMDL
MODEL 2
REMARK VINA RESULT:     -10.2      2.245      8.257
REMARK  7 active torsions:
REMARK  status: ('A' for Active; 'I' for Inactive)
REMARK    1  A    between atoms: C_2  and  C_3 
REMARK    2  A    between atoms: C_3  and  C_4 
REMARK    3  A    between atoms: C_4  and  N_5 
REMARK       I    between atoms: N_5  and  C_6 
REMARK    4  A    between atoms: C_6  and  C_7 
REMARK    5  A    between atoms: C_8  and  N_9 
REMARK    6  A    between atoms: N_10  and  N_11 
REMARK    7  A    between atoms: C_12  and  C_13 
ROOT
HETATM    1  C   UNL     1      25.826  45.253  52.518  1.00  0.00     0.104 C 
HETATM    2  C   UNL     1      25.338  44.035  52.058  1.00  0.00     0.123 C 
HETATM    3  N   UNL     1      26.389  43.120  52.133  1.00  0.00    -0.202 N 
HETATM    4  C   UNL     1      27.253  43.573  53.110  1.00  0.00     0.183 A 
HETATM    5  C   UNL     1      26.968  44.925  53.303  1.00  0.00     0.124 A 
HETATM    6  N   UNL     1      27.756  45.692  54.100  1.00  0.00    -0.242 NA
HETATM    7  C   UNL     1      28.754  45.035  54.712  1.00  0.00     0.086 A 
HETATM    8  C   UNL     1      29.000  43.649  54.517  1.00  0.00     0.088 A 
HETATM    9  N   UNL     1      28.270  42.892  53.684  1.00  0.00    -0.225 NA
HETATM   10  C   UNL     1      29.578  45.741  55.581  1.00  0.00     0.034 A 
HETATM   11  C   UNL     1      30.621  45.121  56.271  1.00  0.00     0.002 A 
HETATM   12  C   UNL     1      30.849  43.765  56.088  1.00  0.00     0.002 A 
HETATM   13  C   UNL     1      30.039  43.044  55.212  1.00  0.00     0.034 A 
ENDROOT
BRANCH   3  14
HETATM   14  N   UNL     1      26.588  42.011  51.339  1.00  0.00    -0.176 NA
HETATM   15  C   UNL     1      27.273  42.283  50.276  1.00  0.00     0.153 C 
BRANCH  15  16
HETATM   16  C   UNL     1      27.643  41.267  49.319  1.00  0.00     0.011 A 
HETATM   17  C   UNL     1      28.378  40.074  49.608  1.00  0.00     0.004 A 
HETATM   18  C   UNL     1      28.408  39.312  48.441  1.00  0.00     0.043 A 
HETATM   19  C   UNL     1      29.012  39.566  50.764  1.00  0.00     0.014 A 
HETATM   20  C   UNL     1      29.019  38.053  48.377  1.00  0.00     0.030 A 
HETATM   21  N   UNL     1      27.748  40.033  47.472  1.00  0.00    -0.364 N 
HETATM   22  C   UNL     1      29.637  37.571  49.537  1.00  0.00     0.002 A 
HETATM   23  C   UNL     1      29.642  38.317  50.713  1.00  0.00     0.001 A 
HETATM   24  H   UNL     1      27.604  39.718  46.522  1.00  0.00     0.165 HD
HETATM   25  C   UNL     1      27.301  41.222  47.984  1.00  0.00     0.102 A 
ENDBRANCH  15  16
ENDBRANCH   3  14
BRANCH   2  26
HETATM   26  N   UNL     1      24.133  43.711  51.491  1.00  0.00    -0.286 NA
HETATM   27  H   UNL     1      23.706  42.832  51.798  1.00  0.00     0.125 HD
HETATM   28  H   UNL     1      24.085  43.765  50.468  1.00  0.00     0.125 HD
ENDBRANCH   2  26
BRANCH   1  29
HETATM   29  C   UNL     1      25.260  46.562  52.209  1.00  0.00     0.257 C 
HETATM   30  N   UNL     1      24.623  46.574  50.981  1.00  0.00    -0.357 N 
HETATM   31  H   UNL     1      24.689  45.717  50.443  1.00  0.00     0.162 HD
HETATM   32  O   UNL     1      25.400  47.561  52.901  1.00  0.00    -0.267 OA
BRANCH  30  33
HETATM   33  C   UNL     1      24.267  47.778  50.261  1.00  0.00     0.123 C 
BRANCH  33  34
HETATM   34  C   UNL     1      25.179  47.915  49.041  1.00  0.00     0.023 C 
BRANCH  34  35
HETATM   35  C   UNL     1      26.168  49.087  49.103  1.00  0.00    -0.021 C 
HETATM   36  C   UNL     1      25.973  50.066  47.948  1.00  0.00     0.009 C 
HETATM   37  C   UNL     1      27.602  48.545  49.089  1.00  0.00     0.009 C 
ENDBRANCH  34  35
ENDBRANCH  33  34
ENDBRANCH  30  33
ENDBRANCH   1  29
TORSDOF 7
ENDMDL
MODEL 3
REMARK VINA RESULT:     -10.2      2.796      8.497
REMARK  7 active torsions:
REMARK  status: ('A' for Active; 'I' for Inactive)
REMARK    1  A    between atoms: C_2  and  C_3 
REMARK    2  A    between atoms: C_3  and  C_4 
REMARK    3  A    between atoms: C_4  and  N_5 
REMARK       I    between atoms: N_5  and  C_6 
REMARK    4  A    between atoms: C_6  and  C_7 
REMARK    5  A    between atoms: C_8  and  N_9 
REMARK    6  A    between atoms: N_10  and  N_11 
REMARK    7  A    between atoms: C_12  and  C_13 
ROOT
HETATM    1  C   UNL     1      23.275  47.318  49.062  1.00  0.00     0.104 C 
HETATM    2  C   UNL     1      24.391  47.996  49.543  1.00  0.00     0.123 C 
HETATM    3  N   UNL     1      25.141  47.077  50.279  1.00  0.00    -0.202 N 
HETATM    4  C   UNL     1      24.838  45.822  49.789  1.00  0.00     0.183 A 
HETATM    5  C   UNL     1      23.634  45.940  49.095  1.00  0.00     0.124 A 
HETATM    6  N   UNL     1      22.995  44.839  48.622  1.00  0.00    -0.242 NA
HETATM    7  C   UNL     1      23.644  43.679  48.819  1.00  0.00     0.086 A 
HETATM    8  C   UNL     1      24.886  43.596  49.504  1.00  0.00     0.088 A 
HETATM    9  N   UNL     1      25.497  44.667  50.033  1.00  0.00    -0.225 NA
HETATM   10  C   UNL     1      23.077  42.511  48.323  1.00  0.00     0.034 A 
HETATM   11  C   UNL     1      23.704  41.272  48.469  1.00  0.00     0.002 A 
HETATM   12  C   UNL     1      24.923  41.196  49.126  1.00  0.00     0.002 A 
HETATM   13  C   UNL     1      25.500  42.357  49.639  1.00  0.00     0.034 A 
ENDROOT
BRANCH   3  14
HETATM   14  N   UNL     1      25.970  47.341  51.347  1.00  0.00    -0.176 NA
HETATM   15  C   UNL     1      25.480  46.922  52.468  1.00  0.00     0.153 C 
BRANCH  15  16
HETATM   16  C   UNL     1      26.194  47.049  53.716  1.00  0.00     0.011 A 
HETATM   17  C   UNL     1      27.228  46.174  54.180  1.00  0.00     0.004 A 
HETATM   18  C   UNL     1      27.736  46.722  55.358  1.00  0.00     0.043 A 
HETATM   19  C   UNL     1      27.788  44.970  53.697  1.00  0.00     0.014 A 
HETATM   20  C   UNL     1      28.795  46.138  56.065  1.00  0.00     0.030 A 
HETATM   21  N   UNL     1      27.013  47.864  55.616  1.00  0.00    -0.364 N 
HETATM   22  C   UNL     1      29.333  44.947  55.564  1.00  0.00     0.002 A 
HETATM   23  C   UNL     1      28.834  44.365  54.402  1.00  0.00     0.001 A 
HETATM   24  H   UNL     1      27.171  48.476  56.405  1.00  0.00     0.165 HD
HETATM   25  C   UNL     1      26.067  48.059  54.645  1.00  0.00     0.102 A 
ENDBRANCH  15  16
ENDBRANCH   3  14
BRANCH   2  26
HETATM   26  N   UNL     1      24.721  49.325  49.491  1.00  0.00    -0.286 NA
HETATM   27  H   UNL     1      24.310  49.926  50.211  1.00  0.00     0.125 HD
HETATM   28  H   UNL     1      24.618  49.782  48.578  1.00  0.00     0.125 HD
ENDBRANCH   2  26
BRANCH   1  29
HETATM   29  C   UNL     1      22.023  47.940  48.648  1.00  0.00     0.257 C 
HETATM   30  N   UNL     1      21.554  48.840  49.587  1.00  0.00    -0.357 N 
HETATM   31  H   UNL     1      22.092  48.899  50.446  1.00  0.00     0.162 HD
HETATM   32  O   UNL     1      21.402  47.645  47.635  1.00  0.00    -0.267 OA
BRANCH  30  33
HETATM   33  C   UNL     1      20.201  49.350  49.622  1.00  0.00     0.123 C 
BRANCH  33  34
HETATM   34  C   UNL     1      20.247  50.877  49.716  1.00  0.00     0.023 C 
BRANCH  34  35
HETATM   35  C   UNL     1      19.894  51.615  48.417  1.00  0.00    -0.021 C 
HETATM   36  C   UNL     1      18.725  52.580  48.604  1.00  0.00     0.009 C 
HETATM   37  C   UNL     1      19.556  50.593  47.326  1.00  0.00     0.009 C 
ENDBRANCH  34  35
ENDBRANCH  33  34
ENDBRANCH  30  33
ENDBRANCH   1  29
TORSDOF 7
ENDMDL
MODEL 4
REMARK VINA RESULT:     -10.0      1.420      1.764
REMARK  7 active torsions:
REMARK  status: ('A' for Active; 'I' for Inactive)
REMARK    1  A    between atoms: C_2  and  C_3 
REMARK    2  A    between atoms: C_3  and  C_4 
REMARK    3  A    between atoms: C_4  and  N_5 
REMARK       I    between atoms: N_5  and  C_6 
REMARK    4  A    between atoms: C_6  and  C_7 
REMARK    5  A    between atoms: C_8  and  N_9 
REMARK    6  A    between atoms: N_10  and  N_11 
REMARK    7  A    between atoms: C_12  and  C_13 
ROOT
HETATM    1  C   UNL     1      27.112  43.781  52.544  1.00  0.00     0.104 C 
HETATM    2  C   UNL     1      26.191  44.692  52.037  1.00  0.00     0.123 C 
HETATM    3  N   UNL     1      26.281  44.631  50.645  1.00  0.00    -0.202 N 
HETATM    4  C   UNL     1      26.765  43.379  50.325  1.00  0.00     0.183 A 
HETATM    5  C   UNL     1      27.359  42.868  51.479  1.00  0.00     0.124 A 
HETATM    6  N   UNL     1      28.061  41.707  51.443  1.00  0.00    -0.242 NA
HETATM    7  C   UNL     1      28.071  41.087  50.251  1.00  0.00     0.086 A 
HETATM    8  C   UNL     1      27.430  41.620  49.099  1.00  0.00     0.088 A 
HETATM    9  N   UNL     1      26.787  42.797  49.104  1.00  0.00    -0.225 NA
HETATM   10  C   UNL     1      28.731  39.869  50.143  1.00  0.00     0.034 A 
HETATM   11  C   UNL     1      28.764  39.156  48.943  1.00  0.00     0.002 A 
HETATM   12  C   UNL     1      28.125  39.671  47.825  1.00  0.00     0.002 A 
HETATM   13  C   UNL     1      27.468  40.898  47.913  1.00  0.00     0.034 A 
ENDROOT
BRANCH   3  14
HETATM   14  N   UNL     1      26.018  45.643  49.748  1.00  0.00    -0.176 NA
HETATM   15  C   UNL     1      26.326  46.809  50.215  1.00  0.00     0.153 C 
BRANCH  15  16
HETATM   16  C   UNL     1      26.180  48.014  49.434  1.00  0.00     0.011 A 
HETATM   17  C   UNL     1      24.938  48.617  49.052  1.00  0.00     0.004 A 
HETATM   18  C   UNL     1      25.241  49.824  48.422  1.00  0.00     0.043 A 
HETATM   19  C   UNL     1      23.582  48.250  49.195  1.00  0.00     0.014 A 
HETATM   20  C   UNL     1      24.251  50.696  47.950  1.00  0.00     0.030 A 
HETATM   21  N   UNL     1      26.613  49.931  48.392  1.00  0.00    -0.364 N 
HETATM   22  C   UNL     1      22.916  50.310  48.107  1.00  0.00     0.002 A 
HETATM   23  C   UNL     1      22.582  49.102  48.713  1.00  0.00     0.001 A 
HETATM   24  H   UNL     1      27.118  50.715  48.003  1.00  0.00     0.165 HD
HETATM   25  C   UNL     1      27.189  48.836  48.980  1.00  0.00     0.102 A 
ENDBRANCH  15  16
ENDBRANCH   3  14
BRANCH   2  26
HETATM   26  N   UNL     1      25.402  45.615  52.673  1.00  0.00    -0.286 NA
HETATM   27  H   UNL     1      24.922  46.294  52.075  1.00  0.00     0.125 HD
HETATM   28  H   UNL     1      25.832  46.111  53.461  1.00  0.00     0.125 HD
ENDBRANCH   2  26
BRANCH   1  29
HETATM   29  C   UNL     1      27.686  43.818  53.885  1.00  0.00     0.257 C 
HETATM   30  N   UNL     1      29.055  43.626  53.868  1.00  0.00    -0.357 N 
HETATM   31  H   UNL     1      29.459  43.424  52.960  1.00  0.00     0.162 HD
HETATM   32  O   UNL     1      27.035  43.916  54.917  1.00  0.00    -0.267 OA
BRANCH  30  33
HETATM   33  C   UNL     1      29.843  43.278  55.031  1.00  0.00     0.123 C 
BRANCH  33  34
HETATM   34  C   UNL     1      30.294  44.564  55.728  1.00  0.00     0.023 C 
BRANCH  34  35
HETATM   35  C   UNL     1      31.306  44.361  56.864  1.00  0.00    -0.021 C 
HETATM   36  C   UNL     1      31.579  42.883  57.135  1.00  0.00     0.009 C 
HETATM   37  C   UNL     1      30.785  45.037  58.138  1.00  0.00     0.009 C 
ENDBRANCH  34  35
ENDBRANCH  33  34
ENDBRANCH  30  33
ENDBRANCH   1  29
TORSDOF 7
ENDMDL
MODEL 5
REMARK VINA RESULT:      -9.9      2.676      9.009
REMARK  7 active torsions:
REMARK  status: ('A' for Active; 'I' for Inactive)
REMARK    1  A    between atoms: C_2  and  C_3 
REMARK    2  A    between atoms: C_3  and  C_4 
REMARK    3  A    between atoms: C_4  and  N_5 
REMARK       I    between atoms: N_5  and  C_6 
REMARK    4  A    between atoms: C_6  and  C_7 
REMARK    5  A    between atoms: C_8  and  N_9 
REMARK    6  A    between atoms: N_10  and  N_11 
REMARK    7  A    between atoms: C_12  and  C_13 
ROOT
HETATM    1  C   UNL     1      24.820  46.562  50.177  1.00  0.00     0.104 C 
HETATM    2  C   UNL     1      24.970  45.339  49.532  1.00  0.00     0.123 C 
HETATM    3  N   UNL     1      26.117  44.740  50.054  1.00  0.00    -0.202 N 
HETATM    4  C   UNL     1      26.306  45.260  51.319  1.00  0.00     0.183 A 
HETATM    5  C   UNL     1      25.567  46.441  51.384  1.00  0.00     0.124 A 
HETATM    6  N   UNL     1      25.669  47.265  52.458  1.00  0.00    -0.242 NA
HETATM    7  C   UNL     1      26.467  46.818  53.442  1.00  0.00     0.086 A 
HETATM    8  C   UNL     1      27.185  45.594  53.357  1.00  0.00     0.088 A 
HETATM    9  N   UNL     1      27.143  44.800  52.276  1.00  0.00    -0.225 NA
HETATM   10  C   UNL     1      26.590  47.583  54.595  1.00  0.00     0.034 A 
HETATM   11  C   UNL     1      27.382  47.172  55.669  1.00  0.00     0.002 A 
HETATM   12  C   UNL     1      28.069  45.970  55.589  1.00  0.00     0.002 A 
HETATM   13  C   UNL     1      27.966  45.195  54.434  1.00  0.00     0.034 A 
ENDROOT
BRANCH   3  14
HETATM   14  N   UNL     1      26.960  43.856  49.416  1.00  0.00    -0.176 NA
HETATM   15  C   UNL     1      26.626  42.623  49.619  1.00  0.00     0.153 C 
BRANCH  15  16
HETATM   16  C   UNL     1      27.339  41.523  49.014  1.00  0.00     0.011 A 
HETATM   17  C   UNL     1      28.098  40.532  49.715  1.00  0.00     0.004 A 
HETATM   18  C   UNL     1      28.511  39.587  48.776  1.00  0.00     0.043 A 
HETATM   19  C   UNL     1      28.460  40.346  51.067  1.00  0.00     0.014 A 
HETATM   20  C   UNL     1      29.249  38.449  49.127  1.00  0.00     0.030 A 
HETATM   21  N   UNL     1      28.052  40.009  47.549  1.00  0.00    -0.364 N 
HETATM   22  C   UNL     1      29.593  38.287  50.473  1.00  0.00     0.002 A 
HETATM   23  C   UNL     1      29.213  39.223  51.431  1.00  0.00     0.001 A 
HETATM   24  H   UNL     1      28.194  39.510  46.681  1.00  0.00     0.165 HD
HETATM   25  C   UNL     1      27.363  41.186  47.677  1.00  0.00     0.102 A 
ENDBRANCH  15  16
ENDBRANCH   3  14
BRANCH   2  26
HETATM   26  N   UNL     1      24.278  44.790  48.483  1.00  0.00    -0.286 NA
HETATM   27  H   UNL     1      24.604  45.036  47.544  1.00  0.00     0.125 HD
HETATM   28  H   UNL     1      23.257  44.883  48.516  1.00  0.00     0.125 HD
ENDBRANCH   2  26
BRANCH   1  29
HETATM   29  C   UNL     1      24.064  47.700  49.666  1.00  0.00     0.257 C 
HETATM   30  N   UNL     1      22.803  47.333  49.232  1.00  0.00    -0.357 N 
HETATM   31  H   UNL     1      22.600  46.339  49.262  1.00  0.00     0.162 HD
HETATM   32  O   UNL     1      24.510  48.834  49.546  1.00  0.00    -0.267 OA
BRANCH  30  33
HETATM   33  C   UNL     1      21.965  48.151  48.382  1.00  0.00     0.123 C 
BRANCH  33  34
HETATM   34  C   UNL     1      20.949  48.893  49.253  1.00  0.00     0.023 C 
BRANCH  34  35
HETATM   35  C   UNL     1      21.300  50.357  49.549  1.00  0.00    -0.021 C 
HETATM   36  C   UNL     1      20.061  51.194  49.860  1.00  0.00     0.009 C 
HETATM   37  C   UNL     1      22.046  50.955  48.351  1.00  0.00     0.009 C 
ENDBRANCH  34  35
ENDBRANCH  33  34
ENDBRANCH  30  33
ENDBRANCH   1  29
TORSDOF 7
ENDMDL
MODEL 6
REMARK VINA RESULT:      -9.7      1.872      2.784
REMARK  7 active torsions:
REMARK  status: ('A' for Active; 'I' for Inactive)
REMARK    1  A    between atoms: C_2  and  C_3 
REMARK    2  A    between atoms: C_3  and  C_4 
REMARK    3  A    between atoms: C_4  and  N_5 
REMARK       I    between atoms: N_5  and  C_6 
REMARK    4  A    between atoms: C_6  and  C_7 
REMARK    5  A    between atoms: C_8  and  N_9 
REMARK    6  A    between atoms: N_10  and  N_11 
REMARK    7  A    between atoms: C_12  and  C_13 
ROOT
HETATM    1  C   UNL     1      28.097  42.757  52.450  1.00  0.00     0.104 C 
HETATM    2  C   UNL     1      26.990  43.553  52.725  1.00  0.00     0.123 C 
HETATM    3  N   UNL     1      26.190  43.549  51.581  1.00  0.00    -0.202 N 
HETATM    4  C   UNL     1      26.467  42.382  50.897  1.00  0.00     0.183 A 
HETATM    5  C   UNL     1      27.695  41.918  51.371  1.00  0.00     0.124 A 
HETATM    6  N   UNL     1      28.312  40.862  50.782  1.00  0.00    -0.242 NA
HETATM    7  C   UNL     1      27.621  40.287  49.783  1.00  0.00     0.086 A 
HETATM    8  C   UNL     1      26.357  40.766  49.343  1.00  0.00     0.088 A 
HETATM    9  N   UNL     1      25.765  41.847  49.873  1.00  0.00    -0.225 NA
HETATM   10  C   UNL     1      28.165  39.171  49.159  1.00  0.00     0.034 A 
HETATM   11  C   UNL     1      27.495  38.507  48.130  1.00  0.00     0.002 A 
HETATM   12  C   UNL     1      26.256  38.968  47.712  1.00  0.00     0.002 A 
HETATM   13  C   UNL     1      25.701  40.094  48.320  1.00  0.00     0.034 A 
ENDROOT
BRANCH   3  14
HETATM   14  N   UNL     1      25.339  44.544  51.155  1.00  0.00    -0.176 NA
HETATM   15  C   UNL     1      25.972  45.544  50.632  1.00  0.00     0.153 C 
BRANCH  15  16
HETATM   16  C   UNL     1      25.283  46.684  50.075  1.00  0.00     0.011 A 
HETATM   17  C   UNL     1      25.905  47.864  49.554  1.00  0.00     0.004 A 
HETATM   18  C   UNL     1      24.898  48.654  49.002  1.00  0.00     0.043 A 
HETATM   19  C   UNL     1      27.239  48.326  49.492  1.00  0.00     0.014 A 
HETATM   20  C   UNL     1      25.160  49.875  48.367  1.00  0.00     0.030 A 
HETATM   21  N   UNL     1      23.708  47.996  49.213  1.00  0.00    -0.364 N 
HETATM   22  C   UNL     1      26.490  50.308  48.316  1.00  0.00     0.002 A 
HETATM   23  C   UNL     1      27.516  49.552  48.876  1.00  0.00     0.001 A 
HETATM   24  H   UNL     1      22.805  48.331  48.906  1.00  0.00     0.165 HD
HETATM   25  C   UNL     1      23.926  46.818  49.877  1.00  0.00     0.102 A 
ENDBRANCH  15  16
ENDBRANCH   3  14
BRANCH   2  26
HETATM   26  N   UNL     1      26.704  44.343  53.808  1.00  0.00    -0.286 NA
HETATM   27  H   UNL     1      26.362  43.863  54.645  1.00  0.00     0.125 HD
HETATM   28  H   UNL     1      26.111  45.161  53.627  1.00  0.00     0.125 HD
ENDBRANCH   2  26
BRANCH   1  29
HETATM   29  C   UNL     1      29.381  42.827  53.140  1.00  0.00     0.257 C 
HETATM   30  N   UNL     1      29.233  42.806  54.515  1.00  0.00    -0.357 N 
HETATM   31  H   UNL     1      28.276  42.813  54.854  1.00  0.00     0.162 HD
HETATM   32  O   UNL     1      30.461  42.976  52.585  1.00  0.00    -0.267 OA
BRANCH  30  33
HETATM   33  C   UNL     1      30.266  43.193  55.451  1.00  0.00     0.123 C 
BRANCH  33  34
HETATM   34  C   UNL     1      30.149  44.694  55.727  1.00  0.00     0.023 C 
BRANCH  34  35
HETATM   35  C   UNL     1      30.828  45.167  57.020  1.00  0.00    -0.021 C 
HETATM   36  C   UNL     1      31.504  44.020  57.767  1.00  0.00     0.009 C 
HETATM   37  C   UNL     1      29.790  45.840  57.925  1.00  0.00     0.009 C 
ENDBRANCH  34  35
ENDBRANCH  33  34
ENDBRANCH  30  33
ENDBRANCH   1  29
TORSDOF 7
ENDMDL
MODEL 7
REMARK VINA RESULT:      -9.5      2.780      8.167
REMARK  7 active torsions:
REMARK  status: ('A' for Active; 'I' for Inactive)
REMARK    1  A    between atoms: C_2  and  C_3 
REMARK    2  A    between atoms: C_3  and  C_4 
REMARK    3  A    between atoms: C_4  and  N_5 
REMARK       I    between atoms: N_5  and  C_6 
REMARK    4  A    between atoms: C_6  and  C_7 
REMARK    5  A    between atoms: C_8  and  N_9 
REMARK    6  A    between atoms: N_10  and  N_11 
REMARK    7  A    between atoms: C_12  and  C_13 
ROOT
HETATM    1  C   UNL     1      25.192  42.689  49.146  1.00  0.00     0.104 C 
HETATM    2  C   UNL     1      25.990  43.787  49.449  1.00  0.00     0.123 C 
HETATM    3  N   UNL     1      27.011  43.332  50.285  1.00  0.00    -0.202 N 
HETATM    4  C   UNL     1      27.178  41.986  50.025  1.00  0.00     0.183 A 
HETATM    5  C   UNL     1      26.016  41.552  49.387  1.00  0.00     0.124 A 
HETATM    6  N   UNL     1      25.813  40.232  49.136  1.00  0.00    -0.242 NA
HETATM    7  C   UNL     1      26.829  39.426  49.487  1.00  0.00     0.086 A 
HETATM    8  C   UNL     1      28.014  39.905  50.109  1.00  0.00     0.088 A 
HETATM    9  N   UNL     1      28.201  41.196  50.421  1.00  0.00    -0.225 NA
HETATM   10  C   UNL     1      26.718  38.067  49.221  1.00  0.00     0.034 A 
HETATM   11  C   UNL     1      27.742  37.172  49.536  1.00  0.00     0.002 A 
HETATM   12  C   UNL     1      28.903  37.643  50.130  1.00  0.00     0.002 A 
HETATM   13  C   UNL     1      29.026  39.003  50.413  1.00  0.00     0.034 A 
ENDROOT
BRANCH   3  14
HETATM   14  N   UNL     1      27.684  44.051  51.248  1.00  0.00    -0.176 NA
HETATM   15  C   UNL     1      27.042  44.092  52.370  1.00  0.00     0.153 C 
BRANCH  15  16
HETATM   16  C   UNL     1      27.575  44.752  53.538  1.00  0.00     0.011 A 
HETATM   17  C   UNL     1      28.722  44.332  54.285  1.00  0.00     0.004 A 
HETATM   18  C   UNL     1      28.970  45.309  55.248  1.00  0.00     0.043 A 
HETATM   19  C   UNL     1      29.581  43.212  54.220  1.00  0.00     0.014 A 
HETATM   20  C   UNL     1      30.051  45.236  56.136  1.00  0.00     0.030 A 
HETATM   21  N   UNL     1      27.989  46.265  55.114  1.00  0.00    -0.364 N 
HETATM   22  C   UNL     1      30.889  44.118  56.049  1.00  0.00     0.002 A 
HETATM   23  C   UNL     1      30.656  43.115  55.112  1.00  0.00     0.001 A 
HETATM   24  H   UNL     1      27.925  47.103  55.677  1.00  0.00     0.165 HD
HETATM   25  C   UNL     1      27.131  45.929  54.101  1.00  0.00     0.102 A 
ENDBRANCH  15  16
ENDBRANCH   3  14
BRANCH   2  26
HETATM   26  N   UNL     1      25.828  45.117  49.160  1.00  0.00    -0.286 NA
HETATM   27  H   UNL     1      24.964  45.554  49.492  1.00  0.00     0.125 HD
HETATM   28  H   UNL     1      25.986  45.391  48.184  1.00  0.00     0.125 HD
ENDBRANCH   2  26
BRANCH   1  29
HETATM   29  C   UNL     1      23.804  42.750  48.702  1.00  0.00     0.257 C 
HETATM   30  N   UNL     1      23.590  43.783  47.808  1.00  0.00    -0.357 N 
HETATM   31  H   UNL     1      24.387  44.387  47.636  1.00  0.00     0.162 HD
HETATM   32  O   UNL     1      22.906  42.036  49.128  1.00  0.00    -0.267 OA
BRANCH  30  33
HETATM   33  C   UNL     1      22.285  44.301  47.460  1.00  0.00     0.123 C 
BRANCH  33  34
HETATM   34  C   UNL     1      21.763  45.156  48.616  1.00  0.00     0.023 C 
BRANCH  34  35
HETATM   35  C   UNL     1      21.555  46.639  48.280  1.00  0.00    -0.021 C 
HETATM   36  C   UNL     1      21.164  46.848  46.819  1.00  0.00     0.009 C 
HETATM   37  C   UNL     1      22.837  47.419  48.593  1.00  0.00     0.009 C 
ENDBRANCH  34  35
ENDBRANCH  33  34
ENDBRANCH  30  33
ENDBRANCH   1  29
TORSDOF 7
ENDMDL
MODEL 8
REMARK VINA RESULT:      -9.3      3.992      8.365
REMARK  7 active torsions:
REMARK  status: ('A' for Active; 'I' for Inactive)
REMARK    1  A    between atoms: C_2  and  C_3 
REMARK    2  A    between atoms: C_3  and  C_4 
REMARK    3  A    between atoms: C_4  and  N_5 
REMARK       I    between atoms: N_5  and  C_6 
REMARK    4  A    between atoms: C_6  and  C_7 
REMARK    5  A    between atoms: C_8  and  N_9 
REMARK    6  A    between atoms: N_10  and  N_11 
REMARK    7  A    between atoms: C_12  and  C_13 
ROOT
HETATM    1  C   UNL     1      25.314  42.329  49.220  1.00  0.00     0.104 C 
HETATM    2  C   UNL     1      26.043  43.485  49.475  1.00  0.00     0.123 C 
HETATM    3  N   UNL     1      27.082  43.131  50.336  1.00  0.00    -0.202 N 
HETATM    4  C   UNL     1      27.330  41.787  50.141  1.00  0.00     0.183 A 
HETATM    5  C   UNL     1      26.201  41.255  49.518  1.00  0.00     0.124 A 
HETATM    6  N   UNL     1      26.079  39.916  49.328  1.00  0.00    -0.242 NA
HETATM    7  C   UNL     1      27.138  39.189  49.721  1.00  0.00     0.086 A 
HETATM    8  C   UNL     1      28.288  39.765  50.327  1.00  0.00     0.088 A 
HETATM    9  N   UNL     1      28.395  41.078  50.579  1.00  0.00    -0.225 NA
HETATM   10  C   UNL     1      27.109  37.815  49.519  1.00  0.00     0.034 A 
HETATM   11  C   UNL     1      28.182  36.997  49.880  1.00  0.00     0.002 A 
HETATM   12  C   UNL     1      29.308  37.564  50.458  1.00  0.00     0.002 A 
HETATM   13  C   UNL     1      29.348  38.940  50.678  1.00  0.00     0.034 A 
ENDROOT
BRANCH   3  14
HETATM   14  N   UNL     1      27.704  43.933  51.269  1.00  0.00    -0.176 NA
HETATM   15  C   UNL     1      27.078  43.947  52.401  1.00  0.00     0.153 C 
BRANCH  15  16
HETATM   16  C   UNL     1      27.569  44.683  53.542  1.00  0.00     0.011 A 
HETATM   17  C   UNL     1      28.705  44.330  54.339  1.00  0.00     0.004 A 
HETATM   18  C   UNL     1      28.909  45.365  55.250  1.00  0.00     0.043 A 
HETATM   19  C   UNL     1      29.586  43.226  54.359  1.00  0.00     0.014 A 
HETATM   20  C   UNL     1      29.969  45.365  56.166  1.00  0.00     0.030 A 
HETATM   21  N   UNL     1      27.914  46.292  55.038  1.00  0.00    -0.364 N 
HETATM   22  C   UNL     1      30.830  44.262  56.164  1.00  0.00     0.002 A 
HETATM   23  C   UNL     1      30.640  43.202  55.281  1.00  0.00     0.001 A 
HETATM   24  H   UNL     1      27.820  47.159  55.550  1.00  0.00     0.165 HD
HETATM   25  C   UNL     1      27.089  45.882  54.025  1.00  0.00     0.102 A 
ENDBRANCH  15  16
ENDBRANCH   3  14
BRANCH   2  26
HETATM   26  N   UNL     1      25.805  44.789  49.123  1.00  0.00    -0.286 NA
HETATM   27  H   UNL     1      25.508  44.954  48.157  1.00  0.00     0.125 HD
HETATM   28  H   UNL     1      26.538  45.464  49.366  1.00  0.00     0.125 HD
ENDBRANCH   2  26
BRANCH   1  29
HETATM   29  C   UNL     1      23.928  42.287  48.766  1.00  0.00     0.257 C 
HETATM   30  N   UNL     1      23.530  41.005  48.434  1.00  0.00    -0.357 N 
HETATM   31  H   UNL     1      24.252  40.294  48.483  1.00  0.00     0.162 HD
HETATM   32  O   UNL     1      23.218  43.271  48.608  1.00  0.00    -0.267 OA
BRANCH  30  33
HETATM   33  C   UNL     1      22.354  40.695  47.650  1.00  0.00     0.123 C 
BRANCH  33  34
HETATM   34  C   UNL     1      22.717  39.639  46.604  1.00  0.00     0.023 C 
BRANCH  34  35
HETATM   35  C   UNL     1      24.223  39.446  46.378  1.00  0.00    -0.021 C 
HETATM   36  C   UNL     1      24.676  39.986  45.024  1.00  0.00     0.009 C 
HETATM   37  C   UNL     1      24.568  37.956  46.487  1.00  0.00     0.009 C 
ENDBRANCH  34  35
ENDBRANCH  33  34
ENDBRANCH  30  33
ENDBRANCH   1  29
TORSDOF 7
ENDMDL
MODEL 9
REMARK VINA RESULT:      -9.3      2.485      8.071
REMARK  7 active torsions:
REMARK  status: ('A' for Active; 'I' for Inactive)
REMARK    1  A    between atoms: C_2  and  C_3 
REMARK    2  A    between atoms: C_3  and  C_4 
REMARK    3  A    between atoms: C_4  and  N_5 
REMARK       I    between atoms: N_5  and  C_6 
REMARK    4  A    between atoms: C_6  and  C_7 
REMARK    5  A    between atoms: C_8  and  N_9 
REMARK    6  A    between atoms: N_10  and  N_11 
REMARK    7  A    between atoms: C_12  and  C_13 
ROOT
HETATM    1  C   UNL     1      24.074  44.795  49.213  1.00  0.00     0.104 C 
HETATM    2  C   UNL     1      24.962  45.751  49.696  1.00  0.00     0.123 C 
HETATM    3  N   UNL     1      26.056  45.062  50.224  1.00  0.00    -0.202 N 
HETATM    4  C   UNL     1      26.116  43.842  49.579  1.00  0.00     0.183 A 
HETATM    5  C   UNL     1      24.860  43.624  49.012  1.00  0.00     0.124 A 
HETATM    6  N   UNL     1      24.558  42.433  48.434  1.00  0.00    -0.242 NA
HETATM    7  C   UNL     1      25.565  41.545  48.403  1.00  0.00     0.086 A 
HETATM    8  C   UNL     1      26.844  41.810  48.965  1.00  0.00     0.088 A 
HETATM    9  N   UNL     1      27.138  42.957  49.595  1.00  0.00    -0.225 NA
HETATM   10  C   UNL     1      25.349  40.319  47.788  1.00  0.00     0.034 A 
HETATM   11  C   UNL     1      26.356  39.356  47.696  1.00  0.00     0.002 A 
HETATM   12  C   UNL     1      27.607  39.622  48.233  1.00  0.00     0.002 A 
HETATM   13  C   UNL     1      27.837  40.844  48.864  1.00  0.00     0.034 A 
ENDROOT
BRANCH   3  14
HETATM   14  N   UNL     1      26.883  45.469  51.247  1.00  0.00    -0.176 NA
HETATM   15  C   UNL     1      26.493  45.032  52.400  1.00  0.00     0.153 C 
BRANCH  15  16
HETATM   16  C   UNL     1      27.230  45.294  53.613  1.00  0.00     0.011 A 
HETATM   17  C   UNL     1      28.379  44.570  54.066  1.00  0.00     0.004 A 
HETATM   18  C   UNL     1      28.859  45.222  55.202  1.00  0.00     0.043 A 
HETATM   19  C   UNL     1      29.064  43.423  53.604  1.00  0.00     0.014 A 
HETATM   20  C   UNL     1      30.005  44.799  55.886  1.00  0.00     0.030 A 
HETATM   21  N   UNL     1      28.011  46.278  55.448  1.00  0.00    -0.364 N 
HETATM   22  C   UNL     1      30.666  43.662  55.407  1.00  0.00     0.002 A 
HETATM   23  C   UNL     1      30.201  42.977  54.287  1.00  0.00     0.001 A 
HETATM   24  H   UNL     1      28.122  46.936  56.207  1.00  0.00     0.165 HD
HETATM   25  C   UNL     1      27.015  46.319  54.510  1.00  0.00     0.102 A 
ENDBRANCH  15  16
ENDBRANCH   3  14
BRANCH   2  26
HETATM   26  N   UNL     1      24.836  47.110  49.814  1.00  0.00    -0.286 NA
HETATM   27  H   UNL     1      24.838  47.487  50.767  1.00  0.00     0.125 HD
HETATM   28  H   UNL     1      24.068  47.541  49.288  1.00  0.00     0.125 HD
ENDBRANCH   2  26
BRANCH   1  29
HETATM   29  C   UNL     1      22.646  45.000  48.999  1.00  0.00     0.257 C 
HETATM   30  N   UNL     1      22.379  46.227  48.418  1.00  0.00    -0.357 N 
HETATM   31  H   UNL     1      23.182  46.833  48.283  1.00  0.00     0.162 HD
HETATM   32  O   UNL     1      21.771  44.228  49.365  1.00  0.00    -0.267 OA
BRANCH  30  33
HETATM   33  C   UNL     1      21.073  46.849  48.393  1.00  0.00     0.123 C 
BRANCH  33  34
HETATM   34  C   UNL     1      21.202  48.250  47.793  1.00  0.00     0.023 C 
BRANCH  34  35
HETATM   35  C   UNL     1      21.982  49.253  48.655  1.00  0.00    -0.021 C 
HETATM   36  C   UNL     1      21.059  50.218  49.393  1.00  0.00     0.009 C 
HETATM   37  C   UNL     1      22.956  50.037  47.768  1.00  0.00     0.009 C 
ENDBRANCH  34  35
ENDBRANCH  33  34
ENDBRANCH  30  33
ENDBRANCH   1  29
TORSDOF 7
ENDMDL
MODEL 10
REMARK VINA RESULT:      -9.2      2.824      8.153
REMARK  7 active torsions:
REMARK  status: ('A' for Active; 'I' for Inactive)
REMARK    1  A    between atoms: C_2  and  C_3 
REMARK    2  A    between atoms: C_3  and  C_4 
REMARK    3  A    between atoms: C_4  and  N_5 
REMARK       I    between atoms: N_5  and  C_6 
REMARK    4  A    between atoms: C_6  and  C_7 
REMARK    5  A    between atoms: C_8  and  N_9 
REMARK    6  A    between atoms: N_10  and  N_11 
REMARK    7  A    between atoms: C_12  and  C_13 
ROOT
HETATM    1  C   UNL     1      25.463  42.641  50.813  1.00  0.00     0.104 C 
HETATM    2  C   UNL     1      26.235  43.434  51.655  1.00  0.00     0.123 C 
HETATM    3  N   UNL     1      27.211  42.607  52.213  1.00  0.00    -0.202 N 
HETATM    4  C   UNL     1      27.402  41.557  51.336  1.00  0.00     0.183 A 
HETATM    5  C   UNL     1      26.281  41.515  50.508  1.00  0.00     0.124 A 
HETATM    6  N   UNL     1      26.103  40.492  49.633  1.00  0.00    -0.242 NA
HETATM    7  C   UNL     1      27.103  39.597  49.596  1.00  0.00     0.086 A 
HETATM    8  C   UNL     1      28.249  39.685  50.434  1.00  0.00     0.088 A 
HETATM    9  N   UNL     1      28.408  40.654  51.347  1.00  0.00    -0.225 NA
HETATM   10  C   UNL     1      27.018  38.544  48.693  1.00  0.00     0.034 A 
HETATM   11  C   UNL     1      28.029  37.589  48.581  1.00  0.00     0.002 A 
HETATM   12  C   UNL     1      29.152  37.685  49.390  1.00  0.00     0.002 A 
HETATM   13  C   UNL     1      29.249  38.729  50.309  1.00  0.00     0.034 A 
ENDROOT
BRANCH   3  14
HETATM   14  N   UNL     1      27.824  42.748  53.439  1.00  0.00    -0.176 NA
HETATM   15  C   UNL     1      28.957  43.367  53.355  1.00  0.00     0.153 C 
BRANCH  15  16
HETATM   16  C   UNL     1      29.756  43.670  54.519  1.00  0.00     0.011 A 
HETATM   17  C   UNL     1      29.442  44.645  55.518  1.00  0.00     0.004 A 
HETATM   18  C   UNL     1      30.399  44.530  56.526  1.00  0.00     0.043 A 
HETATM   19  C   UNL     1      28.420  45.610  55.663  1.00  0.00     0.014 A 
HETATM   20  C   UNL     1      30.371  45.315  57.685  1.00  0.00     0.030 A 
HETATM   21  N   UNL     1      31.280  43.547  56.134  1.00  0.00    -0.364 N 
HETATM   22  C   UNL     1      29.347  46.261  57.806  1.00  0.00     0.002 A 
HETATM   23  C   UNL     1      28.388  46.415  56.808  1.00  0.00     0.001 A 
HETATM   24  H   UNL     1      32.074  43.240  56.678  1.00  0.00     0.165 HD
HETATM   25  C   UNL     1      30.914  43.037  54.917  1.00  0.00     0.102 A 
ENDBRANCH  15  16
ENDBRANCH   3  14
BRANCH   2  26
HETATM   26  N   UNL     1      26.079  44.738  52.048  1.00  0.00    -0.286 NA
HETATM   27  H   UNL     1      25.288  45.245  51.642  1.00  0.00     0.125 HD
HETATM   28  H   UNL     1      26.915  45.330  51.995  1.00  0.00     0.125 HD
ENDBRANCH   2  26
BRANCH   1  29
HETATM   29  C   UNL     1      24.101  42.940  50.384  1.00  0.00     0.257 C 
HETATM   30  N   UNL     1      23.894  42.620  49.055  1.00  0.00    -0.357 N 
HETATM   31  H   UNL     1      24.710  42.291  48.549  1.00  0.00     0.162 HD
HETATM   32  O   UNL     1      23.259  43.492  51.079  1.00  0.00    -0.267 OA
BRANCH  30  33
HETATM   33  C   UNL     1      22.780  43.100  48.265  1.00  0.00     0.123 C 
BRANCH  33  34
HETATM   34  C   UNL     1      23.146  44.460  47.666  1.00  0.00     0.023 C 
BRANCH  34  35
HETATM   35  C   UNL     1      22.486  45.665  48.350  1.00  0.00    -0.021 C 
HETATM   36  C   UNL     1      21.814  46.599  47.346  1.00  0.00     0.009 C 
HETATM   37  C   UNL     1      23.540  46.436  49.154  1.00  0.00     0.009 C 
ENDBRANCH  34  35
ENDBRANCH  33  34
ENDBRANCH  30  33
ENDBRANCH   1  29
TORSDOF 7
ENDMDL
