MODEL 1
REMARK VINA RESULT:      -9.5      0.000      0.000
REMARK  6 active torsions:
REMARK  status: ('A' for Active; 'I' for Inactive)
REMARK    1  A    between atoms: C_6  and  C_7 
REMARK    2  A    between atoms: C_7  and  N_8 
REMARK    3  A    between atoms: C_12  and  C_13 
REMARK    4  A    between atoms: C_13  and  C_14 
REMARK    5  A    between atoms: N_23  and  C_24 
REMARK    6  A    between atoms: C_24  and  C_25 
ROOT
HETATM    1  C   UNL     1      25.257  43.632  49.957  1.00  0.00     0.164 C 
HETATM    2  N   UNL     1      26.548  44.108  49.495  1.00  0.00    -0.319 N 
HETATM    3  C   UNL     1      26.651  45.480  49.583  1.00  0.00     0.326 C 
HETATM    4  O   UNL     1      27.607  46.089  49.137  1.00  0.00    -0.247 OA
HETATM    5  N   UNL     1      25.551  45.969  50.207  1.00  0.00    -0.265 N 
HETATM    6  C   UNL     1      24.608  44.985  50.343  1.00  0.00     0.263 C 
HETATM    7  O   UNL     1      23.461  45.139  50.736  1.00  0.00    -0.270 OA
HETATM    8  H   UNL     1      27.076  43.660  48.754  1.00  0.00     0.166 HD
ENDROOT
BRANCH   1   9
HETATM    9  C   UNL     1      25.388  42.757  51.270  1.00  0.00     0.033 C 
HETATM   10  C   UNL     1      25.428  43.553  52.598  1.00  0.00     0.036 C 
HETATM   11  C   UNL     1      26.751  44.260  52.884  1.00  0.00     0.235 C 
HETATM   12  N   UNL     1      27.889  43.264  52.846  1.00  0.00    -0.067 N 
HETATM   13  H   UNL     1      27.753  42.641  53.649  1.00  0.00     0.280 HD
HETATM   14  C   UNL     1      27.917  42.418  51.598  1.00  0.00     0.235 C 
HETATM   15  C   UNL     1      26.573  41.770  51.329  1.00  0.00     0.036 C 
BRANCH  12  16
HETATM   16  C   UNL     1      29.262  43.905  53.033  1.00  0.00     0.273 C 
BRANCH  16  17
HETATM   17  C   UNL     1      29.715  44.133  54.452  1.00  0.00    -0.027 A 
HETATM   18  C   UNL     1      29.293  45.260  55.194  1.00  0.00    -0.054 A 
HETATM   19  C   UNL     1      29.752  45.429  56.511  1.00  0.00     0.014 A 
HETATM   20  C   UNL     1      28.374  46.311  54.624  1.00  0.00     0.049 C 
HETATM   21  C   UNL     1      30.631  44.514  57.098  1.00  0.00    -0.061 A 
HETATM   22  C   UNL     1      31.085  44.715  58.515  1.00  0.00     0.048 C 
HETATM   23  C   UNL     1      31.044  43.404  56.362  1.00  0.00     0.007 A 
HETATM   24  C   UNL     1      30.602  43.219  55.050  1.00  0.00     0.010 A 
ENDBRANCH  16  17
ENDBRANCH  12  16
ENDBRANCH   1   9
BRANCH   1  25
HETATM   25  C   UNL     1      24.475  42.995  48.802  1.00  0.00     0.072 A 
HETATM   26  N   UNL     1      24.019  43.808  47.818  1.00  0.00    -0.262 NA
HETATM   27  C   UNL     1      23.301  43.254  46.812  1.00  0.00     0.117 A 
HETATM   28  C   UNL     1      22.980  41.913  46.745  1.00  0.00     0.019 A 
HETATM   29  C   UNL     1      23.425  41.085  47.764  1.00  0.00     0.003 A 
HETATM   30  C   UNL     1      24.179  41.626  48.803  1.00  0.00     0.030 A 
ENDBRANCH   1  25
BRANCH   5  31
HETATM   31  C   UNL     1      25.341  47.372  50.536  1.00  0.00     0.168 C 
BRANCH  31  32
HETATM   32  C   UNL     1      24.739  48.156  49.365  1.00  0.00     0.140 C 
HETATM   33  O   UNL     1      23.564  48.890  49.780  1.00  0.00    -0.384 OA
HETATM   34  C   UNL     1      23.472  50.062  48.943  1.00  0.00     0.168 C 
HETATM   35  C   UNL     1      24.695  50.082  48.045  1.00  0.00     0.029 C 
HETATM   36  C   UNL     1      25.671  49.208  48.793  1.00  0.00     0.036 C 
ENDBRANCH  31  32
ENDBRANCH   5  31
TORSDOF 6
ENDMDL
MODEL 2
REMARK VINA RESULT:      -9.4      2.332      5.271
REMARK  6 active torsions:
REMARK  status: ('A' for Active; 'I' for Inactive)
REMARK    1  A    between atoms: C_6  and  C_7 
REMARK    2  A    between atoms: C_7  and  N_8 
REMARK    3  A    between atoms: C_12  and  C_13 
REMARK    4  A    between atoms: C_13  and  C_14 
REMARK    5  A    between atoms: N_23  and  C_24 
REMARK    6  A    between atoms: C_24  and  C_25 
ROOT
HETATM    1  C   UNL     1      23.651  45.265  49.303  1.00  0.00     0.164 C 
HETATM    2  N   UNL     1      23.168  44.516  50.450  1.00  0.00    -0.319 N 
HETATM    3  C   UNL     1      23.064  43.169  50.176  1.00  0.00     0.326 C 
HETATM    4  O   UNL     1      22.567  42.383  50.963  1.00  0.00    -0.247 OA
HETATM    5  N   UNL     1      23.576  42.924  48.944  1.00  0.00    -0.265 N 
HETATM    6  C   UNL     1      23.819  44.103  48.292  1.00  0.00     0.263 C 
HETATM    7  O   UNL     1      24.150  44.221  47.121  1.00  0.00    -0.270 OA
HETATM    8  H   UNL     1      22.516  44.893  51.129  1.00  0.00     0.166 HD
ENDROOT
BRANCH   1   9
HETATM    9  C   UNL     1      25.079  45.894  49.571  1.00  0.00     0.033 C 
HETATM   10  C   UNL     1      26.261  44.894  49.553  1.00  0.00     0.036 C 
HETATM   11  C   UNL     1      26.371  44.007  50.791  1.00  0.00     0.235 C 
HETATM   12  N   UNL     1      26.440  44.862  52.036  1.00  0.00    -0.067 N 
HETATM   13  H   UNL     1      27.337  45.359  51.995  1.00  0.00     0.280 HD
HETATM   14  C   UNL     1      25.342  45.892  52.131  1.00  0.00     0.235 C 
HETATM   15  C   UNL     1      25.240  46.721  50.865  1.00  0.00     0.036 C 
BRANCH  12  16
HETATM   16  C   UNL     1      26.462  44.051  53.329  1.00  0.00     0.273 C 
BRANCH  16  17
HETATM   17  C   UNL     1      27.765  44.014  54.084  1.00  0.00    -0.027 A 
HETATM   18  C   UNL     1      28.588  42.865  54.088  1.00  0.00    -0.054 A 
HETATM   19  C   UNL     1      29.790  42.881  54.816  1.00  0.00     0.014 A 
HETATM   20  C   UNL     1      28.223  41.600  53.352  1.00  0.00     0.049 C 
HETATM   21  C   UNL     1      30.181  44.005  55.550  1.00  0.00    -0.061 A 
HETATM   22  C   UNL     1      31.482  43.994  56.299  1.00  0.00     0.048 C 
HETATM   23  C   UNL     1      29.365  45.136  55.543  1.00  0.00     0.007 A 
HETATM   24  C   UNL     1      28.165  45.139  54.828  1.00  0.00     0.010 A 
ENDBRANCH  16  17
ENDBRANCH  12  16
ENDBRANCH   1   9
BRANCH   1  25
HETATM   25  C   UNL     1      22.574  46.233  48.803  1.00  0.00     0.072 A 
HETATM   26  N   UNL     1      21.350  45.729  48.513  1.00  0.00    -0.262 NA
HETATM   27  C   UNL     1      20.404  46.576  48.041  1.00  0.00     0.117 A 
HETATM   28  C   UNL     1      20.622  47.920  47.808  1.00  0.00     0.019 A 
HETATM   29  C   UNL     1      21.881  48.431  48.081  1.00  0.00     0.003 A 
HETATM   30  C   UNL     1      22.868  47.585  48.583  1.00  0.00     0.030 A 
ENDBRANCH   1  25
BRANCH   5  31
HETATM   31  C   UNL     1      23.695  41.603  48.345  1.00  0.00     0.168 C 
BRANCH  31  32
HETATM   32  C   UNL     1      25.135  41.078  48.386  1.00  0.00     0.140 C 
HETATM   33  O   UNL     1      25.512  40.698  49.729  1.00  0.00    -0.384 OA
HETATM   34  C   UNL     1      26.488  39.642  49.619  1.00  0.00     0.168 C 
HETATM   35  C   UNL     1      26.638  39.307  48.147  1.00  0.00     0.029 C 
HETATM   36  C   UNL     1      25.352  39.827  47.555  1.00  0.00     0.036 C 
ENDBRANCH  31  32
ENDBRANCH   5  31
TORSDOF 6
ENDMDL
MODEL 3
REMARK VINA RESULT:      -8.9      6.016     10.190
REMARK  6 active torsions:
REMARK  status: ('A' for Active; 'I' for Inactive)
REMARK    1  A    between atoms: C_6  and  C_7 
REMARK    2  A    between atoms: C_7  and  N_8 
REMARK    3  A    between atoms: C_12  and  C_13 
REMARK    4  A    between atoms: C_13  and  C_14 
REMARK    5  A    between atoms: N_23  and  C_24 
REMARK    6  A    between atoms: C_24  and  C_25 
ROOT
HETATM    1  C   UNL     1      17.941  50.759  48.685  1.00  0.00     0.164 C 
HETATM    2  N   UNL     1      18.361  50.139  49.930  1.00  0.00    -0.319 N 
HETATM    3  C   UNL     1      18.023  48.803  49.977  1.00  0.00     0.326 C 
HETATM    4  O   UNL     1      18.179  48.129  50.979  1.00  0.00    -0.247 OA
HETATM    5  N   UNL     1      17.511  48.431  48.777  1.00  0.00    -0.265 N 
HETATM    6  C   UNL     1      17.290  49.534  47.996  1.00  0.00     0.263 C 
HETATM    7  O   UNL     1      16.711  49.547  46.919  1.00  0.00    -0.270 OA
HETATM    8  H   UNL     1      18.392  50.630  50.816  1.00  0.00     0.166 HD
ENDROOT
BRANCH   1   9
HETATM    9  C   UNL     1      19.178  51.217  47.810  1.00  0.00     0.033 C 
HETATM   10  C   UNL     1      19.693  50.173  46.788  1.00  0.00     0.036 C 
HETATM   11  C   UNL     1      20.491  49.021  47.393  1.00  0.00     0.235 C 
HETATM   12  N   UNL     1      21.648  49.561  48.203  1.00  0.00    -0.067 N 
HETATM   13  H   UNL     1      22.292  49.994  47.531  1.00  0.00     0.280 HD
HETATM   14  C   UNL     1      21.250  50.610  49.211  1.00  0.00     0.235 C 
HETATM   15  C   UNL     1      20.423  51.712  48.577  1.00  0.00     0.036 C 
BRANCH  12  16
HETATM   16  C   UNL     1      22.447  48.474  48.918  1.00  0.00     0.273 C 
BRANCH  16  17
HETATM   17  C   UNL     1      23.941  48.663  48.980  1.00  0.00    -0.027 A 
HETATM   18  C   UNL     1      24.771  47.774  49.701  1.00  0.00    -0.054 A 
HETATM   19  C   UNL     1      26.157  48.001  49.734  1.00  0.00     0.014 A 
HETATM   20  C   UNL     1      24.229  46.589  50.459  1.00  0.00     0.049 C 
HETATM   21  C   UNL     1      26.731  49.096  49.082  1.00  0.00    -0.061 A 
HETATM   22  C   UNL     1      28.219  49.295  49.121  1.00  0.00     0.048 C 
HETATM   23  C   UNL     1      25.908  49.970  48.372  1.00  0.00     0.007 A 
HETATM   24  C   UNL     1      24.527  49.764  48.330  1.00  0.00     0.010 A 
ENDBRANCH  16  17
ENDBRANCH  12  16
ENDBRANCH   1   9
BRANCH   1  25
HETATM   25  C   UNL     1      16.876  51.828  48.952  1.00  0.00     0.072 A 
HETATM   26  N   UNL     1      16.870  52.432  50.166  1.00  0.00    -0.262 NA
HETATM   27  C   UNL     1      15.911  53.355  50.417  1.00  0.00     0.117 A 
HETATM   28  C   UNL     1      14.918  53.696  49.520  1.00  0.00     0.019 A 
HETATM   29  C   UNL     1      14.908  53.060  48.288  1.00  0.00     0.003 A 
HETATM   30  C   UNL     1      15.893  52.118  47.997  1.00  0.00     0.030 A 
ENDBRANCH   1  25
BRANCH   5  31
HETATM   31  C   UNL     1      17.106  47.075  48.434  1.00  0.00     0.168 C 
BRANCH  31  32
HETATM   32  C   UNL     1      18.135  46.374  47.541  1.00  0.00     0.140 C 
HETATM   33  O   UNL     1      18.284  44.984  47.913  1.00  0.00    -0.384 OA
HETATM   34  C   UNL     1      18.656  44.258  46.723  1.00  0.00     0.168 C 
HETATM   35  C   UNL     1      18.641  45.238  45.565  1.00  0.00     0.029 C 
HETATM   36  C   UNL     1      17.749  46.342  46.074  1.00  0.00     0.036 C 
ENDBRANCH  31  32
ENDBRANCH   5  31
TORSDOF 6
ENDMDL
MODEL 4
REMARK VINA RESULT:      -8.8      2.145      4.986
REMARK  6 active torsions:
REMARK  status: ('A' for Active; 'I' for Inactive)
REMARK    1  A    between atoms: C_6  and  C_7 
REMARK    2  A    between atoms: C_7  and  N_8 
REMARK    3  A    between atoms: C_12  and  C_13 
REMARK    4  A    between atoms: C_13  and  C_14 
REMARK    5  A    between atoms: N_23  and  C_24 
REMARK    6  A    between atoms: C_24  and  C_25 
ROOT
HETATM    1  C   UNL     1      23.698  45.578  49.309  1.00  0.00     0.164 C 
HETATM    2  N   UNL     1      23.218  44.788  50.429  1.00  0.00    -0.319 N 
HETATM    3  C   UNL     1      22.948  43.487  50.061  1.00  0.00     0.326 C 
HETATM    4  O   UNL     1      22.426  42.692  50.822  1.00  0.00    -0.247 OA
HETATM    5  N   UNL     1      23.343  43.297  48.777  1.00  0.00    -0.265 N 
HETATM    6  C   UNL     1      23.666  44.496  48.200  1.00  0.00     0.263 C 
HETATM    7  O   UNL     1      23.924  44.679  47.020  1.00  0.00    -0.270 OA
HETATM    8  H   UNL     1      22.660  45.170  51.184  1.00  0.00     0.166 HD
ENDROOT
BRANCH   1   9
HETATM    9  C   UNL     1      25.201  46.033  49.511  1.00  0.00     0.033 C 
HETATM   10  C   UNL     1      26.245  44.890  49.522  1.00  0.00     0.036 C 
HETATM   11  C   UNL     1      26.277  44.061  50.804  1.00  0.00     0.235 C 
HETATM   12  N   UNL     1      26.490  44.963  51.999  1.00  0.00    -0.067 N 
HETATM   13  H   UNL     1      27.441  45.338  51.911  1.00  0.00     0.280 HD
HETATM   14  C   UNL     1      25.534  46.129  52.061  1.00  0.00     0.235 C 
HETATM   15  C   UNL     1      25.502  46.898  50.754  1.00  0.00     0.036 C 
BRANCH  12  16
HETATM   16  C   UNL     1      26.445  44.223  53.333  1.00  0.00     0.273 C 
BRANCH  16  17
HETATM   17  C   UNL     1      27.748  44.092  54.078  1.00  0.00    -0.027 A 
HETATM   18  C   UNL     1      28.529  42.916  54.006  1.00  0.00    -0.054 A 
HETATM   19  C   UNL     1      29.732  42.842  54.727  1.00  0.00     0.014 A 
HETATM   20  C   UNL     1      28.118  41.715  53.191  1.00  0.00     0.049 C 
HETATM   21  C   UNL     1      30.165  43.902  55.530  1.00  0.00    -0.061 A 
HETATM   22  C   UNL     1      31.467  43.797  56.271  1.00  0.00     0.048 C 
HETATM   23  C   UNL     1      29.391  45.060  55.599  1.00  0.00     0.007 A 
HETATM   24  C   UNL     1      28.190  45.152  54.891  1.00  0.00     0.010 A 
ENDBRANCH  16  17
ENDBRANCH  12  16
ENDBRANCH   1   9
BRANCH   1  25
HETATM   25  C   UNL     1      22.699  46.692  48.972  1.00  0.00     0.072 A 
HETATM   26  N   UNL     1      21.465  46.331  48.543  1.00  0.00    -0.262 NA
HETATM   27  C   UNL     1      20.590  47.312  48.215  1.00  0.00     0.117 A 
HETATM   28  C   UNL     1      20.892  48.659  48.261  1.00  0.00     0.019 A 
HETATM   29  C   UNL     1      22.162  49.027  48.677  1.00  0.00     0.003 A 
HETATM   30  C   UNL     1      23.076  48.039  49.036  1.00  0.00     0.030 A 
ENDBRANCH   1  25
BRANCH   5  31
HETATM   31  C   UNL     1      23.275  42.026  48.070  1.00  0.00     0.168 C 
BRANCH  31  32
HETATM   32  C   UNL     1      22.022  41.919  47.195  1.00  0.00     0.140 C 
HETATM   33  O   UNL     1      21.152  43.058  47.390  1.00  0.00    -0.384 OA
HETATM   34  C   UNL     1      20.436  43.269  46.156  1.00  0.00     0.168 C 
HETATM   35  C   UNL     1      20.965  42.271  45.142  1.00  0.00     0.029 C 
HETATM   36  C   UNL     1      22.316  41.908  45.706  1.00  0.00     0.036 C 
ENDBRANCH  31  32
ENDBRANCH   5  31
TORSDOF 6
ENDMDL
MODEL 5
REMARK VINA RESULT:      -8.7     10.764     14.185
REMARK  6 active torsions:
REMARK  status: ('A' for Active; 'I' for Inactive)
REMARK    1  A    between atoms: C_6  and  C_7 
REMARK    2  A    between atoms: C_7  and  N_8 
REMARK    3  A    between atoms: C_12  and  C_13 
REMARK    4  A    between atoms: C_13  and  C_14 
REMARK    5  A    between atoms: N_23  and  C_24 
REMARK    6  A    between atoms: C_24  and  C_25 
ROOT
HETATM    1  C   UNL     1      28.211  47.975  40.022  1.00  0.00     0.164 C 
HETATM    2  N   UNL     1      28.424  47.699  38.613  1.00  0.00    -0.319 N 
HETATM    3  C   UNL     1      28.046  46.416  38.277  1.00  0.00     0.326 C 
HETATM    4  O   UNL     1      28.251  45.946  37.173  1.00  0.00    -0.247 OA
HETATM    5  N   UNL     1      27.457  45.831  39.351  1.00  0.00    -0.265 N 
HETATM    6  C   UNL     1      27.629  46.609  40.465  1.00  0.00     0.263 C 
HETATM    7  O   UNL     1      27.338  46.296  41.610  1.00  0.00    -0.270 OA
HETATM    8  H   UNL     1      29.179  48.105  38.072  1.00  0.00     0.166 HD
ENDROOT
BRANCH   1   9
HETATM    9  C   UNL     1      27.098  49.079  40.244  1.00  0.00     0.033 C 
HETATM   10  C   UNL     1      26.566  49.755  38.957  1.00  0.00     0.036 C 
HETATM   11  C   UNL     1      27.514  50.773  38.327  1.00  0.00     0.235 C 
HETATM   12  N   UNL     1      27.891  51.828  39.344  1.00  0.00    -0.067 N 
HETATM   13  H   UNL     1      27.035  52.360  39.538  1.00  0.00     0.280 HD
HETATM   14  C   UNL     1      28.396  51.264  40.648  1.00  0.00     0.235 C 
HETATM   15  C   UNL     1      27.446  50.227  41.216  1.00  0.00     0.036 C 
BRANCH  12  16
HETATM   16  C   UNL     1      28.909  52.837  38.820  1.00  0.00     0.273 C 
BRANCH  16  17
HETATM   17  C   UNL     1      30.362  52.456  38.938  1.00  0.00    -0.027 A 
HETATM   18  C   UNL     1      31.189  52.991  39.953  1.00  0.00    -0.054 A 
HETATM   19  C   UNL     1      32.540  52.609  40.013  1.00  0.00     0.014 A 
HETATM   20  C   UNL     1      30.686  53.977  40.977  1.00  0.00     0.049 C 
HETATM   21  C   UNL     1      33.087  51.723  39.079  1.00  0.00    -0.061 A 
HETATM   22  C   UNL     1      34.530  51.321  39.186  1.00  0.00     0.048 C 
HETATM   23  C   UNL     1      32.267  51.199  38.080  1.00  0.00     0.007 A 
HETATM   24  C   UNL     1      30.923  51.569  38.002  1.00  0.00     0.010 A 
ENDBRANCH  16  17
ENDBRANCH  12  16
ENDBRANCH   1   9
BRANCH   1  25
HETATM   25  C   UNL     1      29.549  48.219  40.729  1.00  0.00     0.072 A 
HETATM   26  N   UNL     1      29.538  48.386  42.074  1.00  0.00    -0.262 NA
HETATM   27  C   UNL     1      30.714  48.634  42.698  1.00  0.00     0.117 A 
HETATM   28  C   UNL     1      31.922  48.756  42.040  1.00  0.00     0.019 A 
HETATM   29  C   UNL     1      31.931  48.610  40.662  1.00  0.00     0.003 A 
HETATM   30  C   UNL     1      30.737  48.339  39.997  1.00  0.00     0.030 A 
ENDBRANCH   1  25
BRANCH   5  31
HETATM   31  C   UNL     1      26.872  44.498  39.350  1.00  0.00     0.168 C 
BRANCH  31  32
HETATM   32  C   UNL     1      27.915  43.410  39.626  1.00  0.00     0.140 C 
HETATM   33  O   UNL     1      27.914  43.031  41.021  1.00  0.00    -0.384 OA
HETATM   34  C   UNL     1      28.330  41.651  41.093  1.00  0.00     0.168 C 
HETATM   35  C   UNL     1      28.501  41.150  39.671  1.00  0.00     0.029 C 
HETATM   36  C   UNL     1      27.661  42.117  38.873  1.00  0.00     0.036 C 
ENDBRANCH  31  32
ENDBRANCH   5  31
TORSDOF 6
ENDMDL
MODEL 6
REMARK VINA RESULT:      -8.6      3.521      7.297
REMARK  6 active torsions:
REMARK  status: ('A' for Active; 'I' for Inactive)
REMARK    1  A    between atoms: C_6  and  C_7 
REMARK    2  A    between atoms: C_7  and  N_8 
REMARK    3  A    between atoms: C_12  and  C_13 
REMARK    4  A    between atoms: C_13  and  C_14 
REMARK    5  A    between atoms: N_23  and  C_24 
REMARK    6  A    between atoms: C_24  and  C_25 
ROOT
HETATM    1  C   UNL     1      24.524  43.937  49.763  1.00  0.00     0.164 C 
HETATM    2  N   UNL     1      25.744  44.327  49.078  1.00  0.00    -0.319 N 
HETATM    3  C   UNL     1      26.658  44.896  49.940  1.00  0.00     0.326 C 
HETATM    4  O   UNL     1      27.696  45.397  49.547  1.00  0.00    -0.247 OA
HETATM    5  N   UNL     1      26.191  44.799  51.210  1.00  0.00    -0.265 N 
HETATM    6  C   UNL     1      24.887  44.380  51.202  1.00  0.00     0.263 C 
HETATM    7  O   UNL     1      24.144  44.327  52.172  1.00  0.00    -0.270 OA
HETATM    8  H   UNL     1      25.767  44.648  48.117  1.00  0.00     0.166 HD
ENDROOT
BRANCH   1   9
HETATM    9  C   UNL     1      24.328  42.366  49.765  1.00  0.00     0.033 C 
HETATM   10  C   UNL     1      25.378  41.566  50.574  1.00  0.00     0.036 C 
HETATM   11  C   UNL     1      26.744  41.438  49.903  1.00  0.00     0.235 C 
HETATM   12  N   UNL     1      26.589  40.837  48.524  1.00  0.00    -0.067 N 
HETATM   13  H   UNL     1      26.280  39.868  48.665  1.00  0.00     0.280 HD
HETATM   14  C   UNL     1      25.562  41.534  47.667  1.00  0.00     0.235 C 
HETATM   15  C   UNL     1      24.235  41.678  48.387  1.00  0.00     0.036 C 
BRANCH  12  16
HETATM   16  C   UNL     1      27.901  40.757  47.747  1.00  0.00     0.273 C 
BRANCH  16  17
HETATM   17  C   UNL     1      28.134  39.506  46.940  1.00  0.00    -0.027 A 
HETATM   18  C   UNL     1      28.599  38.312  47.540  1.00  0.00    -0.054 A 
HETATM   19  C   UNL     1      28.808  37.176  46.741  1.00  0.00     0.014 A 
HETATM   20  C   UNL     1      28.898  38.206  49.014  1.00  0.00     0.049 C 
HETATM   21  C   UNL     1      28.583  37.205  45.362  1.00  0.00    -0.061 A 
HETATM   22  C   UNL     1      28.798  35.966  44.541  1.00  0.00     0.048 C 
HETATM   23  C   UNL     1      28.125  38.385  44.774  1.00  0.00     0.007 A 
HETATM   24  C   UNL     1      27.914  39.526  45.551  1.00  0.00     0.010 A 
ENDBRANCH  16  17
ENDBRANCH  12  16
ENDBRANCH   1   9
BRANCH   1  25
HETATM   25  C   UNL     1      23.337  44.761  49.252  1.00  0.00     0.072 A 
HETATM   26  N   UNL     1      23.551  46.064  48.945  1.00  0.00    -0.262 NA
HETATM   27  C   UNL     1      22.498  46.804  48.524  1.00  0.00     0.117 A 
HETATM   28  C   UNL     1      21.210  46.318  48.418  1.00  0.00     0.019 A 
HETATM   29  C   UNL     1      20.985  44.992  48.755  1.00  0.00     0.003 A 
HETATM   30  C   UNL     1      22.054  44.204  49.176  1.00  0.00     0.030 A 
ENDBRANCH   1  25
BRANCH   5  31
HETATM   31  C   UNL     1      26.917  45.233  52.394  1.00  0.00     0.168 C 
BRANCH  31  32
HETATM   32  C   UNL     1      27.702  44.088  53.042  1.00  0.00     0.140 C 
HETATM   33  O   UNL     1      28.717  43.580  52.146  1.00  0.00    -0.384 OA
HETATM   34  C   UNL     1      29.795  43.073  52.959  1.00  0.00     0.168 C 
HETATM   35  C   UNL     1      29.456  43.371  54.408  1.00  0.00     0.029 C 
HETATM   36  C   UNL     1      28.459  44.498  54.292  1.00  0.00     0.036 C 
ENDBRANCH  31  32
ENDBRANCH   5  31
TORSDOF 6
ENDMDL
MODEL 7
REMARK VINA RESULT:      -8.6     11.618     13.485
REMARK  6 active torsions:
REMARK  status: ('A' for Active; 'I' for Inactive)
REMARK    1  A    between atoms: C_6  and  C_7 
REMARK    2  A    between atoms: C_7  and  N_8 
REMARK    3  A    between atoms: C_12  and  C_13 
REMARK    4  A    between atoms: C_13  and  C_14 
REMARK    5  A    between atoms: N_23  and  C_24 
REMARK    6  A    between atoms: C_24  and  C_25 
ROOT
HETATM    1  C   UNL     1      28.354  49.701  39.444  1.00  0.00     0.164 C 
HETATM    2  N   UNL     1      27.846  48.821  40.481  1.00  0.00    -0.319 N 
HETATM    3  C   UNL     1      26.532  48.469  40.258  1.00  0.00     0.326 C 
HETATM    4  O   UNL     1      25.883  47.834  41.069  1.00  0.00    -0.247 OA
HETATM    5  N   UNL     1      26.142  48.949  39.050  1.00  0.00    -0.265 N 
HETATM    6  C   UNL     1      27.090  49.804  38.554  1.00  0.00     0.263 C 
HETATM    7  O   UNL     1      26.976  50.503  37.558  1.00  0.00    -0.270 OA
HETATM    8  H   UNL     1      28.145  48.868  41.449  1.00  0.00     0.166 HD
ENDROOT
BRANCH   1   9
HETATM    9  C   UNL     1      29.498  49.010  38.595  1.00  0.00     0.033 C 
HETATM   10  C   UNL     1      29.841  47.555  39.000  1.00  0.00     0.036 C 
HETATM   11  C   UNL     1      30.652  47.420  40.286  1.00  0.00     0.235 C 
HETATM   12  N   UNL     1      31.920  48.238  40.187  1.00  0.00    -0.067 N 
HETATM   13  H   UNL     1      32.499  47.786  39.469  1.00  0.00     0.280 HD
HETATM   14  C   UNL     1      31.692  49.669  39.769  1.00  0.00     0.235 C 
HETATM   15  C   UNL     1      30.846  49.758  38.512  1.00  0.00     0.036 C 
BRANCH  12  16
HETATM   16  C   UNL     1      32.749  48.229  41.469  1.00  0.00     0.273 C 
BRANCH  16  17
HETATM   17  C   UNL     1      33.696  49.384  41.670  1.00  0.00    -0.027 A 
HETATM   18  C   UNL     1      33.391  50.450  42.547  1.00  0.00    -0.054 A 
HETATM   19  C   UNL     1      34.305  51.506  42.691  1.00  0.00     0.014 A 
HETATM   20  C   UNL     1      32.105  50.514  43.332  1.00  0.00     0.049 C 
HETATM   21  C   UNL     1      35.504  51.534  41.973  1.00  0.00    -0.061 A 
HETATM   22  C   UNL     1      36.468  52.669  42.168  1.00  0.00     0.048 C 
HETATM   23  C   UNL     1      35.801  50.480  41.109  1.00  0.00     0.007 A 
HETATM   24  C   UNL     1      34.903  49.422  40.949  1.00  0.00     0.010 A 
ENDBRANCH  16  17
ENDBRANCH  12  16
ENDBRANCH   1   9
BRANCH   1  25
HETATM   25  C   UNL     1      28.689  51.079  40.027  1.00  0.00     0.072 A 
HETATM   26  N   UNL     1      28.811  52.120  39.168  1.00  0.00    -0.262 NA
HETATM   27  C   UNL     1      29.138  53.333  39.675  1.00  0.00     0.117 A 
HETATM   28  C   UNL     1      29.386  53.565  41.014  1.00  0.00     0.019 A 
HETATM   29  C   UNL     1      29.285  52.495  41.889  1.00  0.00     0.003 A 
HETATM   30  C   UNL     1      28.935  51.240  41.396  1.00  0.00     0.030 A 
ENDBRANCH   1  25
BRANCH   5  31
HETATM   31  C   UNL     1      24.837  48.716  38.449  1.00  0.00     0.168 C 
BRANCH  31  32
HETATM   32  C   UNL     1      23.737  49.549  39.116  1.00  0.00     0.140 C 
HETATM   33  O   UNL     1      22.930  50.231  38.129  1.00  0.00    -0.384 OA
HETATM   34  C   UNL     1      21.609  50.386  38.685  1.00  0.00     0.168 C 
HETATM   35  C   UNL     1      21.593  49.685  40.031  1.00  0.00     0.029 C 
HETATM   36  C   UNL     1      22.749  48.722  39.919  1.00  0.00     0.036 C 
ENDBRANCH  31  32
ENDBRANCH   5  31
TORSDOF 6
ENDMDL
MODEL 8
REMARK VINA RESULT:      -8.6      8.030     13.353
REMARK  6 active torsions:
REMARK  status: ('A' for Active; 'I' for Inactive)
REMARK    1  A    between atoms: C_6  and  C_7 
REMARK    2  A    between atoms: C_7  and  N_8 
REMARK    3  A    between atoms: C_12  and  C_13 
REMARK    4  A    between atoms: C_13  and  C_14 
REMARK    5  A    between atoms: N_23  and  C_24 
REMARK    6  A    between atoms: C_24  and  C_25 
ROOT
HETATM    1  C   UNL     1      17.897  49.838  47.647  1.00  0.00     0.164 C 
HETATM    2  N   UNL     1      17.679  49.587  49.060  1.00  0.00    -0.319 N 
HETATM    3  C   UNL     1      18.685  48.818  49.607  1.00  0.00     0.326 C 
HETATM    4  O   UNL     1      18.633  48.396  50.748  1.00  0.00    -0.247 OA
HETATM    5  N   UNL     1      19.658  48.635  48.679  1.00  0.00    -0.265 N 
HETATM    6  C   UNL     1      19.231  49.074  47.454  1.00  0.00     0.263 C 
HETATM    7  O   UNL     1      19.818  48.923  46.393  1.00  0.00    -0.270 OA
HETATM    8  H   UNL     1      16.759  49.491  49.476  1.00  0.00     0.166 HD
ENDROOT
BRANCH   1   9
HETATM    9  C   UNL     1      18.162  51.372  47.356  1.00  0.00     0.033 C 
HETATM   10  C   UNL     1      18.544  52.226  48.590  1.00  0.00     0.036 C 
HETATM   11  C   UNL     1      17.383  52.559  49.525  1.00  0.00     0.235 C 
HETATM   12  N   UNL     1      16.274  53.237  48.753  1.00  0.00    -0.067 N 
HETATM   13  H   UNL     1      16.641  54.151  48.464  1.00  0.00     0.280 HD
HETATM   14  C   UNL     1      15.851  52.491  47.512  1.00  0.00     0.235 C 
HETATM   15  C   UNL     1      17.038  52.144  46.634  1.00  0.00     0.036 C 
BRANCH  12  16
HETATM   16  C   UNL     1      15.035  53.523  49.597  1.00  0.00     0.273 C 
BRANCH  16  17
HETATM   17  C   UNL     1      14.833  54.949  50.040  1.00  0.00    -0.027 A 
HETATM   18  C   UNL     1      14.239  55.912  49.191  1.00  0.00    -0.054 A 
HETATM   19  C   UNL     1      14.081  57.231  49.650  1.00  0.00     0.014 A 
HETATM   20  C   UNL     1      13.776  55.589  47.793  1.00  0.00     0.049 C 
HETATM   21  C   UNL     1      14.515  57.615  50.923  1.00  0.00    -0.061 A 
HETATM   22  C   UNL     1      14.311  59.028  51.388  1.00  0.00     0.048 C 
HETATM   23  C   UNL     1      15.100  56.661  51.756  1.00  0.00     0.007 A 
HETATM   24  C   UNL     1      15.268  55.346  51.317  1.00  0.00     0.010 A 
ENDBRANCH  16  17
ENDBRANCH  12  16
ENDBRANCH   1   9
BRANCH   1  25
HETATM   25  C   UNL     1      16.797  49.177  46.809  1.00  0.00     0.072 A 
HETATM   26  N   UNL     1      17.048  48.947  45.497  1.00  0.00    -0.262 NA
HETATM   27  C   UNL     1      16.067  48.392  44.746  1.00  0.00     0.117 A 
HETATM   28  C   UNL     1      14.814  48.073  45.231  1.00  0.00     0.019 A 
HETATM   29  C   UNL     1      14.549  48.330  46.567  1.00  0.00     0.003 A 
HETATM   30  C   UNL     1      15.545  48.887  47.366  1.00  0.00     0.030 A 
ENDBRANCH   1  25
BRANCH   5  31
HETATM   31  C   UNL     1      20.908  47.929  48.919  1.00  0.00     0.168 C 
BRANCH  31  32
HETATM   32  C   UNL     1      22.102  48.885  49.022  1.00  0.00     0.140 C 
HETATM   33  O   UNL     1      22.769  49.023  47.746  1.00  0.00    -0.384 OA
HETATM   34  C   UNL     1      23.354  50.341  47.706  1.00  0.00     0.168 C 
HETATM   35  C   UNL     1      22.944  51.063  48.976  1.00  0.00     0.029 C 
HETATM   36  C   UNL     1      21.717  50.301  49.411  1.00  0.00     0.036 C 
ENDBRANCH  31  32
ENDBRANCH   5  31
TORSDOF 6
ENDMDL
MODEL 9
REMARK VINA RESULT:      -8.6     10.978     14.535
REMARK  6 active torsions:
REMARK  status: ('A' for Active; 'I' for Inactive)
REMARK    1  A    between atoms: C_6  and  C_7 
REMARK    2  A    between atoms: C_7  and  N_8 
REMARK    3  A    between atoms: C_12  and  C_13 
REMARK    4  A    between atoms: C_13  and  C_14 
REMARK    5  A    between atoms: N_23  and  C_24 
REMARK    6  A    between atoms: C_24  and  C_25 
ROOT
HETATM    1  C   UNL     1      33.155  50.423  41.563  1.00  0.00     0.164 C 
HETATM    2  N   UNL     1      34.096  50.164  40.488  1.00  0.00    -0.319 N 
HETATM    3  C   UNL     1      35.371  50.577  40.811  1.00  0.00     0.326 C 
HETATM    4  O   UNL     1      36.284  50.558  40.005  1.00  0.00    -0.247 OA
HETATM    5  N   UNL     1      35.392  50.985  42.104  1.00  0.00    -0.265 N 
HETATM    6  C   UNL     1      34.115  51.067  42.594  1.00  0.00     0.263 C 
HETATM    7  O   UNL     1      33.789  51.534  43.675  1.00  0.00    -0.270 OA
HETATM    8  H   UNL     1      33.845  50.195  39.506  1.00  0.00     0.166 HD
ENDROOT
BRANCH   1   9
HETATM    9  C   UNL     1      32.591  49.082  42.186  1.00  0.00     0.033 C 
HETATM   10  C   UNL     1      32.570  47.862  41.233  1.00  0.00     0.036 C 
HETATM   11  C   UNL     1      31.464  47.889  40.180  1.00  0.00     0.235 C 
HETATM   12  N   UNL     1      30.117  48.042  40.848  1.00  0.00    -0.067 N 
HETATM   13  H   UNL     1      29.953  47.174  41.369  1.00  0.00     0.280 HD
HETATM   14  C   UNL     1      30.046  49.192  41.822  1.00  0.00     0.235 C 
HETATM   15  C   UNL     1      31.186  49.150  42.822  1.00  0.00     0.036 C 
BRANCH  12  16
HETATM   16  C   UNL     1      28.961  48.168  39.859  1.00  0.00     0.273 C 
BRANCH  16  17
HETATM   17  C   UNL     1      27.627  47.628  40.304  1.00  0.00    -0.027 A 
HETATM   18  C   UNL     1      26.434  48.370  40.142  1.00  0.00    -0.054 A 
HETATM   19  C   UNL     1      25.217  47.824  40.583  1.00  0.00     0.014 A 
HETATM   20  C   UNL     1      26.410  49.746  39.525  1.00  0.00     0.049 C 
HETATM   21  C   UNL     1      25.163  46.567  41.194  1.00  0.00    -0.061 A 
HETATM   22  C   UNL     1      23.842  46.005  41.635  1.00  0.00     0.048 C 
HETATM   23  C   UNL     1      26.343  45.839  41.352  1.00  0.00     0.007 A 
HETATM   24  C   UNL     1      27.563  46.367  40.923  1.00  0.00     0.010 A 
ENDBRANCH  16  17
ENDBRANCH  12  16
ENDBRANCH   1   9
BRANCH   1  25
HETATM   25  C   UNL     1      32.106  51.450  41.121  1.00  0.00     0.072 A 
HETATM   26  N   UNL     1      31.688  52.364  42.031  1.00  0.00    -0.262 NA
HETATM   27  C   UNL     1      30.739  53.254  41.654  1.00  0.00     0.117 A 
HETATM   28  C   UNL     1      30.148  53.266  40.406  1.00  0.00     0.019 A 
HETATM   29  C   UNL     1      30.558  52.316  39.483  1.00  0.00     0.003 A 
HETATM   30  C   UNL     1      31.544  51.399  39.839  1.00  0.00     0.030 A 
ENDBRANCH   1  25
BRANCH   5  31
HETATM   31  C   UNL     1      36.583  51.427  42.814  1.00  0.00     0.168 C 
BRANCH  31  32
HETATM   32  C   UNL     1      36.707  52.954  42.839  1.00  0.00     0.140 C 
HETATM   33  O   UNL     1      37.367  53.403  44.045  1.00  0.00    -0.384 OA
HETATM   34  C   UNL     1      38.053  54.632  43.729  1.00  0.00     0.168 C 
HETATM   35  C   UNL     1      37.875  54.888  42.244  1.00  0.00     0.029 C 
HETATM   36  C   UNL     1      37.548  53.516  41.707  1.00  0.00     0.036 C 
ENDBRANCH  31  32
ENDBRANCH   5  31
TORSDOF 6
ENDMDL
MODEL 10
REMARK VINA RESULT:      -8.4     11.205     14.648
REMARK  6 active torsions:
REMARK  status: ('A' for Active; 'I' for Inactive)
REMARK    1  A    between atoms: C_6  and  C_7 
REMARK    2  A    between atoms: C_7  and  N_8 
REMARK    3  A    between atoms: C_12  and  C_13 
REMARK    4  A    between atoms: C_13  and  C_14 
REMARK    5  A    between atoms: N_23  and  C_24 
REMARK    6  A    between atoms: C_24  and  C_25 
ROOT
HETATM    1  C   UNL     1      30.447  50.413  41.375  1.00  0.00     0.164 C 
HETATM    2  N   UNL     1      30.709  50.421  39.947  1.00  0.00    -0.319 N 
HETATM    3  C   UNL     1      30.712  49.148  39.418  1.00  0.00     0.326 C 
HETATM    4  O   UNL     1      31.028  48.925  38.263  1.00  0.00    -0.247 OA
HETATM    5  N   UNL     1      30.333  48.267  40.378  1.00  0.00    -0.265 N 
HETATM    6  C   UNL     1      30.290  48.887  41.598  1.00  0.00     0.263 C 
HETATM    7  O   UNL     1      30.119  48.339  42.677  1.00  0.00    -0.270 OA
HETATM    8  H   UNL     1      31.306  51.102  39.492  1.00  0.00     0.166 HD
ENDROOT
BRANCH   1   9
HETATM    9  C   UNL     1      29.067  51.105  41.724  1.00  0.00     0.033 C 
HETATM   10  C   UNL     1      27.832  50.171  41.712  1.00  0.00     0.036 C 
HETATM   11  C   UNL     1      27.335  49.781  40.322  1.00  0.00     0.235 C 
HETATM   12  N   UNL     1      27.048  51.021  39.507  1.00  0.00    -0.067 N 
HETATM   13  H   UNL     1      26.242  51.477  39.949  1.00  0.00     0.280 HD
HETATM   14  C   UNL     1      28.187  52.011  39.482  1.00  0.00     0.235 C 
HETATM   15  C   UNL     1      28.677  52.338  40.880  1.00  0.00     0.036 C 
BRANCH  12  16
HETATM   16  C   UNL     1      26.631  50.720  38.070  1.00  0.00     0.273 C 
BRANCH  16  17
HETATM   17  C   UNL     1      26.013  49.370  37.814  1.00  0.00    -0.027 A 
HETATM   18  C   UNL     1      24.663  49.099  38.137  1.00  0.00    -0.054 A 
HETATM   19  C   UNL     1      24.138  47.820  37.886  1.00  0.00     0.014 A 
HETATM   20  C   UNL     1      23.754  50.127  38.762  1.00  0.00     0.049 C 
HETATM   21  C   UNL     1      24.928  46.805  37.337  1.00  0.00    -0.061 A 
HETATM   22  C   UNL     1      24.327  45.456  37.063  1.00  0.00     0.048 C 
HETATM   23  C   UNL     1      26.258  47.077  37.020  1.00  0.00     0.007 A 
HETATM   24  C   UNL     1      26.800  48.341  37.266  1.00  0.00     0.010 A 
ENDBRANCH  16  17
ENDBRANCH  12  16
ENDBRANCH   1   9
BRANCH   1  25
HETATM   25  C   UNL     1      31.668  50.925  42.147  1.00  0.00     0.072 A 
HETATM   26  N   UNL     1      32.890  50.766  41.582  1.00  0.00    -0.262 NA
HETATM   27  C   UNL     1      33.975  51.188  42.274  1.00  0.00     0.117 A 
HETATM   28  C   UNL     1      33.913  51.744  43.537  1.00  0.00     0.019 A 
HETATM   29  C   UNL     1      32.666  51.883  44.126  1.00  0.00     0.003 A 
HETATM   30  C   UNL     1      31.532  51.472  43.429  1.00  0.00     0.030 A 
ENDBRANCH   1  25
BRANCH   5  31
HETATM   31  C   UNL     1      30.158  46.837  40.166  1.00  0.00     0.168 C 
BRANCH  31  32
HETATM   32  C   UNL     1      28.718  46.484  39.776  1.00  0.00     0.140 C 
HETATM   33  O   UNL     1      28.657  45.191  39.130  1.00  0.00    -0.384 OA
HETATM   34  C   UNL     1      27.360  44.628  39.416  1.00  0.00     0.168 C 
HETATM   35  C   UNL     1      26.642  45.583  40.351  1.00  0.00     0.029 C 
HETATM   36  C   UNL     1      27.777  46.369  40.960  1.00  0.00     0.036 C 
ENDBRANCH  31  32
ENDBRANCH   5  31
TORSDOF 6
ENDMDL
