MODEL 1
REMARK VINA RESULT:      -9.1      0.000      0.000
REMARK  7 active torsions:
REMARK  status: ('A' for Active; 'I' for Inactive)
REMARK    1  A    between atoms: C_2  and  C_3 
REMARK    2  A    between atoms: C_3  and  C_4 
REMARK    3  A    between atoms: C_5  and  O_6 
REMARK    4  A    between atoms: O_6  and  C_7 
REMARK    5  A    between atoms: C_7  and  C_8 
REMARK       I    between atoms: C_8  and  N_9 
REMARK    6  A    between atoms: N_9  and  C_10 
REMARK    7  A    between atoms: C_17  and  C_18 
REMARK       I    between atoms: C_18  and  N_19 
ROOT
HETATM    1  C   UNL     1      25.621  45.799  52.687  1.00  0.00     0.246 C 
HETATM    2  N   UNL     1      25.638  45.811  51.294  1.00  0.00    -0.325 N 
HETATM    3  O   UNL     1      25.542  46.785  53.412  1.00  0.00    -0.271 OA
HETATM    4  H   UNL     1      25.662  44.912  50.828  1.00  0.00     0.169 HD
ENDROOT
BRANCH   2   5
HETATM    5  C   UNL     1      25.644  46.937  50.442  1.00  0.00     0.035 A 
HETATM    6  C   UNL     1      24.399  47.353  49.937  1.00  0.00     0.046 A 
HETATM    7  C   UNL     1      24.329  48.457  49.061  1.00  0.00     0.030 A 
HETATM    8  C   UNL     1      25.504  49.113  48.720  1.00  0.00     0.063 A 
HETATM    9  C   UNL     1      23.298  49.152  48.360  1.00  0.00     0.156 A 
HETATM   10  N   UNL     1      25.125  50.118  47.873  1.00  0.00    -0.277 N 
HETATM   11  C   UNL     1      26.754  48.732  49.205  1.00  0.00     0.034 A 
HETATM   12  H   UNL     1      25.726  50.799  47.424  1.00  0.00     0.189 HD
HETATM   13  N   UNL     1      23.804  50.173  47.631  1.00  0.00    -0.168 NA
HETATM   14  C   UNL     1      26.799  47.630  50.072  1.00  0.00     0.032 A 
BRANCH   9  15
HETATM   15  C   UNL     1      21.860  48.858  48.373  1.00  0.00     0.270 C 
HETATM   16  N   UNL     1      21.191  49.381  49.444  1.00  0.00    -0.365 N 
HETATM   17  H   UNL     1      21.715  49.914  50.129  1.00  0.00     0.159 HD
HETATM   18  H   UNL     1      20.199  49.232  49.541  1.00  0.00     0.159 HD
HETATM   19  O   UNL     1      21.279  48.205  47.511  1.00  0.00    -0.266 OA
ENDBRANCH   9  15
ENDBRANCH   2   5
BRANCH   1  20
HETATM   20  C   UNL     1      25.722  44.371  53.244  1.00  0.00     0.278 C 
BRANCH  20  21
HETATM   21  O   UNL     1      26.501  44.323  54.441  1.00  0.00    -0.342 OA
BRANCH  21  22
HETATM   22  C   UNL     1      27.757  43.824  54.222  1.00  0.00     0.076 A 
HETATM   23  C   UNL     1      28.882  44.392  54.841  1.00  0.00    -0.021 A 
HETATM   24  C   UNL     1      30.138  43.813  54.552  1.00  0.00     0.010 A 
HETATM   25  C   UNL     1      30.274  42.756  53.650  1.00  0.00     0.001 A 
HETATM   26  C   UNL     1      29.156  42.253  53.001  1.00  0.00     0.003 A 
HETATM   27  C   UNL     1      27.903  42.793  53.280  1.00  0.00     0.037 A 
BRANCH  23  28
HETATM   28  C   UNL     1      28.885  45.602  55.775  1.00  0.00     0.017 C 
HETATM   29  C   UNL     1      28.488  46.964  55.194  1.00  0.00     0.015 C 
BRANCH  28  30
HETATM   30  C   UNL     1      30.213  45.717  56.567  1.00  0.00     0.004 C 
HETATM   31  C   UNL     1      30.052  45.860  58.074  1.00  0.00     0.006 C 
ENDBRANCH  28  30
ENDBRANCH  23  28
ENDBRANCH  21  22
ENDBRANCH  20  21
ENDBRANCH   1  20
TORSDOF 7
ENDMDL
MODEL 2
REMARK VINA RESULT:      -9.0      1.627      3.410
REMARK  7 active torsions:
REMARK  status: ('A' for Active; 'I' for Inactive)
REMARK    1  A    between atoms: C_2  and  C_3 
REMARK    2  A    between atoms: C_3  and  C_4 
REMARK    3  A    between atoms: C_5  and  O_6 
REMARK    4  A    between atoms: O_6  and  C_7 
REMARK    5  A    between atoms: C_7  and  C_8 
REMARK       I    between atoms: C_8  and  N_9 
REMARK    6  A    between atoms: N_9  and  C_10 
REMARK    7  A    between atoms: C_17  and  C_18 
REMARK       I    between atoms: C_18  and  N_19 
ROOT
HETATM    1  C   UNL     1      26.368  47.237  53.751  1.00  0.00     0.246 C 
HETATM    2  N   UNL     1      26.431  46.404  52.637  1.00  0.00    -0.325 N 
HETATM    3  O   UNL     1      25.440  47.988  54.034  1.00  0.00    -0.271 OA
HETATM    4  H   UNL     1      27.244  45.805  52.558  1.00  0.00     0.169 HD
ENDROOT
BRANCH   2   5
HETATM    5  C   UNL     1      25.497  46.302  51.582  1.00  0.00     0.035 A 
HETATM    6  C   UNL     1      25.247  47.474  50.846  1.00  0.00     0.046 A 
HETATM    7  C   UNL     1      24.310  47.455  49.791  1.00  0.00     0.030 A 
HETATM    8  C   UNL     1      23.655  46.266  49.502  1.00  0.00     0.063 A 
HETATM    9  C   UNL     1      23.794  48.400  48.854  1.00  0.00     0.156 A 
HETATM   10  N   UNL     1      22.824  46.554  48.456  1.00  0.00    -0.277 N 
HETATM   11  C   UNL     1      23.883  45.084  50.207  1.00  0.00     0.034 A 
HETATM   12  H   UNL     1      22.190  45.919  47.984  1.00  0.00     0.189 HD
HETATM   13  N   UNL     1      22.879  47.830  48.037  1.00  0.00    -0.168 NA
HETATM   14  C   UNL     1      24.817  45.128  51.253  1.00  0.00     0.032 A 
BRANCH   9  15
HETATM   15  C   UNL     1      24.155  49.817  48.730  1.00  0.00     0.270 C 
HETATM   16  N   UNL     1      25.191  50.059  47.871  1.00  0.00    -0.365 N 
HETATM   17  H   UNL     1      25.622  49.272  47.398  1.00  0.00     0.159 HD
HETATM   18  H   UNL     1      25.512  51.002  47.720  1.00  0.00     0.159 HD
HETATM   19  O   UNL     1      23.595  50.730  49.330  1.00  0.00    -0.266 OA
ENDBRANCH   9  15
ENDBRANCH   2   5
BRANCH   1  20
HETATM   20  C   UNL     1      27.630  47.122  54.619  1.00  0.00     0.278 C 
BRANCH  20  21
HETATM   21  O   UNL     1      27.503  46.097  55.605  1.00  0.00    -0.342 OA
BRANCH  21  22
HETATM   22  C   UNL     1      28.708  45.523  55.915  1.00  0.00     0.076 A 
HETATM   23  C   UNL     1      29.247  44.495  55.127  1.00  0.00    -0.021 A 
HETATM   24  C   UNL     1      30.493  43.961  55.528  1.00  0.00     0.010 A 
HETATM   25  C   UNL     1      31.144  44.394  56.685  1.00  0.00     0.001 A 
HETATM   26  C   UNL     1      30.560  45.367  57.483  1.00  0.00     0.003 A 
HETATM   27  C   UNL     1      29.342  45.922  57.103  1.00  0.00     0.037 A 
BRANCH  23  28
HETATM   28  C   UNL     1      28.600  43.868  53.892  1.00  0.00     0.017 C 
HETATM   29  C   UNL     1      27.309  43.065  54.082  1.00  0.00     0.015 C 
BRANCH  28  30
HETATM   30  C   UNL     1      29.622  43.060  53.052  1.00  0.00     0.004 C 
HETATM   31  C   UNL     1      29.239  41.609  52.796  1.00  0.00     0.006 C 
ENDBRANCH  28  30
ENDBRANCH  23  28
ENDBRANCH  21  22
ENDBRANCH  20  21
ENDBRANCH   1  20
TORSDOF 7
ENDMDL
MODEL 3
REMARK VINA RESULT:      -8.4      4.695      7.860
REMARK  7 active torsions:
REMARK  status: ('A' for Active; 'I' for Inactive)
REMARK    1  A    between atoms: C_2  and  C_3 
REMARK    2  A    between atoms: C_3  and  C_4 
REMARK    3  A    between atoms: C_5  and  O_6 
REMARK    4  A    between atoms: O_6  and  C_7 
REMARK    5  A    between atoms: C_7  and  C_8 
REMARK       I    between atoms: C_8  and  N_9 
REMARK    6  A    between atoms: N_9  and  C_10 
REMARK    7  A    between atoms: C_17  and  C_18 
REMARK       I    between atoms: C_18  and  N_19 
ROOT
HETATM    1  C   UNL     1      25.667  42.975  51.346  1.00  0.00     0.246 C 
HETATM    2  N   UNL     1      26.924  42.529  50.944  1.00  0.00    -0.325 N 
HETATM    3  O   UNL     1      24.592  42.602  50.887  1.00  0.00    -0.271 OA
HETATM    4  H   UNL     1      27.723  42.895  51.447  1.00  0.00     0.169 HD
ENDROOT
BRANCH   2   5
HETATM    5  C   UNL     1      27.225  41.630  49.897  1.00  0.00     0.035 A 
HETATM    6  C   UNL     1      27.886  40.441  50.256  1.00  0.00     0.046 A 
HETATM    7  C   UNL     1      28.239  39.506  49.261  1.00  0.00     0.030 A 
HETATM    8  C   UNL     1      27.919  39.784  47.940  1.00  0.00     0.063 A 
HETATM    9  C   UNL     1      28.897  38.239  49.225  1.00  0.00     0.156 A 
HETATM   10  N   UNL     1      28.382  38.717  47.221  1.00  0.00    -0.277 N 
HETATM   11  C   UNL     1      27.260  40.950  47.548  1.00  0.00     0.034 A 
HETATM   12  H   UNL     1      28.322  38.581  46.218  1.00  0.00     0.189 HD
HETATM   13  N   UNL     1      28.977  37.765  47.961  1.00  0.00    -0.168 NA
HETATM   14  C   UNL     1      26.921  41.866  48.555  1.00  0.00     0.032 A 
BRANCH   9  15
HETATM   15  C   UNL     1      29.443  37.488  50.362  1.00  0.00     0.270 C 
HETATM   16  N   UNL     1      28.615  36.507  50.834  1.00  0.00    -0.365 N 
HETATM   17  H   UNL     1      27.717  36.373  50.385  1.00  0.00     0.159 HD
HETATM   18  H   UNL     1      28.902  35.937  51.614  1.00  0.00     0.159 HD
HETATM   19  O   UNL     1      30.542  37.696  50.866  1.00  0.00    -0.266 OA
ENDBRANCH   9  15
ENDBRANCH   2   5
BRANCH   1  20
HETATM   20  C   UNL     1      25.767  44.027  52.461  1.00  0.00     0.278 C 
BRANCH  20  21
HETATM   21  O   UNL     1      27.037  44.682  52.459  1.00  0.00    -0.342 OA
BRANCH  21  22
HETATM   22  C   UNL     1      27.151  45.595  53.473  1.00  0.00     0.076 A 
HETATM   23  C   UNL     1      28.153  45.475  54.448  1.00  0.00    -0.021 A 
HETATM   24  C   UNL     1      28.191  46.462  55.459  1.00  0.00     0.010 A 
HETATM   25  C   UNL     1      27.245  47.488  55.525  1.00  0.00     0.001 A 
HETATM   26  C   UNL     1      26.225  47.549  54.586  1.00  0.00     0.003 A 
HETATM   27  C   UNL     1      26.174  46.599  53.570  1.00  0.00     0.037 A 
BRANCH  23  28
HETATM   28  C   UNL     1      29.191  44.358  54.545  1.00  0.00     0.017 C 
HETATM   29  C   UNL     1      28.706  42.908  54.436  1.00  0.00     0.015 C 
BRANCH  28  30
HETATM   30  C   UNL     1      30.111  44.529  55.782  1.00  0.00     0.004 C 
HETATM   31  C   UNL     1      31.068  43.372  56.037  1.00  0.00     0.006 C 
ENDBRANCH  28  30
ENDBRANCH  23  28
ENDBRANCH  21  22
ENDBRANCH  20  21
ENDBRANCH   1  20
TORSDOF 7
ENDMDL
MODEL 4
REMARK VINA RESULT:      -8.3      1.599      2.288
REMARK  7 active torsions:
REMARK  status: ('A' for Active; 'I' for Inactive)
REMARK    1  A    between atoms: C_2  and  C_3 
REMARK    2  A    between atoms: C_3  and  C_4 
REMARK    3  A    between atoms: C_5  and  O_6 
REMARK    4  A    between atoms: O_6  and  C_7 
REMARK    5  A    between atoms: C_7  and  C_8 
REMARK       I    between atoms: C_8  and  N_9 
REMARK    6  A    between atoms: N_9  and  C_10 
REMARK    7  A    between atoms: C_17  and  C_18 
REMARK       I    between atoms: C_18  and  N_19 
ROOT
HETATM    1  C   UNL     1      26.517  45.346  49.828  1.00  0.00     0.246 C 
HETATM    2  N   UNL     1      26.834  46.692  49.997  1.00  0.00    -0.325 N 
HETATM    3  O   UNL     1      25.636  44.902  49.099  1.00  0.00    -0.271 OA
HETATM    4  H   UNL     1      27.618  46.907  50.601  1.00  0.00     0.169 HD
ENDROOT
BRANCH   2   5
HETATM    5  C   UNL     1      26.176  47.810  49.435  1.00  0.00     0.035 A 
HETATM    6  C   UNL     1      24.770  47.773  49.420  1.00  0.00     0.046 A 
HETATM    7  C   UNL     1      24.046  48.843  48.854  1.00  0.00     0.030 A 
HETATM    8  C   UNL     1      24.747  49.918  48.325  1.00  0.00     0.063 A 
HETATM    9  C   UNL     1      22.670  49.162  48.650  1.00  0.00     0.156 A 
HETATM   10  N   UNL     1      23.793  50.779  47.857  1.00  0.00    -0.277 N 
HETATM   11  C   UNL     1      26.140  49.990  48.328  1.00  0.00     0.034 A 
HETATM   12  H   UNL     1      23.945  51.672  47.402  1.00  0.00     0.189 HD
HETATM   13  N   UNL     1      22.529  50.358  48.035  1.00  0.00    -0.168 NA
HETATM   14  C   UNL     1      26.839  48.913  48.893  1.00  0.00     0.032 A 
BRANCH   9  15
HETATM   15  C   UNL     1      21.504  48.353  49.028  1.00  0.00     0.270 C 
HETATM   16  N   UNL     1      20.649  48.972  49.896  1.00  0.00    -0.365 N 
HETATM   17  H   UNL     1      20.871  49.911  50.207  1.00  0.00     0.159 HD
HETATM   18  H   UNL     1      19.819  48.496  50.213  1.00  0.00     0.159 HD
HETATM   19  O   UNL     1      21.287  47.217  48.616  1.00  0.00    -0.266 OA
ENDBRANCH   9  15
ENDBRANCH   2   5
BRANCH   1  20
HETATM   20  C   UNL     1      27.411  44.441  50.688  1.00  0.00     0.278 C 
BRANCH  20  21
HETATM   21  O   UNL     1      27.039  44.483  52.066  1.00  0.00    -0.342 OA
BRANCH  21  22
HETATM   22  C   UNL     1      28.043  44.045  52.888  1.00  0.00     0.076 A 
HETATM   23  C   UNL     1      28.398  44.756  54.045  1.00  0.00    -0.021 A 
HETATM   24  C   UNL     1      29.450  44.230  54.828  1.00  0.00     0.010 A 
HETATM   25  C   UNL     1      30.148  43.081  54.451  1.00  0.00     0.001 A 
HETATM   26  C   UNL     1      29.822  42.430  53.270  1.00  0.00     0.003 A 
HETATM   27  C   UNL     1      28.779  42.917  52.488  1.00  0.00     0.037 A 
BRANCH  23  28
HETATM   28  C   UNL     1      27.780  46.070  54.523  1.00  0.00     0.017 C 
HETATM   29  C   UNL     1      28.178  46.595  55.906  1.00  0.00     0.015 C 
BRANCH  28  30
HETATM   30  C   UNL     1      26.237  46.072  54.367  1.00  0.00     0.004 C 
HETATM   31  C   UNL     1      25.679  47.209  53.521  1.00  0.00     0.006 C 
ENDBRANCH  28  30
ENDBRANCH  23  28
ENDBRANCH  21  22
ENDBRANCH  20  21
ENDBRANCH   1  20
TORSDOF 7
ENDMDL
MODEL 5
REMARK VINA RESULT:      -8.3      1.957      2.420
REMARK  7 active torsions:
REMARK  status: ('A' for Active; 'I' for Inactive)
REMARK    1  A    between atoms: C_2  and  C_3 
REMARK    2  A    between atoms: C_3  and  C_4 
REMARK    3  A    between atoms: C_5  and  O_6 
REMARK    4  A    between atoms: O_6  and  C_7 
REMARK    5  A    between atoms: C_7  and  C_8 
REMARK       I    between atoms: C_8  and  N_9 
REMARK    6  A    between atoms: N_9  and  C_10 
REMARK    7  A    between atoms: C_17  and  C_18 
REMARK       I    between atoms: C_18  and  N_19 
ROOT
HETATM    1  C   UNL     1      25.279  45.125  51.427  1.00  0.00     0.246 C 
HETATM    2  N   UNL     1      25.210  45.833  50.229  1.00  0.00    -0.325 N 
HETATM    3  O   UNL     1      24.324  44.664  52.043  1.00  0.00    -0.271 OA
HETATM    4  H   UNL     1      26.089  46.115  49.812  1.00  0.00     0.169 HD
ENDROOT
BRANCH   2   5
HETATM    5  C   UNL     1      24.050  46.226  49.525  1.00  0.00     0.035 A 
HETATM    6  C   UNL     1      23.681  47.580  49.623  1.00  0.00     0.046 A 
HETATM    7  C   UNL     1      22.522  48.041  48.965  1.00  0.00     0.030 A 
HETATM    8  C   UNL     1      21.769  47.138  48.227  1.00  0.00     0.063 A 
HETATM    9  C   UNL     1      21.839  49.288  48.834  1.00  0.00     0.156 A 
HETATM   10  N   UNL     1      20.726  47.863  47.720  1.00  0.00    -0.277 N 
HETATM   11  C   UNL     1      22.108  45.791  48.105  1.00  0.00     0.034 A 
HETATM   12  H   UNL     1      19.974  47.524  47.131  1.00  0.00     0.189 HD
HETATM   13  N   UNL     1      20.734  49.162  48.064  1.00  0.00    -0.168 NA
HETATM   14  C   UNL     1      23.264  45.354  48.770  1.00  0.00     0.032 A 
BRANCH   9  15
HETATM   15  C   UNL     1      22.218  50.577  49.425  1.00  0.00     0.270 C 
HETATM   16  N   UNL     1      21.605  50.849  50.616  1.00  0.00    -0.365 N 
HETATM   17  H   UNL     1      20.955  50.168  50.994  1.00  0.00     0.159 HD
HETATM   18  H   UNL     1      21.802  51.711  51.100  1.00  0.00     0.159 HD
HETATM   19  O   UNL     1      23.014  51.362  48.921  1.00  0.00    -0.266 OA
ENDBRANCH   9  15
ENDBRANCH   2   5
BRANCH   1  20
HETATM   20  C   UNL     1      26.726  44.981  51.919  1.00  0.00     0.278 C 
BRANCH  20  21
HETATM   21  O   UNL     1      26.783  44.567  53.285  1.00  0.00    -0.342 OA
BRANCH  21  22
HETATM   22  C   UNL     1      28.001  44.036  53.616  1.00  0.00     0.076 A 
HETATM   23  C   UNL     1      28.762  44.565  54.670  1.00  0.00    -0.021 A 
HETATM   24  C   UNL     1      30.008  43.955  54.936  1.00  0.00     0.010 A 
HETATM   25  C   UNL     1      30.497  42.904  54.156  1.00  0.00     0.001 A 
HETATM   26  C   UNL     1      29.756  42.439  53.079  1.00  0.00     0.003 A 
HETATM   27  C   UNL     1      28.516  43.011  52.806  1.00  0.00     0.037 A 
BRANCH  23  28
HETATM   28  C   UNL     1      28.388  45.764  55.541  1.00  0.00     0.017 C 
HETATM   29  C   UNL     1      28.032  47.081  54.843  1.00  0.00     0.015 C 
BRANCH  28  30
HETATM   30  C   UNL     1      29.430  46.010  56.663  1.00  0.00     0.004 C 
HETATM   31  C   UNL     1      28.855  46.075  58.072  1.00  0.00     0.006 C 
ENDBRANCH  28  30
ENDBRANCH  23  28
ENDBRANCH  21  22
ENDBRANCH  20  21
ENDBRANCH   1  20
TORSDOF 7
ENDMDL
MODEL 6
REMARK VINA RESULT:      -8.3      1.546      3.051
REMARK  7 active torsions:
REMARK  status: ('A' for Active; 'I' for Inactive)
REMARK    1  A    between atoms: C_2  and  C_3 
REMARK    2  A    between atoms: C_3  and  C_4 
REMARK    3  A    between atoms: C_5  and  O_6 
REMARK    4  A    between atoms: O_6  and  C_7 
REMARK    5  A    between atoms: C_7  and  C_8 
REMARK       I    between atoms: C_8  and  N_9 
REMARK    6  A    between atoms: N_9  and  C_10 
REMARK    7  A    between atoms: C_17  and  C_18 
REMARK       I    between atoms: C_18  and  N_19 
ROOT
HETATM    1  C   UNL     1      26.549  45.411  50.101  1.00  0.00     0.246 C 
HETATM    2  N   UNL     1      26.714  46.782  50.283  1.00  0.00    -0.325 N 
HETATM    3  O   UNL     1      25.833  44.881  49.258  1.00  0.00    -0.271 OA
HETATM    4  H   UNL     1      27.375  47.074  50.993  1.00  0.00     0.169 HD
ENDROOT
BRANCH   2   5
HETATM    5  C   UNL     1      26.052  47.829  49.602  1.00  0.00     0.035 A 
HETATM    6  C   UNL     1      24.649  47.754  49.542  1.00  0.00     0.046 A 
HETATM    7  C   UNL     1      23.921  48.751  48.859  1.00  0.00     0.030 A 
HETATM    8  C   UNL     1      24.616  49.793  48.262  1.00  0.00     0.063 A 
HETATM    9  C   UNL     1      22.546  49.014  48.581  1.00  0.00     0.156 A 
HETATM   10  N   UNL     1      23.660  50.584  47.686  1.00  0.00    -0.277 N 
HETATM   11  C   UNL     1      26.006  49.902  48.306  1.00  0.00     0.034 A 
HETATM   12  H   UNL     1      23.807  51.438  47.160  1.00  0.00     0.189 HD
HETATM   13  N   UNL     1      22.401  50.147  47.857  1.00  0.00    -0.168 NA
HETATM   14  C   UNL     1      26.709  48.897  48.988  1.00  0.00     0.032 A 
BRANCH   9  15
HETATM   15  C   UNL     1      21.387  48.210  48.987  1.00  0.00     0.270 C 
HETATM   16  N   UNL     1      20.540  48.845  49.851  1.00  0.00    -0.365 N 
HETATM   17  H   UNL     1      20.762  49.791  50.141  1.00  0.00     0.159 HD
HETATM   18  H   UNL     1      19.714  48.374  50.188  1.00  0.00     0.159 HD
HETATM   19  O   UNL     1      21.169  47.065  48.602  1.00  0.00    -0.266 OA
ENDBRANCH   9  15
ENDBRANCH   2   5
BRANCH   1  20
HETATM   20  C   UNL     1      27.380  44.601  51.106  1.00  0.00     0.278 C 
BRANCH  20  21
HETATM   21  O   UNL     1      26.681  44.405  52.336  1.00  0.00    -0.342 OA
BRANCH  21  22
HETATM   22  C   UNL     1      27.228  45.125  53.365  1.00  0.00     0.076 A 
HETATM   23  C   UNL     1      28.279  44.606  54.137  1.00  0.00    -0.021 A 
HETATM   24  C   UNL     1      28.776  45.419  55.180  1.00  0.00     0.010 A 
HETATM   25  C   UNL     1      28.218  46.666  55.473  1.00  0.00     0.001 A 
HETATM   26  C   UNL     1      27.138  47.131  54.737  1.00  0.00     0.003 A 
HETATM   27  C   UNL     1      26.640  46.357  53.693  1.00  0.00     0.037 A 
BRANCH  23  28
HETATM   28  C   UNL     1      28.918  43.226  53.981  1.00  0.00     0.017 C 
HETATM   29  C   UNL     1      29.988  43.043  52.900  1.00  0.00     0.015 C 
BRANCH  28  30
HETATM   30  C   UNL     1      27.853  42.104  53.886  1.00  0.00     0.004 C 
HETATM   31  C   UNL     1      28.091  41.085  52.778  1.00  0.00     0.006 C 
ENDBRANCH  28  30
ENDBRANCH  23  28
ENDBRANCH  21  22
ENDBRANCH  20  21
ENDBRANCH   1  20
TORSDOF 7
ENDMDL
MODEL 7
REMARK VINA RESULT:      -8.1      1.967      3.574
REMARK  7 active torsions:
REMARK  status: ('A' for Active; 'I' for Inactive)
REMARK    1  A    between atoms: C_2  and  C_3 
REMARK    2  A    between atoms: C_3  and  C_4 
REMARK    3  A    between atoms: C_5  and  O_6 
REMARK    4  A    between atoms: O_6  and  C_7 
REMARK    5  A    between atoms: C_7  and  C_8 
REMARK       I    between atoms: C_8  and  N_9 
REMARK    6  A    between atoms: N_9  and  C_10 
REMARK    7  A    between atoms: C_17  and  C_18 
REMARK       I    between atoms: C_18  and  N_19 
ROOT
HETATM    1  C   UNL     1      25.219  44.234  51.436  1.00  0.00     0.246 C 
HETATM    2  N   UNL     1      25.117  44.912  50.223  1.00  0.00    -0.325 N 
HETATM    3  O   UNL     1      24.280  43.839  52.118  1.00  0.00    -0.271 OA
HETATM    4  H   UNL     1      25.983  45.138  49.750  1.00  0.00     0.169 HD
ENDROOT
BRANCH   2   5
HETATM    5  C   UNL     1      23.939  45.344  49.574  1.00  0.00     0.035 A 
HETATM    6  C   UNL     1      23.876  46.704  49.219  1.00  0.00     0.046 A 
HETATM    7  C   UNL     1      22.722  47.213  48.587  1.00  0.00     0.030 A 
HETATM    8  C   UNL     1      21.668  46.348  48.327  1.00  0.00     0.063 A 
HETATM    9  C   UNL     1      22.290  48.482  48.099  1.00  0.00     0.156 A 
HETATM   10  N   UNL     1      20.709  47.115  47.725  1.00  0.00    -0.277 N 
HETATM   11  C   UNL     1      21.698  44.994  48.660  1.00  0.00     0.034 A 
HETATM   12  H   UNL     1      19.799  46.812  47.397  1.00  0.00     0.189 HD
HETATM   13  N   UNL     1      21.047  48.406  47.570  1.00  0.00    -0.168 NA
HETATM   14  C   UNL     1      22.855  44.511  49.290  1.00  0.00     0.032 A 
BRANCH   9  15
HETATM   15  C   UNL     1      23.033  49.748  48.131  1.00  0.00     0.270 C 
HETATM   16  N   UNL     1      22.835  50.485  49.265  1.00  0.00    -0.365 N 
HETATM   17  H   UNL     1      22.211  50.122  49.977  1.00  0.00     0.159 HD
HETATM   18  H   UNL     1      23.303  51.371  49.379  1.00  0.00     0.159 HD
HETATM   19  O   UNL     1      23.777  50.137  47.235  1.00  0.00    -0.266 OA
ENDBRANCH   9  15
ENDBRANCH   2   5
BRANCH   1  20
HETATM   20  C   UNL     1      26.684  44.031  51.851  1.00  0.00     0.278 C 
BRANCH  20  21
HETATM   21  O   UNL     1      26.806  43.754  53.247  1.00  0.00    -0.342 OA
BRANCH  21  22
HETATM   22  C   UNL     1      27.386  44.787  53.933  1.00  0.00     0.076 A 
HETATM   23  C   UNL     1      28.633  44.635  54.558  1.00  0.00    -0.021 A 
HETATM   24  C   UNL     1      29.150  45.755  55.247  1.00  0.00     0.010 A 
HETATM   25  C   UNL     1      28.436  46.951  55.353  1.00  0.00     0.001 A 
HETATM   26  C   UNL     1      27.177  47.057  54.781  1.00  0.00     0.003 A 
HETATM   27  C   UNL     1      26.651  45.975  54.082  1.00  0.00     0.037 A 
BRANCH  23  28
HETATM   28  C   UNL     1      29.475  43.360  54.597  1.00  0.00     0.017 C 
HETATM   29  C   UNL     1      30.616  43.278  55.617  1.00  0.00     0.015 C 
BRANCH  28  30
HETATM   30  C   UNL     1      29.979  42.958  53.187  1.00  0.00     0.004 C 
HETATM   31  C   UNL     1      29.438  41.633  52.664  1.00  0.00     0.006 C 
ENDBRANCH  28  30
ENDBRANCH  23  28
ENDBRANCH  21  22
ENDBRANCH  20  21
ENDBRANCH   1  20
TORSDOF 7
ENDMDL
MODEL 8
REMARK VINA RESULT:      -8.1      3.354      8.881
REMARK  7 active torsions:
REMARK  status: ('A' for Active; 'I' for Inactive)
REMARK    1  A    between atoms: C_2  and  C_3 
REMARK    2  A    between atoms: C_3  and  C_4 
REMARK    3  A    between atoms: C_5  and  O_6 
REMARK    4  A    between atoms: O_6  and  C_7 
REMARK    5  A    between atoms: C_7  and  C_8 
REMARK       I    between atoms: C_8  and  N_9 
REMARK    6  A    between atoms: N_9  and  C_10 
REMARK    7  A    between atoms: C_17  and  C_18 
REMARK       I    between atoms: C_18  and  N_19 
ROOT
HETATM    1  C   UNL     1      24.612  44.951  50.753  1.00  0.00     0.246 C 
HETATM    2  N   UNL     1      25.989  44.748  50.719  1.00  0.00    -0.325 N 
HETATM    3  O   UNL     1      23.813  44.337  51.453  1.00  0.00    -0.271 OA
HETATM    4  H   UNL     1      26.529  45.362  50.121  1.00  0.00     0.169 HD
ENDROOT
BRANCH   2   5
HETATM    5  C   UNL     1      26.733  43.766  51.410  1.00  0.00     0.035 A 
HETATM    6  C   UNL     1      27.105  42.623  50.679  1.00  0.00     0.046 A 
HETATM    7  C   UNL     1      27.830  41.590  51.309  1.00  0.00     0.030 A 
HETATM    8  C   UNL     1      28.165  41.732  52.649  1.00  0.00     0.063 A 
HETATM    9  C   UNL     1      28.362  40.323  50.925  1.00  0.00     0.156 A 
HETATM   10  N   UNL     1      28.848  40.593  52.974  1.00  0.00    -0.277 N 
HETATM   11  C   UNL     1      27.818  42.853  53.403  1.00  0.00     0.034 A 
HETATM   12  H   UNL     1      29.243  40.352  53.877  1.00  0.00     0.189 HD
HETATM   13  N   UNL     1      28.987  39.720  51.962  1.00  0.00    -0.168 NA
HETATM   14  C   UNL     1      27.095  43.866  52.756  1.00  0.00     0.032 A 
BRANCH   9  15
HETATM   15  C   UNL     1      28.283  39.688  49.604  1.00  0.00     0.270 C 
HETATM   16  N   UNL     1      29.307  40.020  48.761  1.00  0.00    -0.365 N 
HETATM   17  H   UNL     1      30.022  40.656  49.094  1.00  0.00     0.159 HD
HETATM   18  H   UNL     1      29.340  39.634  47.830  1.00  0.00     0.159 HD
HETATM   19  O   UNL     1      27.389  38.922  49.256  1.00  0.00    -0.266 OA
ENDBRANCH   9  15
ENDBRANCH   2   5
BRANCH   1  20
HETATM   20  C   UNL     1      24.177  46.058  49.781  1.00  0.00     0.278 C 
BRANCH  20  21
HETATM   21  O   UNL     1      24.225  47.349  50.392  1.00  0.00    -0.342 OA
BRANCH  21  22
HETATM   22  C   UNL     1      24.940  48.249  49.649  1.00  0.00     0.076 A 
HETATM   23  C   UNL     1      24.296  49.236  48.887  1.00  0.00    -0.021 A 
HETATM   24  C   UNL     1      25.116  50.118  48.148  1.00  0.00     0.010 A 
HETATM   25  C   UNL     1      26.507  49.989  48.126  1.00  0.00     0.001 A 
HETATM   26  C   UNL     1      27.117  48.966  48.836  1.00  0.00     0.003 A 
HETATM   27  C   UNL     1      26.334  48.093  49.586  1.00  0.00     0.037 A 
BRANCH  23  28
HETATM   28  C   UNL     1      22.786  49.431  48.751  1.00  0.00     0.017 C 
HETATM   29  C   UNL     1      22.015  48.479  47.829  1.00  0.00     0.015 C 
BRANCH  28  30
HETATM   30  C   UNL     1      22.419  50.904  48.437  1.00  0.00     0.004 C 
HETATM   31  C   UNL     1      20.928  51.213  48.453  1.00  0.00     0.006 C 
ENDBRANCH  28  30
ENDBRANCH  23  28
ENDBRANCH  21  22
ENDBRANCH  20  21
ENDBRANCH   1  20
TORSDOF 7
ENDMDL
MODEL 9
REMARK VINA RESULT:      -8.1      4.202     10.298
REMARK  7 active torsions:
REMARK  status: ('A' for Active; 'I' for Inactive)
REMARK    1  A    between atoms: C_2  and  C_3 
REMARK    2  A    between atoms: C_3  and  C_4 
REMARK    3  A    between atoms: C_5  and  O_6 
REMARK    4  A    between atoms: O_6  and  C_7 
REMARK    5  A    between atoms: C_7  and  C_8 
REMARK       I    between atoms: C_8  and  N_9 
REMARK    6  A    between atoms: N_9  and  C_10 
REMARK    7  A    between atoms: C_17  and  C_18 
REMARK       I    between atoms: C_18  and  N_19 
ROOT
HETATM    1  C   UNL     1      20.164  47.838  48.684  1.00  0.00     0.246 C 
HETATM    2  N   UNL     1      21.095  48.546  49.441  1.00  0.00    -0.325 N 
HETATM    3  O   UNL     1      20.331  47.430  47.540  1.00  0.00    -0.271 OA
HETATM    4  H   UNL     1      20.831  48.780  50.390  1.00  0.00     0.169 HD
ENDROOT
BRANCH   2   5
HETATM    5  C   UNL     1      22.371  48.997  49.036  1.00  0.00     0.035 A 
HETATM    6  C   UNL     1      23.478  48.281  49.527  1.00  0.00     0.046 A 
HETATM    7  C   UNL     1      24.785  48.686  49.183  1.00  0.00     0.030 A 
HETATM    8  C   UNL     1      24.946  49.791  48.359  1.00  0.00     0.063 A 
HETATM    9  C   UNL     1      26.111  48.243  49.473  1.00  0.00     0.156 A 
HETATM   10  N   UNL     1      26.297  49.939  48.209  1.00  0.00    -0.277 N 
HETATM   11  C   UNL     1      23.872  50.521  47.851  1.00  0.00     0.034 A 
HETATM   12  H   UNL     1      26.780  50.649  47.670  1.00  0.00     0.189 HD
HETATM   13  N   UNL     1      27.032  49.025  48.866  1.00  0.00    -0.168 NA
HETATM   14  C   UNL     1      22.582  50.101  48.208  1.00  0.00     0.032 A 
BRANCH   9  15
HETATM   15  C   UNL     1      26.504  47.103  50.310  1.00  0.00     0.270 C 
HETATM   16  N   UNL     1      27.070  46.069  49.619  1.00  0.00    -0.365 N 
HETATM   17  H   UNL     1      27.174  46.157  48.614  1.00  0.00     0.159 HD
HETATM   18  H   UNL     1      27.373  45.241  50.107  1.00  0.00     0.159 HD
HETATM   19  O   UNL     1      26.354  47.053  51.527  1.00  0.00    -0.266 OA
ENDBRANCH   9  15
ENDBRANCH   2   5
BRANCH   1  20
HETATM   20  C   UNL     1      18.853  47.621  49.454  1.00  0.00     0.278 C 
BRANCH  20  21
HETATM   21  O   UNL     1      18.248  48.859  49.831  1.00  0.00    -0.342 OA
BRANCH  21  22
HETATM   22  C   UNL     1      17.283  49.256  48.944  1.00  0.00     0.076 A 
HETATM   23  C   UNL     1      16.940  50.609  48.802  1.00  0.00    -0.021 A 
HETATM   24  C   UNL     1      15.928  50.923  47.866  1.00  0.00     0.010 A 
HETATM   25  C   UNL     1      15.256  49.934  47.146  1.00  0.00     0.001 A 
HETATM   26  C   UNL     1      15.568  48.597  47.351  1.00  0.00     0.003 A 
HETATM   27  C   UNL     1      16.572  48.261  48.254  1.00  0.00     0.037 A 
BRANCH  23  28
HETATM   28  C   UNL     1      17.531  51.779  49.588  1.00  0.00     0.017 C 
HETATM   29  C   UNL     1      16.622  52.973  49.900  1.00  0.00     0.015 C 
BRANCH  28  30
HETATM   30  C   UNL     1      18.872  52.264  48.981  1.00  0.00     0.004 C 
HETATM   31  C   UNL     1      19.318  51.520  47.729  1.00  0.00     0.006 C 
ENDBRANCH  28  30
ENDBRANCH  23  28
ENDBRANCH  21  22
ENDBRANCH  20  21
ENDBRANCH   1  20
TORSDOF 7
ENDMDL
MODEL 10
REMARK VINA RESULT:      -7.8      4.660      9.217
REMARK  7 active torsions:
REMARK  status: ('A' for Active; 'I' for Inactive)
REMARK    1  A    between atoms: C_2  and  C_3 
REMARK    2  A    between atoms: C_3  and  C_4 
REMARK    3  A    between atoms: C_5  and  O_6 
REMARK    4  A    between atoms: O_6  and  C_7 
REMARK    5  A    between atoms: C_7  and  C_8 
REMARK       I    between atoms: C_8  and  N_9 
REMARK    6  A    between atoms: N_9  and  C_10 
REMARK    7  A    between atoms: C_17  and  C_18 
REMARK       I    between atoms: C_18  and  N_19 
ROOT
HETATM    1  C   UNL     1      21.492  47.056  47.772  1.00  0.00     0.246 C 
HETATM    2  N   UNL     1      22.098  46.920  49.019  1.00  0.00    -0.325 N 
HETATM    3  O   UNL     1      22.024  46.837  46.688  1.00  0.00    -0.271 OA
HETATM    4  H   UNL     1      21.520  47.094  49.832  1.00  0.00     0.169 HD
ENDROOT
BRANCH   2   5
HETATM    5  C   UNL     1      23.443  46.582  49.292  1.00  0.00     0.035 A 
HETATM    6  C   UNL     1      23.812  45.242  49.079  1.00  0.00     0.046 A 
HETATM    7  C   UNL     1      25.132  44.825  49.351  1.00  0.00     0.030 A 
HETATM    8  C   UNL     1      26.043  45.760  49.824  1.00  0.00     0.063 A 
HETATM    9  C   UNL     1      25.863  43.602  49.275  1.00  0.00     0.156 A 
HETATM   10  N   UNL     1      27.213  45.073  49.995  1.00  0.00    -0.277 N 
HETATM   11  C   UNL     1      25.713  47.097  50.042  1.00  0.00     0.034 A 
HETATM   12  H   UNL     1      28.096  45.441  50.331  1.00  0.00     0.189 HD
HETATM   13  N   UNL     1      27.144  43.770  49.674  1.00  0.00    -0.168 NA
HETATM   14  C   UNL     1      24.394  47.488  49.767  1.00  0.00     0.032 A 
BRANCH   9  15
HETATM   15  C   UNL     1      25.363  42.293  48.834  1.00  0.00     0.270 C 
HETATM   16  N   UNL     1      26.059  41.750  47.791  1.00  0.00    -0.365 N 
HETATM   17  H   UNL     1      26.842  42.268  47.408  1.00  0.00     0.159 HD
HETATM   18  H   UNL     1      25.791  40.853  47.417  1.00  0.00     0.159 HD
HETATM   19  O   UNL     1      24.406  41.712  49.337  1.00  0.00    -0.266 OA
ENDBRANCH   9  15
ENDBRANCH   2   5
BRANCH   1  20
HETATM   20  C   UNL     1      20.038  47.533  47.897  1.00  0.00     0.278 C 
BRANCH  20  21
HETATM   21  O   UNL     1      19.825  48.276  49.098  1.00  0.00    -0.342 OA
BRANCH  21  22
HETATM   22  C   UNL     1      19.488  49.580  48.848  1.00  0.00     0.076 A 
HETATM   23  C   UNL     1      20.467  50.583  48.781  1.00  0.00    -0.021 A 
HETATM   24  C   UNL     1      20.025  51.900  48.524  1.00  0.00     0.010 A 
HETATM   25  C   UNL     1      18.669  52.212  48.393  1.00  0.00     0.001 A 
HETATM   26  C   UNL     1      17.715  51.214  48.528  1.00  0.00     0.003 A 
HETATM   27  C   UNL     1      18.124  49.905  48.764  1.00  0.00     0.037 A 
BRANCH  23  28
HETATM   28  C   UNL     1      21.969  50.396  48.994  1.00  0.00     0.017 C 
HETATM   29  C   UNL     1      22.648  51.202  50.106  1.00  0.00     0.015 C 
BRANCH  28  30
HETATM   30  C   UNL     1      22.761  50.530  47.668  1.00  0.00     0.004 C 
HETATM   31  C   UNL     1      24.265  50.326  47.794  1.00  0.00     0.006 C 
ENDBRANCH  28  30
ENDBRANCH  23  28
ENDBRANCH  21  22
ENDBRANCH  20  21
ENDBRANCH   1  20
TORSDOF 7
ENDMDL
