MODEL 1
REMARK VINA RESULT:      -9.8      0.000      0.000
REMARK  8 active torsions:
REMARK  status: ('A' for Active; 'I' for Inactive)
REMARK    1  A    between atoms: O_2  and  C_3 
REMARK    2  A    between atoms: C_5  and  N_6 
REMARK       I    between atoms: N_6  and  C_7 
REMARK    3  A    between atoms: C_7  and  C_8 
REMARK    4  A    between atoms: C_8  and  O_9 
REMARK    5  A    between atoms: O_9  and  C_10 
REMARK    6  A    between atoms: C_13  and  C_14 
REMARK       I    between atoms: C_14  and  N_15 
REMARK    7  A    between atoms: N_15  and  C_16 
REMARK    8  A    between atoms: C_19  and  N_20 
ROOT
HETATM    1  C   UNL     1      22.529  46.206  48.460  1.00  0.00     0.069 A 
HETATM    2  C   UNL     1      23.229  45.179  49.087  1.00  0.00     0.038 A 
HETATM    3  C   UNL     1      24.265  45.486  49.978  1.00  0.00     0.020 A 
HETATM    4  C   UNL     1      24.612  46.817  50.243  1.00  0.00     0.032 A 
HETATM    5  C   UNL     1      23.936  47.842  49.567  1.00  0.00     0.020 A 
HETATM    6  C   UNL     1      22.915  47.532  48.666  1.00  0.00     0.038 A 
ENDROOT
BRANCH   4   7
HETATM    7  C   UNL     1      25.586  47.096  51.348  1.00  0.00     0.256 C 
HETATM    8  N   UNL     1      25.289  46.519  52.568  1.00  0.00    -0.323 N 
HETATM    9  H   UNL     1      24.336  46.226  52.730  1.00  0.00     0.169 HD
HETATM   10  O   UNL     1      26.577  47.772  51.095  1.00  0.00    -0.267 OA
BRANCH   8  11
HETATM   11  C   UNL     1      26.214  46.152  53.567  1.00  0.00     0.035 A 
HETATM   12  C   UNL     1      26.854  47.059  54.406  1.00  0.00     0.032 A 
HETATM   13  C   UNL     1      27.896  46.638  55.247  1.00  0.00     0.031 A 
HETATM   14  C   UNL     1      28.332  45.308  55.277  1.00  0.00     0.030 A 
HETATM   15  C   UNL     1      27.633  44.401  54.467  1.00  0.00     0.031 A 
HETATM   16  C   UNL     1      26.588  44.810  53.627  1.00  0.00     0.032 A 
BRANCH  14  17
HETATM   17  N   UNL     1      29.454  44.885  55.988  1.00  0.00    -0.381 N 
HETATM   18  C   UNL     1      30.043  45.839  56.940  1.00  0.00     0.123 C 
HETATM   19  C   UNL     1      30.756  45.060  58.046  1.00  0.00     0.020 C 
HETATM   20  C   UNL     1      31.791  44.096  57.469  1.00  0.00     0.003 C 
HETATM   21  C   UNL     1      31.166  43.192  56.409  1.00  0.00     0.020 C 
HETATM   22  C   UNL     1      30.428  43.999  55.340  1.00  0.00     0.123 C 
ENDBRANCH  14  17
ENDBRANCH   8  11
ENDBRANCH   4   7
BRANCH   1  23
HETATM   23  O   UNL     1      21.401  46.063  47.700  1.00  0.00    -0.342 OA
BRANCH  23  24
HETATM   24  C   UNL     1      20.160  46.453  48.278  1.00  0.00     0.278 C 
BRANCH  24  25
HETATM   25  C   UNL     1      19.578  47.836  47.913  1.00  0.00     0.246 C 
HETATM   26  N   UNL     1      19.676  48.762  48.936  1.00  0.00    -0.325 N 
HETATM   27  H   UNL     1      20.102  48.425  49.791  1.00  0.00     0.169 HD
HETATM   28  O   UNL     1      19.092  48.027  46.801  1.00  0.00    -0.271 OA
BRANCH  26  29
HETATM   29  C   UNL     1      19.119  50.055  48.997  1.00  0.00     0.037 A 
HETATM   30  C   UNL     1      17.936  50.366  49.675  1.00  0.00     0.066 A 
HETATM   31  C   UNL     1      17.463  51.683  49.707  1.00  0.00     0.070 A 
HETATM   32  C   UNL     1      18.189  52.691  49.068  1.00  0.00     0.037 A 
HETATM   33  C   UNL     1      19.366  52.393  48.389  1.00  0.00     0.005 A 
HETATM   34  C   UNL     1      19.824  51.076  48.346  1.00  0.00     0.029 A 
BRANCH  31  35
HETATM   35  O   UNL     1      16.320  52.113  50.326  1.00  0.00    -0.356 OA
HETATM   36  C   UNL     1      15.618  53.183  49.705  1.00  0.00     0.210 C 
ENDBRANCH  31  35
ENDBRANCH  26  29
ENDBRANCH  24  25
ENDBRANCH  23  24
ENDBRANCH   1  23
TORSDOF 8
ENDMDL
MODEL 2
REMARK VINA RESULT:      -9.6      2.476     12.455
REMARK  8 active torsions:
REMARK  status: ('A' for Active; 'I' for Inactive)
REMARK    1  A    between atoms: O_2  and  C_3 
REMARK    2  A    between atoms: C_5  and  N_6 
REMARK       I    between atoms: N_6  and  C_7 
REMARK    3  A    between atoms: C_7  and  C_8 
REMARK    4  A    between atoms: C_8  and  O_9 
REMARK    5  A    between atoms: O_9  and  C_10 
REMARK    6  A    between atoms: C_13  and  C_14 
REMARK       I    between atoms: C_14  and  N_15 
REMARK    7  A    between atoms: N_15  and  C_16 
REMARK    8  A    between atoms: C_19  and  N_20 
ROOT
HETATM    1  C   UNL     1      25.734  46.233  50.166  1.00  0.00     0.069 A 
HETATM    2  C   UNL     1      26.256  47.503  49.933  1.00  0.00     0.038 A 
HETATM    3  C   UNL     1      25.405  48.543  49.537  1.00  0.00     0.020 A 
HETATM    4  C   UNL     1      24.032  48.319  49.365  1.00  0.00     0.032 A 
HETATM    5  C   UNL     1      23.526  47.026  49.552  1.00  0.00     0.020 A 
HETATM    6  C   UNL     1      24.381  45.987  49.930  1.00  0.00     0.038 A 
ENDROOT
BRANCH   4   7
HETATM    7  C   UNL     1      23.138  49.500  49.137  1.00  0.00     0.256 C 
HETATM    8  N   UNL     1      21.851  49.207  48.729  1.00  0.00    -0.323 N 
HETATM    9  H   UNL     1      21.682  48.298  48.323  1.00  0.00     0.169 HD
HETATM   10  O   UNL     1      23.584  50.621  49.356  1.00  0.00    -0.267 OA
BRANCH   8  11
HETATM   11  C   UNL     1      20.702  49.992  48.958  1.00  0.00     0.035 A 
HETATM   12  C   UNL     1      19.635  49.596  49.758  1.00  0.00     0.032 A 
HETATM   13  C   UNL     1      18.450  50.348  49.789  1.00  0.00     0.031 A 
HETATM   14  C   UNL     1      18.292  51.512  49.028  1.00  0.00     0.030 A 
HETATM   15  C   UNL     1      19.402  51.924  48.275  1.00  0.00     0.031 A 
HETATM   16  C   UNL     1      20.590  51.183  48.241  1.00  0.00     0.032 A 
BRANCH  14  17
HETATM   17  N   UNL     1      17.084  52.200  48.922  1.00  0.00    -0.381 N 
HETATM   18  C   UNL     1      16.504  52.730  50.165  1.00  0.00     0.123 C 
HETATM   19  C   UNL     1      15.641  53.947  49.830  1.00  0.00     0.020 C 
HETATM   20  C   UNL     1      14.577  53.606  48.788  1.00  0.00     0.003 C 
HETATM   21  C   UNL     1      15.207  52.961  47.554  1.00  0.00     0.020 C 
HETATM   22  C   UNL     1      16.094  51.773  47.926  1.00  0.00     0.123 C 
ENDBRANCH  14  17
ENDBRANCH   8  11
ENDBRANCH   4   7
BRANCH   1  23
HETATM   23  O   UNL     1      26.411  45.174  50.708  1.00  0.00    -0.342 OA
BRANCH  23  24
HETATM   24  C   UNL     1      25.759  44.428  51.730  1.00  0.00     0.278 C 
BRANCH  24  25
HETATM   25  C   UNL     1      26.471  44.262  53.090  1.00  0.00     0.246 C 
HETATM   26  N   UNL     1      27.794  44.667  53.073  1.00  0.00    -0.325 N 
HETATM   27  H   UNL     1      28.134  45.008  52.182  1.00  0.00     0.169 HD
HETATM   28  O   UNL     1      25.861  43.809  54.056  1.00  0.00    -0.271 OA
BRANCH  26  29
HETATM   29  C   UNL     1      28.765  44.514  54.083  1.00  0.00     0.037 A 
HETATM   30  C   UNL     1      28.971  45.435  55.115  1.00  0.00     0.066 A 
HETATM   31  C   UNL     1      29.941  45.196  56.095  1.00  0.00     0.070 A 
HETATM   32  C   UNL     1      30.696  44.022  56.045  1.00  0.00     0.037 A 
HETATM   33  C   UNL     1      30.501  43.100  55.021  1.00  0.00     0.005 A 
HETATM   34  C   UNL     1      29.544  43.351  54.038  1.00  0.00     0.029 A 
BRANCH  31  35
HETATM   35  O   UNL     1      30.244  46.019  57.147  1.00  0.00    -0.356 OA
HETATM   36  C   UNL     1      30.624  45.390  58.364  1.00  0.00     0.210 C 
ENDBRANCH  31  35
ENDBRANCH  26  29
ENDBRANCH  24  25
ENDBRANCH  23  24
ENDBRANCH   1  23
TORSDOF 8
ENDMDL
MODEL 3
REMARK VINA RESULT:      -9.2      1.580      1.980
REMARK  8 active torsions:
REMARK  status: ('A' for Active; 'I' for Inactive)
REMARK    1  A    between atoms: O_2  and  C_3 
REMARK    2  A    between atoms: C_5  and  N_6 
REMARK       I    between atoms: N_6  and  C_7 
REMARK    3  A    between atoms: C_7  and  C_8 
REMARK    4  A    between atoms: C_8  and  O_9 
REMARK    5  A    between atoms: O_9  and  C_10 
REMARK    6  A    between atoms: C_13  and  C_14 
REMARK       I    between atoms: C_14  and  N_15 
REMARK    7  A    between atoms: N_15  and  C_16 
REMARK    8  A    between atoms: C_19  and  N_20 
ROOT
HETATM    1  C   UNL     1      22.673  46.757  48.348  1.00  0.00     0.069 A 
HETATM    2  C   UNL     1      23.588  47.405  49.172  1.00  0.00     0.038 A 
HETATM    3  C   UNL     1      24.283  46.679  50.148  1.00  0.00     0.020 A 
HETATM    4  C   UNL     1      24.063  45.305  50.311  1.00  0.00     0.032 A 
HETATM    5  C   UNL     1      23.101  44.672  49.512  1.00  0.00     0.020 A 
HETATM    6  C   UNL     1      22.398  45.403  48.551  1.00  0.00     0.038 A 
ENDROOT
BRANCH   4   7
HETATM    7  C   UNL     1      24.970  44.539  51.226  1.00  0.00     0.256 C 
HETATM    8  N   UNL     1      26.148  45.174  51.570  1.00  0.00    -0.323 N 
HETATM    9  H   UNL     1      26.466  45.928  50.978  1.00  0.00     0.169 HD
HETATM   10  O   UNL     1      24.601  43.442  51.629  1.00  0.00    -0.267 OA
BRANCH   8  11
HETATM   11  C   UNL     1      26.886  44.981  52.756  1.00  0.00     0.035 A 
HETATM   12  C   UNL     1      26.893  45.875  53.823  1.00  0.00     0.032 A 
HETATM   13  C   UNL     1      27.792  45.707  54.887  1.00  0.00     0.031 A 
HETATM   14  C   UNL     1      28.709  44.649  54.922  1.00  0.00     0.030 A 
HETATM   15  C   UNL     1      28.643  43.728  53.866  1.00  0.00     0.031 A 
HETATM   16  C   UNL     1      27.746  43.884  52.801  1.00  0.00     0.032 A 
BRANCH  14  17
HETATM   17  N   UNL     1      29.710  44.534  55.885  1.00  0.00    -0.381 N 
HETATM   18  C   UNL     1      30.013  45.732  56.683  1.00  0.00     0.123 C 
HETATM   19  C   UNL     1      30.573  45.298  58.038  1.00  0.00     0.020 C 
HETATM   20  C   UNL     1      31.785  44.384  57.872  1.00  0.00     0.003 C 
HETATM   21  C   UNL     1      31.462  43.207  56.954  1.00  0.00     0.020 C 
HETATM   22  C   UNL     1      30.869  43.673  55.624  1.00  0.00     0.123 C 
ENDBRANCH  14  17
ENDBRANCH   8  11
ENDBRANCH   4   7
BRANCH   1  23
HETATM   23  O   UNL     1      22.048  47.298  47.258  1.00  0.00    -0.342 OA
BRANCH  23  24
HETATM   24  C   UNL     1      20.820  46.712  46.842  1.00  0.00     0.278 C 
BRANCH  24  25
HETATM   25  C   UNL     1      19.509  47.203  47.494  1.00  0.00     0.246 C 
HETATM   26  N   UNL     1      19.155  48.487  47.120  1.00  0.00    -0.325 N 
HETATM   27  H   UNL     1      19.792  48.947  46.481  1.00  0.00     0.169 HD
HETATM   28  O   UNL     1      18.888  46.471  48.262  1.00  0.00    -0.271 OA
BRANCH  26  29
HETATM   29  C   UNL     1      18.116  49.289  47.634  1.00  0.00     0.037 A 
HETATM   30  C   UNL     1      18.267  50.170  48.709  1.00  0.00     0.066 A 
HETATM   31  C   UNL     1      17.190  50.950  49.143  1.00  0.00     0.070 A 
HETATM   32  C   UNL     1      15.962  50.855  48.485  1.00  0.00     0.037 A 
HETATM   33  C   UNL     1      15.799  49.980  47.415  1.00  0.00     0.005 A 
HETATM   34  C   UNL     1      16.872  49.193  46.998  1.00  0.00     0.029 A 
BRANCH  31  35
HETATM   35  O   UNL     1      17.207  51.840  50.185  1.00  0.00    -0.356 OA
HETATM   36  C   UNL     1      16.410  53.009  50.042  1.00  0.00     0.210 C 
ENDBRANCH  31  35
ENDBRANCH  26  29
ENDBRANCH  24  25
ENDBRANCH  23  24
ENDBRANCH   1  23
TORSDOF 8
ENDMDL
MODEL 4
REMARK VINA RESULT:      -9.0      1.978      2.718
REMARK  8 active torsions:
REMARK  status: ('A' for Active; 'I' for Inactive)
REMARK    1  A    between atoms: O_2  and  C_3 
REMARK    2  A    between atoms: C_5  and  N_6 
REMARK       I    between atoms: N_6  and  C_7 
REMARK    3  A    between atoms: C_7  and  C_8 
REMARK    4  A    between atoms: C_8  and  O_9 
REMARK    5  A    between atoms: O_9  and  C_10 
REMARK    6  A    between atoms: C_13  and  C_14 
REMARK       I    between atoms: C_14  and  N_15 
REMARK    7  A    between atoms: N_15  and  C_16 
REMARK    8  A    between atoms: C_19  and  N_20 
ROOT
HETATM    1  C   UNL     1      22.271  44.132  48.535  1.00  0.00     0.069 A 
HETATM    2  C   UNL     1      22.709  45.441  48.355  1.00  0.00     0.038 A 
HETATM    3  C   UNL     1      23.728  45.952  49.170  1.00  0.00     0.020 A 
HETATM    4  C   UNL     1      24.308  45.163  50.172  1.00  0.00     0.032 A 
HETATM    5  C   UNL     1      23.823  43.865  50.379  1.00  0.00     0.020 A 
HETATM    6  C   UNL     1      22.795  43.364  49.576  1.00  0.00     0.038 A 
ENDROOT
BRANCH   4   7
HETATM    7  C   UNL     1      25.522  45.684  50.879  1.00  0.00     0.256 C 
HETATM    8  N   UNL     1      25.552  45.482  52.246  1.00  0.00    -0.323 N 
HETATM    9  H   UNL     1      24.676  45.295  52.713  1.00  0.00     0.169 HD
HETATM   10  O   UNL     1      26.405  46.211  50.211  1.00  0.00    -0.267 OA
BRANCH   8  11
HETATM   11  C   UNL     1      26.705  45.356  53.047  1.00  0.00     0.035 A 
HETATM   12  C   UNL     1      27.559  44.257  53.016  1.00  0.00     0.032 A 
HETATM   13  C   UNL     1      28.579  44.120  53.970  1.00  0.00     0.031 A 
HETATM   14  C   UNL     1      28.779  45.068  54.981  1.00  0.00     0.030 A 
HETATM   15  C   UNL     1      27.945  46.196  54.957  1.00  0.00     0.031 A 
HETATM   16  C   UNL     1      26.927  46.345  54.006  1.00  0.00     0.032 A 
BRANCH  14  17
HETATM   17  N   UNL     1      29.683  44.893  56.028  1.00  0.00    -0.381 N 
HETATM   18  C   UNL     1      29.791  45.984  57.009  1.00  0.00     0.123 C 
HETATM   19  C   UNL     1      30.247  45.403  58.348  1.00  0.00     0.020 C 
HETATM   20  C   UNL     1      31.549  44.619  58.201  1.00  0.00     0.003 C 
HETATM   21  C   UNL     1      31.431  43.565  57.102  1.00  0.00     0.020 C 
HETATM   22  C   UNL     1      30.937  44.170  55.787  1.00  0.00     0.123 C 
ENDBRANCH  14  17
ENDBRANCH   8  11
ENDBRANCH   4   7
BRANCH   1  23
HETATM   23  O   UNL     1      21.408  43.454  47.718  1.00  0.00    -0.342 OA
BRANCH  23  24
HETATM   24  C   UNL     1      20.610  44.219  46.821  1.00  0.00     0.278 C 
BRANCH  24  25
HETATM   25  C   UNL     1      19.401  44.996  47.387  1.00  0.00     0.246 C 
HETATM   26  N   UNL     1      19.425  46.347  47.087  1.00  0.00    -0.325 N 
HETATM   27  H   UNL     1      20.224  46.660  46.550  1.00  0.00     0.169 HD
HETATM   28  O   UNL     1      18.536  44.408  48.032  1.00  0.00    -0.271 OA
BRANCH  26  29
HETATM   29  C   UNL     1      18.572  47.360  47.567  1.00  0.00     0.037 A 
HETATM   30  C   UNL     1      17.192  47.393  47.344  1.00  0.00     0.066 A 
HETATM   31  C   UNL     1      16.412  48.424  47.878  1.00  0.00     0.070 A 
HETATM   32  C   UNL     1      17.018  49.418  48.650  1.00  0.00     0.037 A 
HETATM   33  C   UNL     1      18.391  49.397  48.877  1.00  0.00     0.005 A 
HETATM   34  C   UNL     1      19.166  48.375  48.329  1.00  0.00     0.029 A 
BRANCH  31  35
HETATM   35  O   UNL     1      15.059  48.573  47.725  1.00  0.00    -0.356 OA
HETATM   36  C   UNL     1      14.550  48.481  46.400  1.00  0.00     0.210 C 
ENDBRANCH  31  35
ENDBRANCH  26  29
ENDBRANCH  24  25
ENDBRANCH  23  24
ENDBRANCH   1  23
TORSDOF 8
ENDMDL
MODEL 5
REMARK VINA RESULT:      -9.0      2.452      3.368
REMARK  8 active torsions:
REMARK  status: ('A' for Active; 'I' for Inactive)
REMARK    1  A    between atoms: O_2  and  C_3 
REMARK    2  A    between atoms: C_5  and  N_6 
REMARK       I    between atoms: N_6  and  C_7 
REMARK    3  A    between atoms: C_7  and  C_8 
REMARK    4  A    between atoms: C_8  and  O_9 
REMARK    5  A    between atoms: O_9  and  C_10 
REMARK    6  A    between atoms: C_13  and  C_14 
REMARK       I    between atoms: C_14  and  N_15 
REMARK    7  A    between atoms: N_15  and  C_16 
REMARK    8  A    between atoms: C_19  and  N_20 
ROOT
HETATM    1  C   UNL     1      22.580  43.367  48.686  1.00  0.00     0.069 A 
HETATM    2  C   UNL     1      22.770  43.885  49.964  1.00  0.00     0.038 A 
HETATM    3  C   UNL     1      23.908  43.528  50.698  1.00  0.00     0.020 A 
HETATM    4  C   UNL     1      24.857  42.646  50.165  1.00  0.00     0.032 A 
HETATM    5  C   UNL     1      24.631  42.089  48.899  1.00  0.00     0.020 A 
HETATM    6  C   UNL     1      23.486  42.435  48.176  1.00  0.00     0.038 A 
ENDROOT
BRANCH   4   7
HETATM    7  C   UNL     1      26.147  42.453  50.902  1.00  0.00     0.256 C 
HETATM    8  N   UNL     1      26.926  43.585  51.055  1.00  0.00    -0.323 N 
HETATM    9  H   UNL     1      26.755  44.360  50.430  1.00  0.00     0.169 HD
HETATM   10  O   UNL     1      26.406  41.339  51.344  1.00  0.00    -0.267 OA
BRANCH   8  11
HETATM   11  C   UNL     1      27.841  43.836  52.097  1.00  0.00     0.035 A 
HETATM   12  C   UNL     1      29.046  43.158  52.256  1.00  0.00     0.032 A 
HETATM   13  C   UNL     1      29.815  43.333  53.417  1.00  0.00     0.031 A 
HETATM   14  C   UNL     1      29.409  44.184  54.452  1.00  0.00     0.030 A 
HETATM   15  C   UNL     1      28.222  44.902  54.244  1.00  0.00     0.031 A 
HETATM   16  C   UNL     1      27.450  44.738  53.086  1.00  0.00     0.032 A 
BRANCH  14  17
HETATM   17  N   UNL     1      30.070  44.271  55.676  1.00  0.00    -0.381 N 
HETATM   18  C   UNL     1      30.137  45.597  56.309  1.00  0.00     0.123 C 
HETATM   19  C   UNL     1      30.253  45.418  57.823  1.00  0.00     0.020 C 
HETATM   20  C   UNL     1      31.444  44.536  58.190  1.00  0.00     0.003 C 
HETATM   21  C   UNL     1      31.395  43.209  57.434  1.00  0.00     0.020 C 
HETATM   22  C   UNL     1      31.240  43.421  55.928  1.00  0.00     0.123 C 
ENDBRANCH  14  17
ENDBRANCH   8  11
ENDBRANCH   4   7
BRANCH   1  23
HETATM   23  O   UNL     1      21.611  43.749  47.799  1.00  0.00    -0.342 OA
BRANCH  23  24
HETATM   24  C   UNL     1      21.902  44.839  46.932  1.00  0.00     0.278 C 
BRANCH  24  25
HETATM   25  C   UNL     1      21.353  46.237  47.294  1.00  0.00     0.246 C 
HETATM   26  N   UNL     1      22.322  47.105  47.764  1.00  0.00    -0.325 N 
HETATM   27  H   UNL     1      23.259  46.723  47.823  1.00  0.00     0.169 HD
HETATM   28  O   UNL     1      20.158  46.487  47.152  1.00  0.00    -0.271 OA
BRANCH  26  29
HETATM   29  C   UNL     1      22.147  48.388  48.319  1.00  0.00     0.037 A 
HETATM   30  C   UNL     1      21.049  48.760  49.101  1.00  0.00     0.066 A 
HETATM   31  C   UNL     1      20.963  50.050  49.635  1.00  0.00     0.070 A 
HETATM   32  C   UNL     1      21.991  50.965  49.396  1.00  0.00     0.037 A 
HETATM   33  C   UNL     1      23.088  50.607  48.618  1.00  0.00     0.005 A 
HETATM   34  C   UNL     1      23.160  49.325  48.073  1.00  0.00     0.029 A 
BRANCH  31  35
HETATM   35  O   UNL     1      19.940  50.537  50.406  1.00  0.00    -0.356 OA
HETATM   36  C   UNL     1      18.967  51.338  49.748  1.00  0.00     0.210 C 
ENDBRANCH  31  35
ENDBRANCH  26  29
ENDBRANCH  24  25
ENDBRANCH  23  24
ENDBRANCH   1  23
TORSDOF 8
ENDMDL
MODEL 6
REMARK VINA RESULT:      -8.9      6.167      8.875
REMARK  8 active torsions:
REMARK  status: ('A' for Active; 'I' for Inactive)
REMARK    1  A    between atoms: O_2  and  C_3 
REMARK    2  A    between atoms: C_5  and  N_6 
REMARK       I    between atoms: N_6  and  C_7 
REMARK    3  A    between atoms: C_7  and  C_8 
REMARK    4  A    between atoms: C_8  and  O_9 
REMARK    5  A    between atoms: O_9  and  C_10 
REMARK    6  A    between atoms: C_13  and  C_14 
REMARK       I    between atoms: C_14  and  N_15 
REMARK    7  A    between atoms: N_15  and  C_16 
REMARK    8  A    between atoms: C_19  and  N_20 
ROOT
HETATM    1  C   UNL     1      22.902  41.746  48.455  1.00  0.00     0.069 A 
HETATM    2  C   UNL     1      22.720  42.706  49.446  1.00  0.00     0.038 A 
HETATM    3  C   UNL     1      23.833  43.250  50.101  1.00  0.00     0.020 A 
HETATM    4  C   UNL     1      25.131  42.833  49.774  1.00  0.00     0.032 A 
HETATM    5  C   UNL     1      25.299  41.829  48.812  1.00  0.00     0.020 A 
HETATM    6  C   UNL     1      24.186  41.277  48.173  1.00  0.00     0.038 A 
ENDROOT
BRANCH   4   7
HETATM    7  C   UNL     1      26.290  43.584  50.356  1.00  0.00     0.256 C 
HETATM    8  N   UNL     1      26.159  43.956  51.681  1.00  0.00    -0.323 N 
HETATM    9  H   UNL     1      25.227  43.986  52.070  1.00  0.00     0.169 HD
HETATM   10  O   UNL     1      27.271  43.783  49.648  1.00  0.00    -0.267 OA
BRANCH   8  11
HETATM   11  C   UNL     1      27.208  44.155  52.601  1.00  0.00     0.035 A 
HETATM   12  C   UNL     1      28.301  43.303  52.733  1.00  0.00     0.032 A 
HETATM   13  C   UNL     1      29.206  43.464  53.792  1.00  0.00     0.031 A 
HETATM   14  C   UNL     1      29.053  44.474  54.750  1.00  0.00     0.030 A 
HETATM   15  C   UNL     1      27.978  45.357  54.564  1.00  0.00     0.031 A 
HETATM   16  C   UNL     1      27.071  45.207  53.506  1.00  0.00     0.032 A 
BRANCH  14  17
HETATM   17  N   UNL     1      29.846  44.574  55.893  1.00  0.00    -0.381 N 
HETATM   18  C   UNL     1      29.813  45.851  56.621  1.00  0.00     0.123 C 
HETATM   19  C   UNL     1      30.142  45.591  58.092  1.00  0.00     0.020 C 
HETATM   20  C   UNL     1      31.478  44.866  58.243  1.00  0.00     0.003 C 
HETATM   21  C   UNL     1      31.513  43.600  57.391  1.00  0.00     0.020 C 
HETATM   22  C   UNL     1      31.142  43.886  55.935  1.00  0.00     0.123 C 
ENDBRANCH  14  17
ENDBRANCH   8  11
ENDBRANCH   4   7
BRANCH   1  23
HETATM   23  O   UNL     1      21.930  41.251  47.628  1.00  0.00    -0.342 OA
BRANCH  23  24
HETATM   24  C   UNL     1      22.269  40.143  46.801  1.00  0.00     0.278 C 
BRANCH  24  25
HETATM   25  C   UNL     1      21.189  39.075  46.520  1.00  0.00     0.246 C 
HETATM   26  N   UNL     1      20.535  38.641  47.659  1.00  0.00    -0.325 N 
HETATM   27  H   UNL     1      20.844  39.061  48.527  1.00  0.00     0.169 HD
HETATM   28  O   UNL     1      20.981  38.694  45.371  1.00  0.00    -0.271 OA
BRANCH  26  29
HETATM   29  C   UNL     1      19.614  37.581  47.784  1.00  0.00     0.037 A 
HETATM   30  C   UNL     1      19.938  36.236  47.582  1.00  0.00     0.066 A 
HETATM   31  C   UNL     1      18.968  35.241  47.751  1.00  0.00     0.070 A 
HETATM   32  C   UNL     1      17.675  35.598  48.138  1.00  0.00     0.037 A 
HETATM   33  C   UNL     1      17.341  36.933  48.340  1.00  0.00     0.005 A 
HETATM   34  C   UNL     1      18.307  37.922  48.154  1.00  0.00     0.029 A 
BRANCH  31  35
HETATM   35  O   UNL     1      19.156  33.895  47.576  1.00  0.00    -0.356 OA
HETATM   36  C   UNL     1      18.066  33.162  47.032  1.00  0.00     0.210 C 
ENDBRANCH  31  35
ENDBRANCH  26  29
ENDBRANCH  24  25
ENDBRANCH  23  24
ENDBRANCH   1  23
TORSDOF 8
ENDMDL
MODEL 7
REMARK VINA RESULT:      -8.8      2.763      4.823
REMARK  8 active torsions:
REMARK  status: ('A' for Active; 'I' for Inactive)
REMARK    1  A    between atoms: O_2  and  C_3 
REMARK    2  A    between atoms: C_5  and  N_6 
REMARK       I    between atoms: N_6  and  C_7 
REMARK    3  A    between atoms: C_7  and  C_8 
REMARK    4  A    between atoms: C_8  and  O_9 
REMARK    5  A    between atoms: O_9  and  C_10 
REMARK    6  A    between atoms: C_13  and  C_14 
REMARK       I    between atoms: C_14  and  N_15 
REMARK    7  A    between atoms: N_15  and  C_16 
REMARK    8  A    between atoms: C_19  and  N_20 
ROOT
HETATM    1  C   UNL     1      20.848  51.040  48.773  1.00  0.00     0.069 A 
HETATM    2  C   UNL     1      22.204  51.190  49.051  1.00  0.00     0.038 A 
HETATM    3  C   UNL     1      23.007  50.057  49.232  1.00  0.00     0.020 A 
HETATM    4  C   UNL     1      22.461  48.770  49.145  1.00  0.00     0.032 A 
HETATM    5  C   UNL     1      21.085  48.631  48.917  1.00  0.00     0.020 A 
HETATM    6  C   UNL     1      20.284  49.764  48.754  1.00  0.00     0.038 A 
ENDROOT
BRANCH   4   7
HETATM    7  C   UNL     1      23.392  47.596  49.147  1.00  0.00     0.256 C 
HETATM    8  N   UNL     1      24.660  47.838  49.640  1.00  0.00    -0.323 N 
HETATM    9  H   UNL     1      24.977  48.796  49.672  1.00  0.00     0.169 HD
HETATM   10  O   UNL     1      22.968  46.514  48.755  1.00  0.00    -0.267 OA
BRANCH   8  11
HETATM   11  C   UNL     1      25.514  46.896  50.251  1.00  0.00     0.035 A 
HETATM   12  C   UNL     1      26.485  46.170  49.570  1.00  0.00     0.032 A 
HETATM   13  C   UNL     1      27.168  45.121  50.207  1.00  0.00     0.031 A 
HETATM   14  C   UNL     1      26.904  44.766  51.535  1.00  0.00     0.030 A 
HETATM   15  C   UNL     1      25.963  45.550  52.219  1.00  0.00     0.031 A 
HETATM   16  C   UNL     1      25.280  46.601  51.594  1.00  0.00     0.032 A 
BRANCH  14  17
HETATM   17  N   UNL     1      27.454  43.642  52.152  1.00  0.00    -0.381 N 
HETATM   18  C   UNL     1      28.445  43.878  53.212  1.00  0.00     0.123 C 
HETATM   19  C   UNL     1      28.426  42.695  54.181  1.00  0.00     0.020 C 
HETATM   20  C   UNL     1      28.657  41.374  53.449  1.00  0.00     0.003 C 
HETATM   21  C   UNL     1      27.676  41.212  52.290  1.00  0.00     0.020 C 
HETATM   22  C   UNL     1      27.691  42.428  51.362  1.00  0.00     0.123 C 
ENDBRANCH  14  17
ENDBRANCH   8  11
ENDBRANCH   4   7
BRANCH   1  23
HETATM   23  O   UNL     1      19.986  52.040  48.417  1.00  0.00    -0.342 OA
BRANCH  23  24
HETATM   24  C   UNL     1      18.621  51.693  48.212  1.00  0.00     0.278 C 
BRANCH  24  25
HETATM   25  C   UNL     1      17.598  52.038  49.317  1.00  0.00     0.246 C 
HETATM   26  N   UNL     1      16.673  52.993  48.934  1.00  0.00    -0.325 N 
HETATM   27  H   UNL     1      16.782  53.353  47.993  1.00  0.00     0.169 HD
HETATM   28  O   UNL     1      17.656  51.478  50.410  1.00  0.00    -0.271 OA
BRANCH  26  29
HETATM   29  C   UNL     1      15.708  53.641  49.731  1.00  0.00     0.037 A 
HETATM   30  C   UNL     1      15.898  54.891  50.327  1.00  0.00     0.066 A 
HETATM   31  C   UNL     1      14.877  55.477  51.085  1.00  0.00     0.070 A 
HETATM   32  C   UNL     1      13.659  54.810  51.231  1.00  0.00     0.037 A 
HETATM   33  C   UNL     1      13.460  53.565  50.644  1.00  0.00     0.005 A 
HETATM   34  C   UNL     1      14.486  52.978  49.904  1.00  0.00     0.029 A 
BRANCH  31  35
HETATM   35  O   UNL     1      14.941  56.687  51.724  1.00  0.00    -0.356 OA
HETATM   36  C   UNL     1      13.755  57.135  52.367  1.00  0.00     0.210 C 
ENDBRANCH  31  35
ENDBRANCH  26  29
ENDBRANCH  24  25
ENDBRANCH  23  24
ENDBRANCH   1  23
TORSDOF 8
ENDMDL
MODEL 8
REMARK VINA RESULT:      -8.7      2.185      4.217
REMARK  8 active torsions:
REMARK  status: ('A' for Active; 'I' for Inactive)
REMARK    1  A    between atoms: O_2  and  C_3 
REMARK    2  A    between atoms: C_5  and  N_6 
REMARK       I    between atoms: N_6  and  C_7 
REMARK    3  A    between atoms: C_7  and  C_8 
REMARK    4  A    between atoms: C_8  and  O_9 
REMARK    5  A    between atoms: O_9  and  C_10 
REMARK    6  A    between atoms: C_13  and  C_14 
REMARK       I    between atoms: C_14  and  N_15 
REMARK    7  A    between atoms: N_15  and  C_16 
REMARK    8  A    between atoms: C_19  and  N_20 
ROOT
HETATM    1  C   UNL     1      20.216  49.544  47.998  1.00  0.00     0.069 A 
HETATM    2  C   UNL     1      20.017  48.223  47.605  1.00  0.00     0.038 A 
HETATM    3  C   UNL     1      20.994  47.259  47.886  1.00  0.00     0.020 A 
HETATM    4  C   UNL     1      22.175  47.609  48.554  1.00  0.00     0.032 A 
HETATM    5  C   UNL     1      22.388  48.951  48.898  1.00  0.00     0.020 A 
HETATM    6  C   UNL     1      21.420  49.912  48.602  1.00  0.00     0.038 A 
ENDROOT
BRANCH   4   7
HETATM    7  C   UNL     1      23.092  46.514  49.006  1.00  0.00     0.256 C 
HETATM    8  N   UNL     1      24.294  46.925  49.550  1.00  0.00    -0.323 N 
HETATM    9  H   UNL     1      24.611  47.861  49.337  1.00  0.00     0.169 HD
HETATM   10  O   UNL     1      22.712  45.353  48.901  1.00  0.00    -0.267 OA
BRANCH   8  11
HETATM   11  C   UNL     1      25.064  46.227  50.503  1.00  0.00     0.035 A 
HETATM   12  C   UNL     1      25.278  46.668  51.805  1.00  0.00     0.032 A 
HETATM   13  C   UNL     1      26.202  46.016  52.636  1.00  0.00     0.031 A 
HETATM   14  C   UNL     1      26.940  44.910  52.197  1.00  0.00     0.030 A 
HETATM   15  C   UNL     1      26.664  44.447  50.901  1.00  0.00     0.031 A 
HETATM   16  C   UNL     1      25.740  45.088  50.066  1.00  0.00     0.032 A 
BRANCH  14  17
HETATM   17  N   UNL     1      27.967  44.330  52.940  1.00  0.00    -0.381 N 
HETATM   18  C   UNL     1      28.590  43.117  52.389  1.00  0.00     0.123 C 
HETATM   19  C   UNL     1      30.026  43.018  52.904  1.00  0.00     0.020 C 
HETATM   20  C   UNL     1      30.074  43.058  54.430  1.00  0.00     0.003 C 
HETATM   21  C   UNL     1      29.327  44.277  54.970  1.00  0.00     0.020 C 
HETATM   22  C   UNL     1      27.909  44.367  54.406  1.00  0.00     0.123 C 
ENDBRANCH  14  17
ENDBRANCH   8  11
ENDBRANCH   4   7
BRANCH   1  23
HETATM   23  O   UNL     1      19.289  50.549  47.936  1.00  0.00    -0.342 OA
BRANCH  23  24
HETATM   24  C   UNL     1      18.093  50.392  48.693  1.00  0.00     0.278 C 
BRANCH  24  25
HETATM   25  C   UNL     1      17.426  51.651  49.287  1.00  0.00     0.246 C 
HETATM   26  N   UNL     1      16.057  51.695  49.088  1.00  0.00    -0.325 N 
HETATM   27  H   UNL     1      15.665  50.914  48.576  1.00  0.00     0.169 HD
HETATM   28  O   UNL     1      18.104  52.493  49.871  1.00  0.00    -0.271 OA
BRANCH  26  29
HETATM   29  C   UNL     1      15.171  52.756  49.362  1.00  0.00     0.037 A 
HETATM   30  C   UNL     1      14.764  53.124  50.648  1.00  0.00     0.066 A 
HETATM   31  C   UNL     1      13.899  54.207  50.835  1.00  0.00     0.070 A 
HETATM   32  C   UNL     1      13.453  54.933  49.728  1.00  0.00     0.037 A 
HETATM   33  C   UNL     1      13.850  54.575  48.444  1.00  0.00     0.005 A 
HETATM   34  C   UNL     1      14.699  53.483  48.261  1.00  0.00     0.029 A 
BRANCH  31  35
HETATM   35  O   UNL     1      13.423  54.660  52.038  1.00  0.00    -0.356 OA
HETATM   36  C   UNL     1      14.308  55.451  52.821  1.00  0.00     0.210 C 
ENDBRANCH  31  35
ENDBRANCH  26  29
ENDBRANCH  24  25
ENDBRANCH  23  24
ENDBRANCH   1  23
TORSDOF 8
ENDMDL
MODEL 9
REMARK VINA RESULT:      -8.7      2.921     12.088
REMARK  8 active torsions:
REMARK  status: ('A' for Active; 'I' for Inactive)
REMARK    1  A    between atoms: O_2  and  C_3 
REMARK    2  A    between atoms: C_5  and  N_6 
REMARK       I    between atoms: N_6  and  C_7 
REMARK    3  A    between atoms: C_7  and  C_8 
REMARK    4  A    between atoms: C_8  and  O_9 
REMARK    5  A    between atoms: O_9  and  C_10 
REMARK    6  A    between atoms: C_13  and  C_14 
REMARK       I    between atoms: C_14  and  N_15 
REMARK    7  A    between atoms: N_15  and  C_16 
REMARK    8  A    between atoms: C_19  and  N_20 
ROOT
HETATM    1  C   UNL     1      26.198  43.453  50.772  1.00  0.00     0.069 A 
HETATM    2  C   UNL     1      24.968  43.817  51.313  1.00  0.00     0.038 A 
HETATM    3  C   UNL     1      24.439  45.087  51.048  1.00  0.00     0.020 A 
HETATM    4  C   UNL     1      25.138  46.002  50.250  1.00  0.00     0.032 A 
HETATM    5  C   UNL     1      26.399  45.645  49.753  1.00  0.00     0.020 A 
HETATM    6  C   UNL     1      26.931  44.384  50.033  1.00  0.00     0.038 A 
ENDROOT
BRANCH   4   7
HETATM    7  C   UNL     1      24.445  47.264  49.834  1.00  0.00     0.256 C 
HETATM    8  N   UNL     1      23.505  47.128  48.830  1.00  0.00    -0.323 N 
HETATM    9  H   UNL     1      23.556  46.306  48.246  1.00  0.00     0.169 HD
HETATM   10  O   UNL     1      24.723  48.303  50.421  1.00  0.00    -0.267 OA
BRANCH   8  11
HETATM   11  C   UNL     1      22.375  47.947  48.626  1.00  0.00     0.035 A 
HETATM   12  C   UNL     1      21.061  47.505  48.744  1.00  0.00     0.032 A 
HETATM   13  C   UNL     1      19.995  48.326  48.346  1.00  0.00     0.031 A 
HETATM   14  C   UNL     1      20.203  49.607  47.820  1.00  0.00     0.030 A 
HETATM   15  C   UNL     1      21.532  50.054  47.766  1.00  0.00     0.031 A 
HETATM   16  C   UNL     1      22.603  49.244  48.165  1.00  0.00     0.032 A 
BRANCH  14  17
HETATM   17  N   UNL     1      19.183  50.390  47.281  1.00  0.00    -0.381 N 
HETATM   18  C   UNL     1      19.031  50.378  45.819  1.00  0.00     0.123 C 
HETATM   19  C   UNL     1      17.574  50.686  45.469  1.00  0.00     0.020 C 
HETATM   20  C   UNL     1      17.119  52.004  46.093  1.00  0.00     0.003 C 
HETATM   21  C   UNL     1      17.390  52.020  47.596  1.00  0.00     0.020 C 
HETATM   22  C   UNL     1      18.844  51.671  47.914  1.00  0.00     0.123 C 
ENDBRANCH  14  17
ENDBRANCH   8  11
ENDBRANCH   4   7
BRANCH   1  23
HETATM   23  O   UNL     1      26.755  42.204  50.811  1.00  0.00    -0.342 OA
BRANCH  23  24
HETATM   24  C   UNL     1      27.980  42.050  51.519  1.00  0.00     0.278 C 
BRANCH  24  25
HETATM   25  C   UNL     1      28.043  42.505  52.994  1.00  0.00     0.246 C 
HETATM   26  N   UNL     1      28.594  43.763  53.159  1.00  0.00    -0.325 N 
HETATM   27  H   UNL     1      28.895  44.223  52.308  1.00  0.00     0.169 HD
HETATM   28  O   UNL     1      27.623  41.771  53.885  1.00  0.00    -0.271 OA
BRANCH  26  29
HETATM   29  C   UNL     1      28.937  44.413  54.361  1.00  0.00     0.037 A 
HETATM   30  C   UNL     1      29.852  43.909  55.290  1.00  0.00     0.066 A 
HETATM   31  C   UNL     1      30.155  44.631  56.450  1.00  0.00     0.070 A 
HETATM   32  C   UNL     1      29.547  45.869  56.670  1.00  0.00     0.037 A 
HETATM   33  C   UNL     1      28.633  46.379  55.753  1.00  0.00     0.005 A 
HETATM   34  C   UNL     1      28.322  45.648  54.607  1.00  0.00     0.029 A 
BRANCH  31  35
HETATM   35  O   UNL     1      31.024  44.244  57.436  1.00  0.00    -0.356 OA
HETATM   36  C   UNL     1      32.144  43.465  57.033  1.00  0.00     0.210 C 
ENDBRANCH  31  35
ENDBRANCH  26  29
ENDBRANCH  24  25
ENDBRANCH  23  24
ENDBRANCH   1  23
TORSDOF 8
ENDMDL
MODEL 10
REMARK VINA RESULT:      -8.6      2.260      3.195
REMARK  8 active torsions:
REMARK  status: ('A' for Active; 'I' for Inactive)
REMARK    1  A    between atoms: O_2  and  C_3 
REMARK    2  A    between atoms: C_5  and  N_6 
REMARK       I    between atoms: N_6  and  C_7 
REMARK    3  A    between atoms: C_7  and  C_8 
REMARK    4  A    between atoms: C_8  and  O_9 
REMARK    5  A    between atoms: O_9  and  C_10 
REMARK    6  A    between atoms: C_13  and  C_14 
REMARK       I    between atoms: C_14  and  N_15 
REMARK    7  A    between atoms: N_15  and  C_16 
REMARK    8  A    between atoms: C_19  and  N_20 
ROOT
HETATM    1  C   UNL     1      22.637  42.999  48.351  1.00  0.00     0.069 A 
HETATM    2  C   UNL     1      22.508  43.843  49.451  1.00  0.00     0.038 A 
HETATM    3  C   UNL     1      23.651  44.261  50.145  1.00  0.00     0.020 A 
HETATM    4  C   UNL     1      24.925  43.833  49.750  1.00  0.00     0.032 A 
HETATM    5  C   UNL     1      25.040  42.942  48.675  1.00  0.00     0.020 A 
HETATM    6  C   UNL     1      23.897  42.514  47.996  1.00  0.00     0.038 A 
ENDROOT
BRANCH   4   7
HETATM    7  C   UNL     1      26.122  44.463  50.396  1.00  0.00     0.256 C 
HETATM    8  N   UNL     1      26.050  44.621  51.767  1.00  0.00    -0.323 N 
HETATM    9  H   UNL     1      25.135  44.602  52.195  1.00  0.00     0.169 HD
HETATM   10  O   UNL     1      27.080  44.757  49.689  1.00  0.00    -0.267 OA
BRANCH   8  11
HETATM   11  C   UNL     1      27.138  44.654  52.663  1.00  0.00     0.035 A 
HETATM   12  C   UNL     1      28.154  43.703  52.690  1.00  0.00     0.032 A 
HETATM   13  C   UNL     1      29.099  43.700  53.727  1.00  0.00     0.031 A 
HETATM   14  C   UNL     1      29.062  44.638  54.766  1.00  0.00     0.030 A 
HETATM   15  C   UNL     1      28.066  45.622  54.686  1.00  0.00     0.031 A 
HETATM   16  C   UNL     1      27.120  45.637  53.652  1.00  0.00     0.032 A 
BRANCH  14  17
HETATM   17  N   UNL     1      29.892  44.577  55.884  1.00  0.00    -0.381 N 
HETATM   18  C   UNL     1      30.024  45.801  56.688  1.00  0.00     0.123 C 
HETATM   19  C   UNL     1      30.362  45.414  58.129  1.00  0.00     0.020 C 
HETATM   20  C   UNL     1      31.611  44.537  58.191  1.00  0.00     0.003 C 
HETATM   21  C   UNL     1      31.479  43.331  57.264  1.00  0.00     0.020 C 
HETATM   22  C   UNL     1      31.103  43.748  55.841  1.00  0.00     0.123 C 
ENDBRANCH  14  17
ENDBRANCH   8  11
ENDBRANCH   4   7
BRANCH   1  23
HETATM   23  O   UNL     1      21.635  42.644  47.489  1.00  0.00    -0.342 OA
BRANCH  23  24
HETATM   24  C   UNL     1      21.426  43.466  46.346  1.00  0.00     0.278 C 
BRANCH  24  25
HETATM   25  C   UNL     1      21.499  44.999  46.516  1.00  0.00     0.246 C 
HETATM   26  N   UNL     1      20.390  45.537  47.146  1.00  0.00    -0.325 N 
HETATM   27  H   UNL     1      19.671  44.873  47.406  1.00  0.00     0.169 HD
HETATM   28  O   UNL     1      22.479  45.620  46.110  1.00  0.00    -0.271 OA
BRANCH  26  29
HETATM   29  C   UNL     1      20.064  46.896  47.324  1.00  0.00     0.037 A 
HETATM   30  C   UNL     1      20.465  47.660  48.424  1.00  0.00     0.066 A 
HETATM   31  C   UNL     1      20.119  49.013  48.512  1.00  0.00     0.070 A 
HETATM   32  C   UNL     1      19.379  49.603  47.485  1.00  0.00     0.037 A 
HETATM   33  C   UNL     1      18.973  48.852  46.386  1.00  0.00     0.005 A 
HETATM   34  C   UNL     1      19.307  47.500  46.311  1.00  0.00     0.029 A 
BRANCH  31  35
HETATM   35  O   UNL     1      20.442  49.862  49.537  1.00  0.00    -0.356 OA
HETATM   36  C   UNL     1      19.382  50.632  50.090  1.00  0.00     0.210 C 
ENDBRANCH  31  35
ENDBRANCH  26  29
ENDBRANCH  24  25
ENDBRANCH  23  24
ENDBRANCH   1  23
TORSDOF 8
ENDMDL
