MODEL 1
REMARK VINA RESULT:      -9.7      0.000      0.000
REMARK  3 active torsions:
REMARK  status: ('A' for Active; 'I' for Inactive)
REMARK    1  A    between atoms: O_2  and  C_3 
REMARK    2  A    between atoms: C_9  and  C_10 
REMARK       I    between atoms: C_10  and  N_11 
REMARK    3  A    between atoms: N_11  and  C_12 
ROOT
HETATM    1  C   UNL     1      23.612  48.942  48.145  1.00  0.00     0.068 A 
HETATM    2  C   UNL     1      24.783  48.959  48.906  1.00  0.00     0.044 A 
HETATM    3  C   UNL     1      25.062  47.931  49.816  1.00  0.00    -0.043 A 
HETATM    4  C   UNL     1      24.156  46.852  49.944  1.00  0.00    -0.001 A 
HETATM    5  C   UNL     1      24.504  45.828  50.914  1.00  0.00     0.069 A 
HETATM    6  C   UNL     1      25.514  45.951  51.841  1.00  0.00     0.007 A 
HETATM    7  C   UNL     1      25.493  44.755  52.596  1.00  0.00     0.153 A 
HETATM    8  N   UNL     1      24.535  43.915  52.136  1.00  0.00    -0.168 NA
HETATM    9  N   UNL     1      23.960  44.598  51.120  1.00  0.00    -0.276 N 
HETATM   10  H   UNL     1      23.201  44.158  50.611  1.00  0.00     0.189 HD
HETATM   11  C   UNL     1      26.345  47.182  51.935  1.00  0.00     0.048 C 
HETATM   12  C   UNL     1      26.381  47.930  50.583  1.00  0.00     0.044 C 
HETATM   13  C   UNL     1      22.984  46.839  49.187  1.00  0.00     0.017 A 
HETATM   14  C   UNL     1      22.713  47.882  48.292  1.00  0.00     0.037 A 
ENDROOT
BRANCH   7  15
HETATM   15  C   UNL     1      26.334  44.414  53.759  1.00  0.00     0.277 C 
HETATM   16  N   UNL     1      27.668  44.709  53.538  1.00  0.00    -0.320 N 
HETATM   17  H   UNL     1      27.863  44.877  52.553  1.00  0.00     0.169 HD
HETATM   18  O   UNL     1      25.871  43.853  54.744  1.00  0.00    -0.266 OA
BRANCH  16  19
HETATM   19  C   UNL     1      28.739  44.413  54.406  1.00  0.00     0.057 A 
HETATM   20  C   UNL     1      29.455  43.200  54.450  1.00  0.00     0.063 A 
HETATM   21 CL   UNL     1      28.936  41.754  53.652  1.00  0.00    -0.082 Cl
HETATM   22  C   UNL     1      30.555  43.062  55.304  1.00  0.00     0.068 A 
HETATM   23  C   UNL     1      30.915  44.110  56.138  1.00  0.00     0.118 A 
HETATM   24  F   UNL     1      31.967  43.972  56.956  1.00  0.00    -0.206 F 
HETATM   25  C   UNL     1      30.183  45.288  56.161  1.00  0.00     0.044 A 
HETATM   26  C   UNL     1      29.089  45.435  55.305  1.00  0.00     0.034 A 
ENDBRANCH  16  19
ENDBRANCH   7  15
BRANCH   1  27
HETATM   27  O   UNL     1      23.466  50.010  47.305  1.00  0.00    -0.356 OA
HETATM   28  C   UNL     1      22.724  51.120  47.792  1.00  0.00     0.210 C 
ENDBRANCH   1  27
TORSDOF 3
ENDMDL
MODEL 2
REMARK VINA RESULT:      -9.7      5.649      8.289
REMARK  3 active torsions:
REMARK  status: ('A' for Active; 'I' for Inactive)
REMARK    1  A    between atoms: O_2  and  C_3 
REMARK    2  A    between atoms: C_9  and  C_10 
REMARK       I    between atoms: C_10  and  N_11 
REMARK    3  A    between atoms: N_11  and  C_12 
ROOT
HETATM    1  C   UNL     1      29.777  45.731  56.570  1.00  0.00     0.068 A 
HETATM    2  C   UNL     1      30.295  44.603  55.928  1.00  0.00     0.044 A 
HETATM    3  C   UNL     1      29.620  44.021  54.846  1.00  0.00    -0.043 A 
HETATM    4  C   UNL     1      28.414  44.599  54.388  1.00  0.00    -0.001 A 
HETATM    5  C   UNL     1      27.763  43.937  53.271  1.00  0.00     0.069 A 
HETATM    6  C   UNL     1      28.122  42.697  52.792  1.00  0.00     0.007 A 
HETATM    7  C   UNL     1      27.225  42.419  51.733  1.00  0.00     0.153 A 
HETATM    8  N   UNL     1      26.372  43.454  51.544  1.00  0.00    -0.168 NA
HETATM    9  N   UNL     1      26.729  44.351  52.491  1.00  0.00    -0.276 N 
HETATM   10  H   UNL     1      26.219  45.227  52.542  1.00  0.00     0.189 HD
HETATM   11  C   UNL     1      29.225  41.909  53.404  1.00  0.00     0.048 C 
HETATM   12  C   UNL     1      30.239  42.836  54.112  1.00  0.00     0.044 C 
HETATM   13  C   UNL     1      27.895  45.723  55.034  1.00  0.00     0.017 A 
HETATM   14  C   UNL     1      28.575  46.285  56.123  1.00  0.00     0.037 A 
ENDROOT
BRANCH   7  15
HETATM   15  C   UNL     1      27.142  41.184  50.929  1.00  0.00     0.277 C 
HETATM   16  N   UNL     1      28.274  40.992  50.156  1.00  0.00    -0.320 N 
HETATM   17  H   UNL     1      28.840  41.835  50.095  1.00  0.00     0.169 HD
HETATM   18  O   UNL     1      26.131  40.494  50.916  1.00  0.00    -0.266 OA
BRANCH  16  19
HETATM   19  C   UNL     1      28.467  39.967  49.207  1.00  0.00     0.057 A 
HETATM   20  C   UNL     1      29.009  38.693  49.469  1.00  0.00     0.063 A 
HETATM   21 CL   UNL     1      29.813  38.280  50.944  1.00  0.00    -0.082 Cl
HETATM   22  C   UNL     1      29.071  37.733  48.452  1.00  0.00     0.068 A 
HETATM   23  C   UNL     1      28.636  38.053  47.174  1.00  0.00     0.118 A 
HETATM   24  F   UNL     1      28.702  37.132  46.204  1.00  0.00    -0.206 F 
HETATM   25  C   UNL     1      28.164  39.324  46.878  1.00  0.00     0.044 A 
HETATM   26  C   UNL     1      28.091  40.283  47.890  1.00  0.00     0.034 A 
ENDBRANCH  16  19
ENDBRANCH   7  15
BRANCH   1  27
HETATM   27  O   UNL     1      30.535  46.188  57.611  1.00  0.00    -0.356 OA
HETATM   28  C   UNL     1      31.028  45.218  58.527  1.00  0.00     0.210 C 
ENDBRANCH   1  27
TORSDOF 3
ENDMDL
MODEL 3
REMARK VINA RESULT:      -9.6      3.919      8.653
REMARK  3 active torsions:
REMARK  status: ('A' for Active; 'I' for Inactive)
REMARK    1  A    between atoms: O_2  and  C_3 
REMARK    2  A    between atoms: C_9  and  C_10 
REMARK       I    between atoms: C_10  and  N_11 
REMARK    3  A    between atoms: N_11  and  C_12 
ROOT
HETATM    1  C   UNL     1      30.545  44.408  56.486  1.00  0.00     0.068 A 
HETATM    2  C   UNL     1      29.554  45.379  56.322  1.00  0.00     0.044 A 
HETATM    3  C   UNL     1      28.686  45.339  55.222  1.00  0.00    -0.043 A 
HETATM    4  C   UNL     1      28.803  44.287  54.284  1.00  0.00    -0.001 A 
HETATM    5  C   UNL     1      27.879  44.316  53.164  1.00  0.00     0.069 A 
HETATM    6  C   UNL     1      27.071  45.386  52.854  1.00  0.00     0.007 A 
HETATM    7  C   UNL     1      26.362  45.010  51.689  1.00  0.00     0.153 A 
HETATM    8  N   UNL     1      26.690  43.751  51.314  1.00  0.00    -0.168 NA
HETATM    9  N   UNL     1      27.609  43.364  52.229  1.00  0.00    -0.276 N 
HETATM   10  H   UNL     1      28.006  42.434  52.151  1.00  0.00     0.189 HD
HETATM   11  C   UNL     1      27.090  46.640  53.655  1.00  0.00     0.048 C 
HETATM   12  C   UNL     1      27.565  46.365  55.101  1.00  0.00     0.044 C 
HETATM   13  C   UNL     1      29.797  43.321  54.447  1.00  0.00     0.017 A 
HETATM   14  C   UNL     1      30.666  43.383  55.544  1.00  0.00     0.037 A 
ENDROOT
BRANCH   7  15
HETATM   15  C   UNL     1      25.413  45.831  50.913  1.00  0.00     0.277 C 
HETATM   16  N   UNL     1      26.028  46.928  50.336  1.00  0.00    -0.320 N 
HETATM   17  H   UNL     1      26.947  47.104  50.737  1.00  0.00     0.169 HD
HETATM   18  O   UNL     1      24.215  45.578  50.889  1.00  0.00    -0.266 OA
BRANCH  16  19
HETATM   19  C   UNL     1      25.387  47.959  49.618  1.00  0.00     0.057 A 
HETATM   20  C   UNL     1      26.030  48.996  48.913  1.00  0.00     0.063 A 
HETATM   21 CL   UNL     1      27.716  49.355  49.067  1.00  0.00    -0.082 Cl
HETATM   22  C   UNL     1      25.277  49.912  48.170  1.00  0.00     0.068 A 
HETATM   23  C   UNL     1      23.893  49.822  48.161  1.00  0.00     0.118 A 
HETATM   24  F   UNL     1      23.178  50.704  47.451  1.00  0.00    -0.206 F 
HETATM   25  C   UNL     1      23.237  48.851  48.903  1.00  0.00     0.044 A 
HETATM   26  C   UNL     1      23.982  47.929  49.641  1.00  0.00     0.034 A 
ENDBRANCH  16  19
ENDBRANCH   7  15
BRANCH   1  27
HETATM   27  O   UNL     1      31.322  44.574  57.599  1.00  0.00    -0.356 OA
HETATM   28  C   UNL     1      30.865  45.502  58.574  1.00  0.00     0.210 C 
ENDBRANCH   1  27
TORSDOF 3
ENDMDL
MODEL 4
REMARK VINA RESULT:      -9.0      5.193      6.950
REMARK  3 active torsions:
REMARK  status: ('A' for Active; 'I' for Inactive)
REMARK    1  A    between atoms: O_2  and  C_3 
REMARK    2  A    between atoms: C_9  and  C_10 
REMARK       I    between atoms: C_10  and  N_11 
REMARK    3  A    between atoms: N_11  and  C_12 
ROOT
HETATM    1  C   UNL     1      28.689  38.608  47.757  1.00  0.00     0.068 A 
HETATM    2  C   UNL     1      28.970  38.475  49.119  1.00  0.00     0.044 A 
HETATM    3  C   UNL     1      28.623  39.486  50.025  1.00  0.00    -0.043 A 
HETATM    4  C   UNL     1      27.959  40.642  49.554  1.00  0.00    -0.001 A 
HETATM    5  C   UNL     1      27.640  41.654  50.546  1.00  0.00     0.069 A 
HETATM    6  C   UNL     1      28.125  41.654  51.834  1.00  0.00     0.007 A 
HETATM    7  C   UNL     1      27.597  42.816  52.445  1.00  0.00     0.153 A 
HETATM    8  N   UNL     1      26.795  43.487  51.585  1.00  0.00    -0.168 NA
HETATM    9  N   UNL     1      26.845  42.754  50.449  1.00  0.00    -0.276 N 
HETATM   10  H   UNL     1      26.308  43.068  49.648  1.00  0.00     0.189 HD
HETATM   11  C   UNL     1      29.051  40.597  52.323  1.00  0.00     0.048 C 
HETATM   12  C   UNL     1      28.872  39.290  51.517  1.00  0.00     0.044 C 
HETATM   13  C   UNL     1      27.682  40.776  48.192  1.00  0.00     0.017 A 
HETATM   14  C   UNL     1      28.049  39.761  47.297  1.00  0.00     0.037 A 
ENDROOT
BRANCH   7  15
HETATM   15  C   UNL     1      27.868  43.314  53.807  1.00  0.00     0.277 C 
HETATM   16  N   UNL     1      29.186  43.704  53.964  1.00  0.00    -0.320 N 
HETATM   17  H   UNL     1      29.777  43.361  53.210  1.00  0.00     0.169 HD
HETATM   18  O   UNL     1      27.014  43.281  54.685  1.00  0.00    -0.266 OA
BRANCH  16  19
HETATM   19  C   UNL     1      29.789  44.131  55.165  1.00  0.00     0.057 A 
HETATM   20  C   UNL     1      29.528  45.344  55.834  1.00  0.00     0.063 A 
HETATM   21 CL   UNL     1      28.645  46.654  55.128  1.00  0.00    -0.082 Cl
HETATM   22  C   UNL     1      30.134  45.612  57.066  1.00  0.00     0.068 A 
HETATM   23  C   UNL     1      31.026  44.699  57.609  1.00  0.00     0.118 A 
HETATM   24  F   UNL     1      31.606  44.962  58.787  1.00  0.00    -0.206 F 
HETATM   25  C   UNL     1      31.351  43.531  56.935  1.00  0.00     0.044 A 
HETATM   26  C   UNL     1      30.743  43.253  55.709  1.00  0.00     0.034 A 
ENDBRANCH  16  19
ENDBRANCH   7  15
BRANCH   1  27
HETATM   27  O   UNL     1      29.088  37.549  46.991  1.00  0.00    -0.356 OA
HETATM   28  C   UNL     1      28.109  36.953  46.150  1.00  0.00     0.210 C 
ENDBRANCH   1  27
TORSDOF 3
ENDMDL
MODEL 5
REMARK VINA RESULT:      -9.0      2.208      2.924
REMARK  3 active torsions:
REMARK  status: ('A' for Active; 'I' for Inactive)
REMARK    1  A    between atoms: O_2  and  C_3 
REMARK    2  A    between atoms: C_9  and  C_10 
REMARK       I    between atoms: C_10  and  N_11 
REMARK    3  A    between atoms: N_11  and  C_12 
ROOT
HETATM    1  C   UNL     1      21.246  50.530  48.528  1.00  0.00     0.068 A 
HETATM    2  C   UNL     1      22.642  50.526  48.597  1.00  0.00     0.044 A 
HETATM    3  C   UNL     1      23.343  49.341  48.853  1.00  0.00    -0.043 A 
HETATM    4  C   UNL     1      22.627  48.132  49.018  1.00  0.00    -0.001 A 
HETATM    5  C   UNL     1      23.419  46.945  49.292  1.00  0.00     0.069 A 
HETATM    6  C   UNL     1      24.758  46.964  49.608  1.00  0.00     0.007 A 
HETATM    7  C   UNL     1      25.123  45.614  49.824  1.00  0.00     0.153 A 
HETATM    8  N   UNL     1      24.065  44.794  49.617  1.00  0.00    -0.168 NA
HETATM    9  N   UNL     1      23.054  45.634  49.298  1.00  0.00    -0.276 N 
HETATM   10  H   UNL     1      22.144  45.238  49.094  1.00  0.00     0.189 HD
HETATM   11  C   UNL     1      25.521  48.237  49.711  1.00  0.00     0.048 C 
HETATM   12  C   UNL     1      24.868  49.344  48.851  1.00  0.00     0.044 C 
HETATM   13  C   UNL     1      21.233  48.138  48.954  1.00  0.00     0.017 A 
HETATM   14  C   UNL     1      20.546  49.335  48.711  1.00  0.00     0.037 A 
ENDROOT
BRANCH   7  15
HETATM   15  C   UNL     1      26.437  45.098  50.253  1.00  0.00     0.277 C 
HETATM   16  N   UNL     1      26.370  44.473  51.485  1.00  0.00    -0.320 N 
HETATM   17  H   UNL     1      25.504  44.687  51.975  1.00  0.00     0.169 HD
HETATM   18  O   UNL     1      27.452  45.304  49.600  1.00  0.00    -0.266 OA
BRANCH  16  19
HETATM   19  C   UNL     1      27.462  43.963  52.218  1.00  0.00     0.057 A 
HETATM   20  C   UNL     1      28.225  42.827  51.878  1.00  0.00     0.063 A 
HETATM   21 CL   UNL     1      27.755  41.688  50.664  1.00  0.00    -0.082 Cl
HETATM   22  C   UNL     1      29.339  42.473  52.648  1.00  0.00     0.068 A 
HETATM   23  C   UNL     1      29.666  43.218  53.771  1.00  0.00     0.118 A 
HETATM   24  F   UNL     1      30.731  42.872  54.506  1.00  0.00    -0.206 F 
HETATM   25  C   UNL     1      28.888  44.298  54.163  1.00  0.00     0.044 A 
HETATM   26  C   UNL     1      27.780  44.661  53.395  1.00  0.00     0.034 A 
ENDBRANCH  16  19
ENDBRANCH   7  15
BRANCH   1  27
HETATM   27  O   UNL     1      20.695  51.756  48.278  1.00  0.00    -0.356 OA
HETATM   28  C   UNL     1      19.452  52.045  48.904  1.00  0.00     0.210 C 
ENDBRANCH   1  27
TORSDOF 3
ENDMDL
MODEL 6
REMARK VINA RESULT:      -9.0      5.355      8.960
REMARK  3 active torsions:
REMARK  status: ('A' for Active; 'I' for Inactive)
REMARK    1  A    between atoms: O_2  and  C_3 
REMARK    2  A    between atoms: C_9  and  C_10 
REMARK       I    between atoms: C_10  and  N_11 
REMARK    3  A    between atoms: N_11  and  C_12 
ROOT
HETATM    1  C   UNL     1      30.251  45.088  56.317  1.00  0.00     0.068 A 
HETATM    2  C   UNL     1      29.085  45.433  55.630  1.00  0.00     0.044 A 
HETATM    3  C   UNL     1      28.653  44.682  54.529  1.00  0.00    -0.043 A 
HETATM    4  C   UNL     1      29.395  43.547  54.128  1.00  0.00    -0.001 A 
HETATM    5  C   UNL     1      28.895  42.823  52.973  1.00  0.00     0.069 A 
HETATM    6  C   UNL     1      27.901  43.286  52.141  1.00  0.00     0.007 A 
HETATM    7  C   UNL     1      27.744  42.297  51.141  1.00  0.00     0.153 A 
HETATM    8  N   UNL     1      28.579  41.254  51.363  1.00  0.00    -0.168 NA
HETATM    9  N   UNL     1      29.257  41.608  52.479  1.00  0.00    -0.276 N 
HETATM   10  H   UNL     1      29.952  40.966  52.845  1.00  0.00     0.189 HD
HETATM   11  C   UNL     1      27.252  44.607  52.355  1.00  0.00     0.048 C 
HETATM   12  C   UNL     1      27.338  45.031  53.839  1.00  0.00     0.044 C 
HETATM   13  C   UNL     1      30.563  43.206  54.813  1.00  0.00     0.017 A 
HETATM   14  C   UNL     1      30.989  43.977  55.903  1.00  0.00     0.037 A 
ENDROOT
BRANCH   7  15
HETATM   15  C   UNL     1      26.849  42.341  49.969  1.00  0.00     0.277 C 
HETATM   16  N   UNL     1      25.993  41.255  49.929  1.00  0.00    -0.320 N 
HETATM   17  H   UNL     1      26.288  40.515  50.562  1.00  0.00     0.169 HD
HETATM   18  O   UNL     1      26.954  43.211  49.113  1.00  0.00    -0.266 OA
BRANCH  16  19
HETATM   19  C   UNL     1      25.087  40.948  48.893  1.00  0.00     0.057 A 
HETATM   20  C   UNL     1      23.826  41.547  48.696  1.00  0.00     0.063 A 
HETATM   21 CL   UNL     1      23.046  42.545  49.875  1.00  0.00    -0.082 Cl
HETATM   22  C   UNL     1      23.055  41.211  47.577  1.00  0.00     0.068 A 
HETATM   23  C   UNL     1      23.517  40.256  46.684  1.00  0.00     0.118 A 
HETATM   24  F   UNL     1      22.773  39.935  45.616  1.00  0.00    -0.206 F 
HETATM   25  C   UNL     1      24.723  39.604  46.895  1.00  0.00     0.044 A 
HETATM   26  C   UNL     1      25.501  39.941  48.005  1.00  0.00     0.034 A 
ENDBRANCH  16  19
ENDBRANCH   7  15
BRANCH   1  27
HETATM   27  O   UNL     1      30.556  45.912  57.365  1.00  0.00    -0.356 OA
HETATM   28  C   UNL     1      30.926  45.291  58.589  1.00  0.00     0.210 C 
ENDBRANCH   1  27
TORSDOF 3
ENDMDL
MODEL 7
REMARK VINA RESULT:      -8.9      4.351      8.973
REMARK  3 active torsions:
REMARK  status: ('A' for Active; 'I' for Inactive)
REMARK    1  A    between atoms: O_2  and  C_3 
REMARK    2  A    between atoms: C_9  and  C_10 
REMARK       I    between atoms: C_10  and  N_11 
REMARK    3  A    between atoms: N_11  and  C_12 
ROOT
HETATM    1  C   UNL     1      30.297  44.888  56.380  1.00  0.00     0.068 A 
HETATM    2  C   UNL     1      29.915  44.097  55.294  1.00  0.00     0.044 A 
HETATM    3  C   UNL     1      28.855  44.484  54.463  1.00  0.00    -0.043 A 
HETATM    4  C   UNL     1      28.183  45.702  54.716  1.00  0.00    -0.001 A 
HETATM    5  C   UNL     1      27.088  46.034  53.822  1.00  0.00     0.069 A 
HETATM    6  C   UNL     1      26.541  45.159  52.911  1.00  0.00     0.007 A 
HETATM    7  C   UNL     1      25.494  45.868  52.275  1.00  0.00     0.153 A 
HETATM    8  N   UNL     1      25.418  47.135  52.748  1.00  0.00    -0.168 NA
HETATM    9  N   UNL     1      26.397  47.198  53.680  1.00  0.00    -0.276 N 
HETATM   10  H   UNL     1      26.534  48.071  54.178  1.00  0.00     0.189 HD
HETATM   11  C   UNL     1      27.032  43.762  52.774  1.00  0.00     0.048 C 
HETATM   12  C   UNL     1      28.502  43.644  53.240  1.00  0.00     0.044 C 
HETATM   13  C   UNL     1      28.563  46.489  55.805  1.00  0.00     0.017 A 
HETATM   14  C   UNL     1      29.616  46.081  56.634  1.00  0.00     0.037 A 
ENDROOT
BRANCH   7  15
HETATM   15  C   UNL     1      24.551  45.358  51.262  1.00  0.00     0.277 C 
HETATM   16  N   UNL     1      24.486  46.182  50.153  1.00  0.00    -0.320 N 
HETATM   17  H   UNL     1      24.902  47.093  50.331  1.00  0.00     0.169 HD
HETATM   18  O   UNL     1      23.864  44.364  51.467  1.00  0.00    -0.266 OA
BRANCH  16  19
HETATM   19  C   UNL     1      23.611  46.032  49.057  1.00  0.00     0.057 A 
HETATM   20  C   UNL     1      22.754  47.026  48.544  1.00  0.00     0.063 A 
HETATM   21 CL   UNL     1      22.406  48.507  49.368  1.00  0.00    -0.082 Cl
HETATM   22  C   UNL     1      21.994  46.775  47.395  1.00  0.00     0.068 A 
HETATM   23  C   UNL     1      22.056  45.530  46.787  1.00  0.00     0.118 A 
HETATM   24  F   UNL     1      21.324  45.294  45.690  1.00  0.00    -0.206 F 
HETATM   25  C   UNL     1      22.840  44.515  47.315  1.00  0.00     0.044 A 
HETATM   26  C   UNL     1      23.607  44.762  48.455  1.00  0.00     0.034 A 
ENDBRANCH  16  19
ENDBRANCH   7  15
BRANCH   1  27
HETATM   27  O   UNL     1      31.341  44.386  57.107  1.00  0.00    -0.356 OA
HETATM   28  C   UNL     1      31.542  42.980  57.063  1.00  0.00     0.210 C 
ENDBRANCH   1  27
TORSDOF 3
ENDMDL
MODEL 8
REMARK VINA RESULT:      -8.8      5.596      9.791
REMARK  3 active torsions:
REMARK  status: ('A' for Active; 'I' for Inactive)
REMARK    1  A    between atoms: O_2  and  C_3 
REMARK    2  A    between atoms: C_9  and  C_10 
REMARK       I    between atoms: C_10  and  N_11 
REMARK    3  A    between atoms: N_11  and  C_12 
ROOT
HETATM    1  C   UNL     1      26.705  42.691  50.297  1.00  0.00     0.068 A 
HETATM    2  C   UNL     1      25.596  42.831  49.459  1.00  0.00     0.044 A 
HETATM    3  C   UNL     1      24.957  44.069  49.317  1.00  0.00    -0.043 A 
HETATM    4  C   UNL     1      25.459  45.194  50.012  1.00  0.00    -0.001 A 
HETATM    5  C   UNL     1      24.740  46.442  49.826  1.00  0.00     0.069 A 
HETATM    6  C   UNL     1      23.513  46.544  49.211  1.00  0.00     0.007 A 
HETATM    7  C   UNL     1      23.166  47.915  49.268  1.00  0.00     0.153 A 
HETATM    8  N   UNL     1      24.148  48.634  49.861  1.00  0.00    -0.168 NA
HETATM    9  N   UNL     1      25.082  47.710  50.184  1.00  0.00    -0.276 N 
HETATM   10  H   UNL     1      25.929  48.021  50.647  1.00  0.00     0.189 HD
HETATM   11  C   UNL     1      22.799  45.350  48.684  1.00  0.00     0.048 C 
HETATM   12  C   UNL     1      23.794  44.218  48.341  1.00  0.00     0.044 C 
HETATM   13  C   UNL     1      26.564  45.052  50.853  1.00  0.00     0.017 A 
HETATM   14  C   UNL     1      27.183  43.803  50.995  1.00  0.00     0.037 A 
ENDROOT
BRANCH   7  15
HETATM   15  C   UNL     1      21.913  48.542  48.805  1.00  0.00     0.277 C 
HETATM   16  N   UNL     1      21.552  49.621  49.592  1.00  0.00    -0.320 N 
HETATM   17  H   UNL     1      22.066  49.640  50.470  1.00  0.00     0.169 HD
HETATM   18  O   UNL     1      21.261  48.070  47.882  1.00  0.00    -0.266 OA
BRANCH  16  19
HETATM   19  C   UNL     1      20.363  50.371  49.480  1.00  0.00     0.057 A 
HETATM   20  C   UNL     1      19.140  50.078  50.115  1.00  0.00     0.063 A 
HETATM   21 CL   UNL     1      18.806  48.572  50.900  1.00  0.00    -0.082 Cl
HETATM   22  C   UNL     1      18.054  50.952  49.987  1.00  0.00     0.068 A 
HETATM   23  C   UNL     1      18.172  52.086  49.198  1.00  0.00     0.118 A 
HETATM   24  F   UNL     1      17.128  52.917  49.076  1.00  0.00    -0.206 F 
HETATM   25  C   UNL     1      19.344  52.358  48.508  1.00  0.00     0.044 A 
HETATM   26  C   UNL     1      20.434  51.495  48.638  1.00  0.00     0.034 A 
ENDBRANCH  16  19
ENDBRANCH   7  15
BRANCH   1  27
HETATM   27  O   UNL     1      27.223  41.427  50.345  1.00  0.00    -0.356 OA
HETATM   28  C   UNL     1      28.122  41.136  51.407  1.00  0.00     0.210 C 
ENDBRANCH   1  27
TORSDOF 3
ENDMDL
MODEL 9
REMARK VINA RESULT:      -8.7      5.567      8.294
REMARK  3 active torsions:
REMARK  status: ('A' for Active; 'I' for Inactive)
REMARK    1  A    between atoms: O_2  and  C_3 
REMARK    2  A    between atoms: C_9  and  C_10 
REMARK       I    between atoms: C_10  and  N_11 
REMARK    3  A    between atoms: N_11  and  C_12 
ROOT
HETATM    1  C   UNL     1      16.094  52.723  49.354  1.00  0.00     0.068 A 
HETATM    2  C   UNL     1      17.456  52.959  49.155  1.00  0.00     0.044 A 
HETATM    3  C   UNL     1      18.324  51.910  48.825  1.00  0.00    -0.043 A 
HETATM    4  C   UNL     1      17.807  50.603  48.668  1.00  0.00    -0.001 A 
HETATM    5  C   UNL     1      18.766  49.564  48.337  1.00  0.00     0.069 A 
HETATM    6  C   UNL     1      20.132  49.729  48.381  1.00  0.00     0.007 A 
HETATM    7  C   UNL     1      20.684  48.478  48.017  1.00  0.00     0.153 A 
HETATM    8  N   UNL     1      19.704  47.589  47.727  1.00  0.00    -0.168 NA
HETATM    9  N   UNL     1      18.560  48.282  47.931  1.00  0.00    -0.276 N 
HETATM   10  H   UNL     1      17.676  47.811  47.770  1.00  0.00     0.189 HD
HETATM   11  C   UNL     1      20.753  51.015  48.797  1.00  0.00     0.048 C 
HETATM   12  C   UNL     1      19.794  52.201  48.539  1.00  0.00     0.044 C 
HETATM   13  C   UNL     1      16.446  50.368  48.872  1.00  0.00     0.017 A 
HETATM   14  C   UNL     1      15.594  51.426  49.216  1.00  0.00     0.037 A 
ENDROOT
BRANCH   7  15
HETATM   15  C   UNL     1      22.111  48.106  47.974  1.00  0.00     0.277 C 
HETATM   16  N   UNL     1      22.874  48.878  48.832  1.00  0.00    -0.320 N 
HETATM   17  H   UNL     1      22.371  49.704  49.149  1.00  0.00     0.169 HD
HETATM   18  O   UNL     1      22.532  47.266  47.188  1.00  0.00    -0.266 OA
BRANCH  16  19
HETATM   19  C   UNL     1      24.278  48.843  48.955  1.00  0.00     0.057 A 
HETATM   20  C   UNL     1      25.021  47.869  49.651  1.00  0.00     0.063 A 
HETATM   21 CL   UNL     1      24.313  46.719  50.734  1.00  0.00    -0.082 Cl
HETATM   22  C   UNL     1      26.420  47.902  49.627  1.00  0.00     0.068 A 
HETATM   23  C   UNL     1      27.074  48.920  48.950  1.00  0.00     0.118 A 
HETATM   24  F   UNL     1      28.414  48.948  48.934  1.00  0.00    -0.206 F 
HETATM   25  C   UNL     1      26.363  49.928  48.316  1.00  0.00     0.044 A 
HETATM   26  C   UNL     1      24.967  49.897  48.329  1.00  0.00     0.034 A 
ENDBRANCH  16  19
ENDBRANCH   7  15
BRANCH   1  27
HETATM   27  O   UNL     1      15.367  53.835  49.677  1.00  0.00    -0.356 OA
HETATM   28  C   UNL     1      14.588  53.776  50.864  1.00  0.00     0.210 C 
ENDBRANCH   1  27
TORSDOF 3
ENDMDL
MODEL 10
REMARK VINA RESULT:      -8.7      3.256      4.103
REMARK  3 active torsions:
REMARK  status: ('A' for Active; 'I' for Inactive)
REMARK    1  A    between atoms: O_2  and  C_3 
REMARK    2  A    between atoms: C_9  and  C_10 
REMARK       I    between atoms: C_10  and  N_11 
REMARK    3  A    between atoms: N_11  and  C_12 
ROOT
HETATM    1  C   UNL     1      23.123  43.134  47.611  1.00  0.00     0.068 A 
HETATM    2  C   UNL     1      23.256  44.053  48.655  1.00  0.00     0.044 A 
HETATM    3  C   UNL     1      24.241  43.884  49.637  1.00  0.00    -0.043 A 
HETATM    4  C   UNL     1      25.125  42.783  49.551  1.00  0.00    -0.001 A 
HETATM    5  C   UNL     1      26.114  42.665  50.608  1.00  0.00     0.069 A 
HETATM    6  C   UNL     1      26.102  43.409  51.766  1.00  0.00     0.007 A 
HETATM    7  C   UNL     1      27.210  42.963  52.524  1.00  0.00     0.153 A 
HETATM    8  N   UNL     1      27.898  42.010  51.850  1.00  0.00    -0.168 NA
HETATM    9  N   UNL     1      27.206  41.858  50.698  1.00  0.00    -0.276 N 
HETATM   10  H   UNL     1      27.542  41.183  50.019  1.00  0.00     0.189 HD
HETATM   11  C   UNL     1      25.037  44.411  52.042  1.00  0.00     0.048 C 
HETATM   12  C   UNL     1      24.418  44.936  50.726  1.00  0.00     0.044 C 
HETATM   13  C   UNL     1      24.988  41.864  48.509  1.00  0.00     0.017 A 
HETATM   14  C   UNL     1      23.988  42.039  47.544  1.00  0.00     0.037 A 
ENDROOT
BRANCH   7  15
HETATM   15  C   UNL     1      27.604  43.396  53.878  1.00  0.00     0.277 C 
HETATM   16  N   UNL     1      28.933  43.775  53.935  1.00  0.00    -0.320 N 
HETATM   17  H   UNL     1      29.453  43.466  53.117  1.00  0.00     0.169 HD
HETATM   18  O   UNL     1      26.830  43.323  54.825  1.00  0.00    -0.266 OA
BRANCH  16  19
HETATM   19  C   UNL     1      29.643  44.143  55.097  1.00  0.00     0.057 A 
HETATM   20  C   UNL     1      29.464  45.332  55.831  1.00  0.00     0.063 A 
HETATM   21 CL   UNL     1      28.553  46.685  55.252  1.00  0.00    -0.082 Cl
HETATM   22  C   UNL     1      30.176  45.541  57.017  1.00  0.00     0.068 A 
HETATM   23  C   UNL     1      31.091  44.591  57.448  1.00  0.00     0.118 A 
HETATM   24  F   UNL     1      31.773  44.798  58.582  1.00  0.00    -0.206 F 
HETATM   25  C   UNL     1      31.333  43.445  56.705  1.00  0.00     0.044 A 
HETATM   26  C   UNL     1      30.620  43.227  55.525  1.00  0.00     0.034 A 
ENDBRANCH  16  19
ENDBRANCH   7  15
BRANCH   1  27
HETATM   27  O   UNL     1      22.116  43.419  46.731  1.00  0.00    -0.356 OA
HETATM   28  C   UNL     1      21.406  42.318  46.182  1.00  0.00     0.210 C 
ENDBRANCH   1  27
TORSDOF 3
ENDMDL
