MODEL 1
REMARK VINA RESULT:      -9.5      0.000      0.000
REMARK  6 active torsions:
REMARK  status: ('A' for Active; 'I' for Inactive)
REMARK    1  A    between atoms: C_2  and  C_3 
REMARK       I    between atoms: C_3  and  N_4 
REMARK    2  A    between atoms: N_4  and  C_5 
REMARK    3  A    between atoms: C_8  and  N_9 
REMARK       I    between atoms: N_9  and  C_10 
REMARK    4  A    between atoms: C_10  and  C_11 
REMARK    5  A    between atoms: C_16  and  C_17 
REMARK    6  A    between atoms: C_23  and  C_24 
ROOT
HETATM    1  C   UNL     1      24.637  47.311  49.926  1.00  0.00     0.148 A 
HETATM    2  N   UNL     1      24.545  48.585  49.479  1.00  0.00    -0.165 NA
HETATM    3  N   UNL     1      23.338  48.625  48.881  1.00  0.00    -0.240 N 
HETATM    4  C   UNL     1      22.669  47.432  48.911  1.00  0.00     0.123 A 
HETATM    5  N   UNL     1      21.464  47.279  48.321  1.00  0.00    -0.364 N 
HETATM    6  C   UNL     1      20.704  48.431  47.834  1.00  0.00     0.143 C 
HETATM    7  C   UNL     1      21.675  49.493  47.283  1.00  0.00     0.068 C 
HETATM    8  C   UNL     1      22.854  49.821  48.220  1.00  0.00     0.221 C 
HETATM    9  C   UNL     1      23.479  46.560  49.586  1.00  0.00     0.089 A 
HETATM   10  H   UNL     1      20.909  46.444  48.496  1.00  0.00     0.162 HD
ENDROOT
BRANCH   1  11
HETATM   11  C   UNL     1      25.821  46.824  50.658  1.00  0.00     0.276 C 
HETATM   12  N   UNL     1      25.604  46.802  52.022  1.00  0.00    -0.322 N 
HETATM   13  H   UNL     1      24.662  47.087  52.283  1.00  0.00     0.169 HD
HETATM   14  O   UNL     1      26.840  46.481  50.069  1.00  0.00    -0.266 OA
BRANCH  12  15
HETATM   15  C   UNL     1      26.499  46.454  53.044  1.00  0.00     0.035 A 
HETATM   16  C   UNL     1      26.931  45.153  53.292  1.00  0.00     0.032 A 
HETATM   17  C   UNL     1      27.859  44.889  54.311  1.00  0.00     0.032 A 
HETATM   18  C   UNL     1      28.367  45.921  55.098  1.00  0.00     0.034 A 
HETATM   19  C   UNL     1      27.921  47.225  54.858  1.00  0.00     0.032 A 
HETATM   20  C   UNL     1      26.996  47.489  53.840  1.00  0.00     0.032 A 
BRANCH  18  21
HETATM   21  N   UNL     1      29.325  45.746  56.118  1.00  0.00    -0.327 N 
HETATM   22  C   UNL     1      29.176  46.005  57.468  1.00  0.00     0.221 C 
HETATM   23  O   UNL     1      28.176  46.454  58.019  1.00  0.00    -0.273 OA
HETATM   24  H   UNL     1      30.219  45.385  55.817  1.00  0.00     0.169 HD
BRANCH  22  25
HETATM   25  C   UNL     1      30.391  45.614  58.296  1.00  0.00     0.098 C 
HETATM   26  C   UNL     1      31.154  44.421  57.747  1.00  0.00     0.014 C 
ENDBRANCH  22  25
ENDBRANCH  18  21
ENDBRANCH  12  15
ENDBRANCH   1  11
BRANCH   8  27
HETATM   27  C   UNL     1      22.547  50.896  49.239  1.00  0.00     0.409 C 
HETATM   28  F   UNL     1      23.640  51.646  49.524  1.00  0.00    -0.169 F 
HETATM   29  F   UNL     1      21.620  51.759  48.748  1.00  0.00    -0.169 F 
HETATM   30  F   UNL     1      22.073  50.422  50.405  1.00  0.00    -0.169 F 
ENDBRANCH   8  27
BRANCH   6  31
HETATM   31  C   UNL     1      19.712  48.988  48.801  1.00  0.00     0.075 A 
HETATM   32  O   UNL     1      19.625  48.358  50.009  1.00  0.00    -0.325 OA
HETATM   33  C   UNL     1      18.691  49.020  50.739  1.00  0.00     0.142 A 
HETATM   34  C   UNL     1      18.175  50.073  50.020  1.00  0.00     0.027 A 
HETATM   35  C   UNL     1      18.840  50.059  48.771  1.00  0.00     0.037 A 
ENDBRANCH   6  31
TORSDOF 6
ENDMDL
MODEL 2
REMARK VINA RESULT:      -9.1      2.169      2.577
REMARK  6 active torsions:
REMARK  status: ('A' for Active; 'I' for Inactive)
REMARK    1  A    between atoms: C_2  and  C_3 
REMARK       I    between atoms: C_3  and  N_4 
REMARK    2  A    between atoms: N_4  and  C_5 
REMARK    3  A    between atoms: C_8  and  N_9 
REMARK       I    between atoms: N_9  and  C_10 
REMARK    4  A    between atoms: C_10  and  C_11 
REMARK    5  A    between atoms: C_16  and  C_17 
REMARK    6  A    between atoms: C_23  and  C_24 
ROOT
HETATM    1  C   UNL     1      23.538  48.014  49.416  1.00  0.00     0.148 A 
HETATM    2  N   UNL     1      22.956  49.222  49.604  1.00  0.00    -0.165 NA
HETATM    3  N   UNL     1      21.901  49.198  48.767  1.00  0.00    -0.240 N 
HETATM    4  C   UNL     1      21.797  48.042  48.043  1.00  0.00     0.123 A 
HETATM    5  N   UNL     1      20.823  47.865  47.124  1.00  0.00    -0.364 N 
HETATM    6  C   UNL     1      19.693  48.790  47.025  1.00  0.00     0.143 C 
HETATM    7  C   UNL     1      20.169  50.220  47.342  1.00  0.00     0.068 C 
HETATM    8  C   UNL     1      21.016  50.338  48.625  1.00  0.00     0.221 C 
HETATM    9  C   UNL     1      22.838  47.249  48.443  1.00  0.00     0.089 A 
HETATM   10  H   UNL     1      20.659  46.944  46.721  1.00  0.00     0.162 HD
ENDROOT
BRANCH   1  11
HETATM   11  C   UNL     1      24.750  47.608  50.152  1.00  0.00     0.276 C 
HETATM   12  N   UNL     1      24.558  46.422  50.834  1.00  0.00    -0.322 N 
HETATM   13  H   UNL     1      23.637  46.016  50.683  1.00  0.00     0.169 HD
HETATM   14  O   UNL     1      25.776  48.277  50.112  1.00  0.00    -0.266 OA
BRANCH  12  15
HETATM   15  C   UNL     1      25.451  45.747  51.680  1.00  0.00     0.035 A 
HETATM   16  C   UNL     1      25.929  44.460  51.442  1.00  0.00     0.032 A 
HETATM   17  C   UNL     1      26.851  43.865  52.317  1.00  0.00     0.032 A 
HETATM   18  C   UNL     1      27.305  44.547  53.445  1.00  0.00     0.034 A 
HETATM   19  C   UNL     1      26.812  45.833  53.691  1.00  0.00     0.032 A 
HETATM   20  C   UNL     1      25.894  46.428  52.817  1.00  0.00     0.032 A 
BRANCH  18  21
HETATM   21  N   UNL     1      28.253  44.036  54.354  1.00  0.00    -0.327 N 
HETATM   22  C   UNL     1      29.483  43.473  54.063  1.00  0.00     0.221 C 
HETATM   23  O   UNL     1      29.962  43.305  52.946  1.00  0.00    -0.273 OA
HETATM   24  H   UNL     1      27.997  44.096  55.330  1.00  0.00     0.169 HD
BRANCH  22  25
HETATM   25  C   UNL     1      30.289  43.107  55.301  1.00  0.00     0.098 C 
HETATM   26  C   UNL     1      30.919  44.299  56.000  1.00  0.00     0.014 C 
ENDBRANCH  22  25
ENDBRANCH  18  21
ENDBRANCH  12  15
ENDBRANCH   1  11
BRANCH   8  27
HETATM   27  C   UNL     1      20.199  50.529  49.883  1.00  0.00     0.409 C 
HETATM   28  F   UNL     1      20.861  51.267  50.806  1.00  0.00    -0.169 F 
HETATM   29  F   UNL     1      19.060  51.214  49.605  1.00  0.00    -0.169 F 
HETATM   30  F   UNL     1      19.837  49.378  50.478  1.00  0.00    -0.169 F 
ENDBRANCH   8  27
BRANCH   6  31
HETATM   31  C   UNL     1      18.480  48.389  47.799  1.00  0.00     0.075 A 
HETATM   32  O   UNL     1      17.415  49.242  47.740  1.00  0.00    -0.325 OA
HETATM   33  C   UNL     1      16.422  48.693  48.486  1.00  0.00     0.142 A 
HETATM   34  C   UNL     1      16.830  47.495  49.023  1.00  0.00     0.027 A 
HETATM   35  C   UNL     1      18.156  47.292  48.573  1.00  0.00     0.037 A 
ENDBRANCH   6  31
TORSDOF 6
ENDMDL
MODEL 3
REMARK VINA RESULT:      -9.0      3.676     10.148
REMARK  6 active torsions:
REMARK  status: ('A' for Active; 'I' for Inactive)
REMARK    1  A    between atoms: C_2  and  C_3 
REMARK       I    between atoms: C_3  and  N_4 
REMARK    2  A    between atoms: N_4  and  C_5 
REMARK    3  A    between atoms: C_8  and  N_9 
REMARK       I    between atoms: N_9  and  C_10 
REMARK    4  A    between atoms: C_10  and  C_11 
REMARK    5  A    between atoms: C_16  and  C_17 
REMARK    6  A    between atoms: C_23  and  C_24 
ROOT
HETATM    1  C   UNL     1      23.339  47.443  48.951  1.00  0.00     0.148 A 
HETATM    2  N   UNL     1      23.301  46.095  48.832  1.00  0.00    -0.165 NA
HETATM    3  N   UNL     1      24.479  45.698  49.352  1.00  0.00    -0.240 N 
HETATM    4  C   UNL     1      25.270  46.730  49.777  1.00  0.00     0.123 A 
HETATM    5  N   UNL     1      26.503  46.517  50.286  1.00  0.00    -0.364 N 
HETATM    6  C   UNL     1      26.960  45.171  50.632  1.00  0.00     0.143 C 
HETATM    7  C   UNL     1      26.382  44.156  49.630  1.00  0.00     0.068 C 
HETATM    8  C   UNL     1      24.867  44.301  49.382  1.00  0.00     0.221 C 
HETATM    9  C   UNL     1      24.560  47.875  49.538  1.00  0.00     0.089 A 
HETATM   10  H   UNL     1      27.005  47.273  50.749  1.00  0.00     0.162 HD
ENDROOT
BRANCH   1  11
HETATM   11  C   UNL     1      22.226  48.298  48.499  1.00  0.00     0.276 C 
HETATM   12  N   UNL     1      21.782  49.131  49.508  1.00  0.00    -0.322 N 
HETATM   13  H   UNL     1      22.317  49.040  50.369  1.00  0.00     0.169 HD
HETATM   14  O   UNL     1      21.800  48.240  47.352  1.00  0.00    -0.266 OA
BRANCH  12  15
HETATM   15  C   UNL     1      20.717  50.044  49.482  1.00  0.00     0.035 A 
HETATM   16  C   UNL     1      20.724  51.230  48.751  1.00  0.00     0.032 A 
HETATM   17  C   UNL     1      19.604  52.075  48.746  1.00  0.00     0.032 A 
HETATM   18  C   UNL     1      18.461  51.747  49.472  1.00  0.00     0.034 A 
HETATM   19  C   UNL     1      18.460  50.563  50.218  1.00  0.00     0.032 A 
HETATM   20  C   UNL     1      19.577  49.719  50.222  1.00  0.00     0.032 A 
BRANCH  18  21
HETATM   21  N   UNL     1      17.283  52.522  49.494  1.00  0.00    -0.327 N 
HETATM   22  C   UNL     1      16.073  52.234  48.888  1.00  0.00     0.221 C 
HETATM   23  O   UNL     1      15.816  51.248  48.205  1.00  0.00    -0.273 OA
HETATM   24  H   UNL     1      17.338  53.384  50.018  1.00  0.00     0.169 HD
BRANCH  22  25
HETATM   25  C   UNL     1      14.986  53.254  49.194  1.00  0.00     0.098 C 
HETATM   26  C   UNL     1      14.287  53.029  50.524  1.00  0.00     0.014 C 
ENDBRANCH  22  25
ENDBRANCH  18  21
ENDBRANCH  12  15
ENDBRANCH   1  11
BRANCH   8  27
HETATM   27  C   UNL     1      24.009  43.539  50.368  1.00  0.00     0.409 C 
HETATM   28  F   UNL     1      22.953  42.943  49.761  1.00  0.00    -0.169 F 
HETATM   29  F   UNL     1      24.725  42.536  50.938  1.00  0.00    -0.169 F 
HETATM   30  F   UNL     1      23.520  44.298  51.365  1.00  0.00    -0.169 F 
ENDBRANCH   8  27
BRANCH   6  31
HETATM   31  C   UNL     1      26.744  44.779  52.057  1.00  0.00     0.075 A 
HETATM   32  O   UNL     1      27.342  43.621  52.464  1.00  0.00    -0.325 OA
HETATM   33  C   UNL     1      27.041  43.456  53.777  1.00  0.00     0.142 A 
HETATM   34  C   UNL     1      26.260  44.494  54.227  1.00  0.00     0.027 A 
HETATM   35  C   UNL     1      26.074  45.355  53.119  1.00  0.00     0.037 A 
ENDBRANCH   6  31
TORSDOF 6
ENDMDL
MODEL 4
REMARK VINA RESULT:      -8.9      3.373      4.871
REMARK  6 active torsions:
REMARK  status: ('A' for Active; 'I' for Inactive)
REMARK    1  A    between atoms: C_2  and  C_3 
REMARK       I    between atoms: C_3  and  N_4 
REMARK    2  A    between atoms: N_4  and  C_5 
REMARK    3  A    between atoms: C_8  and  N_9 
REMARK       I    between atoms: N_9  and  C_10 
REMARK    4  A    between atoms: C_10  and  C_11 
REMARK    5  A    between atoms: C_16  and  C_17 
REMARK    6  A    between atoms: C_23  and  C_24 
ROOT
HETATM    1  C   UNL     1      22.015  49.585  48.890  1.00  0.00     0.148 A 
HETATM    2  N   UNL     1      20.883  49.090  49.443  1.00  0.00    -0.165 NA
HETATM    3  N   UNL     1      19.990  50.086  49.284  1.00  0.00    -0.240 N 
HETATM    4  C   UNL     1      20.507  51.197  48.675  1.00  0.00     0.123 A 
HETATM    5  N   UNL     1      19.764  52.307  48.474  1.00  0.00    -0.364 N 
HETATM    6  C   UNL     1      18.314  52.298  48.676  1.00  0.00     0.143 C 
HETATM    7  C   UNL     1      17.963  51.367  49.851  1.00  0.00     0.068 C 
HETATM    8  C   UNL     1      18.634  49.981  49.785  1.00  0.00     0.221 C 
HETATM    9  C   UNL     1      21.815  50.904  48.400  1.00  0.00     0.089 A 
HETATM   10  H   UNL     1      20.108  53.054  47.874  1.00  0.00     0.162 HD
ENDROOT
BRANCH   1  11
HETATM   11  C   UNL     1      23.267  48.807  48.843  1.00  0.00     0.276 C 
HETATM   12  N   UNL     1      23.244  47.751  49.734  1.00  0.00    -0.322 N 
HETATM   13  H   UNL     1      22.363  47.669  50.237  1.00  0.00     0.169 HD
HETATM   14  O   UNL     1      24.175  49.103  48.075  1.00  0.00    -0.266 OA
BRANCH  12  15
HETATM   15  C   UNL     1      24.258  46.824  50.016  1.00  0.00     0.035 A 
HETATM   16  C   UNL     1      24.431  45.625  49.327  1.00  0.00     0.032 A 
HETATM   17  C   UNL     1      25.494  44.765  49.643  1.00  0.00     0.032 A 
HETATM   18  C   UNL     1      26.397  45.090  50.654  1.00  0.00     0.034 A 
HETATM   19  C   UNL     1      26.213  46.286  51.355  1.00  0.00     0.032 A 
HETATM   20  C   UNL     1      25.154  47.146  51.038  1.00  0.00     0.032 A 
BRANCH  18  21
HETATM   21  N   UNL     1      27.509  44.299  51.011  1.00  0.00    -0.327 N 
HETATM   22  C   UNL     1      27.664  43.526  52.147  1.00  0.00     0.221 C 
HETATM   23  O   UNL     1      26.856  43.404  53.062  1.00  0.00    -0.273 OA
HETATM   24  H   UNL     1      28.274  44.301  50.351  1.00  0.00     0.169 HD
BRANCH  22  25
HETATM   25  C   UNL     1      28.960  42.730  52.164  1.00  0.00     0.098 C 
HETATM   26  C   UNL     1      29.867  43.055  53.338  1.00  0.00     0.014 C 
ENDBRANCH  22  25
ENDBRANCH  18  21
ENDBRANCH  12  15
ENDBRANCH   1  11
BRANCH   8  27
HETATM   27  C   UNL     1      17.856  48.960  48.984  1.00  0.00     0.409 C 
HETATM   28  F   UNL     1      16.566  49.337  48.805  1.00  0.00    -0.169 F 
HETATM   29  F   UNL     1      18.384  48.837  47.739  1.00  0.00    -0.169 F 
HETATM   30  F   UNL     1      17.840  47.733  49.535  1.00  0.00    -0.169 F 
ENDBRANCH   8  27
BRANCH   6  31
HETATM   31  C   UNL     1      17.509  52.025  47.448  1.00  0.00     0.075 A 
HETATM   32  O   UNL     1      16.157  52.174  47.565  1.00  0.00    -0.325 OA
HETATM   33  C   UNL     1      15.618  51.901  46.349  1.00  0.00     0.142 A 
HETATM   34  C   UNL     1      16.604  51.581  45.446  1.00  0.00     0.027 A 
HETATM   35  C   UNL     1      17.828  51.670  46.151  1.00  0.00     0.037 A 
ENDBRANCH   6  31
TORSDOF 6
ENDMDL
MODEL 5
REMARK VINA RESULT:      -8.4      2.798      3.814
REMARK  6 active torsions:
REMARK  status: ('A' for Active; 'I' for Inactive)
REMARK    1  A    between atoms: C_2  and  C_3 
REMARK       I    between atoms: C_3  and  N_4 
REMARK    2  A    between atoms: N_4  and  C_5 
REMARK    3  A    between atoms: C_8  and  N_9 
REMARK       I    between atoms: N_9  and  C_10 
REMARK    4  A    between atoms: C_10  and  C_11 
REMARK    5  A    between atoms: C_16  and  C_17 
REMARK    6  A    between atoms: C_23  and  C_24 
ROOT
HETATM    1  C   UNL     1      22.800  49.251  48.964  1.00  0.00     0.148 A 
HETATM    2  N   UNL     1      21.914  49.684  49.892  1.00  0.00    -0.165 NA
HETATM    3  N   UNL     1      20.907  50.192  49.154  1.00  0.00    -0.240 N 
HETATM    4  C   UNL     1      21.122  50.120  47.805  1.00  0.00     0.123 A 
HETATM    5  N   UNL     1      20.235  50.621  46.917  1.00  0.00    -0.364 N 
HETATM    6  C   UNL     1      18.899  51.046  47.335  1.00  0.00     0.143 C 
HETATM    7  C   UNL     1      18.971  51.660  48.745  1.00  0.00     0.068 C 
HETATM    8  C   UNL     1      19.749  50.810  49.769  1.00  0.00     0.221 C 
HETATM    9  C   UNL     1      22.336  49.510  47.646  1.00  0.00     0.089 A 
HETATM   10  H   UNL     1      20.327  50.410  45.925  1.00  0.00     0.162 HD
ENDROOT
BRANCH   1  11
HETATM   11  C   UNL     1      24.074  48.610  49.341  1.00  0.00     0.276 C 
HETATM   12  N   UNL     1      23.880  47.590  50.253  1.00  0.00    -0.322 N 
HETATM   13  H   UNL     1      22.900  47.432  50.477  1.00  0.00     0.169 HD
HETATM   14  O   UNL     1      25.140  48.974  48.859  1.00  0.00    -0.266 OA
BRANCH  12  15
HETATM   15  C   UNL     1      24.842  46.786  50.883  1.00  0.00     0.035 A 
HETATM   16  C   UNL     1      25.493  47.132  52.066  1.00  0.00     0.032 A 
HETATM   17  C   UNL     1      26.418  46.257  52.655  1.00  0.00     0.032 A 
HETATM   18  C   UNL     1      26.708  45.025  52.070  1.00  0.00     0.034 A 
HETATM   19  C   UNL     1      26.065  44.686  50.875  1.00  0.00     0.032 A 
HETATM   20  C   UNL     1      25.140  45.558  50.287  1.00  0.00     0.032 A 
BRANCH  18  21
HETATM   21  N   UNL     1      27.597  44.076  52.615  1.00  0.00    -0.327 N 
HETATM   22  C   UNL     1      27.452  43.362  53.790  1.00  0.00     0.221 C 
HETATM   23  O   UNL     1      26.519  43.442  54.582  1.00  0.00    -0.273 OA
HETATM   24  H   UNL     1      28.433  43.902  52.074  1.00  0.00     0.169 HD
BRANCH  22  25
HETATM   25  C   UNL     1      28.567  42.354  54.026  1.00  0.00     0.098 C 
HETATM   26  C   UNL     1      29.931  42.984  54.248  1.00  0.00     0.014 C 
ENDBRANCH  22  25
ENDBRANCH  18  21
ENDBRANCH  12  15
ENDBRANCH   1  11
BRANCH   8  27
HETATM   27  C   UNL     1      18.905  49.766  50.467  1.00  0.00     0.409 C 
HETATM   28  F   UNL     1      17.592  50.101  50.470  1.00  0.00    -0.169 F 
HETATM   29  F   UNL     1      18.987  48.580  49.811  1.00  0.00    -0.169 F 
HETATM   30  F   UNL     1      19.263  49.542  51.744  1.00  0.00    -0.169 F 
ENDBRANCH   8  27
BRANCH   6  31
HETATM   31  C   UNL     1      17.835  50.006  47.200  1.00  0.00     0.075 A 
HETATM   32  O   UNL     1      18.250  48.759  46.829  1.00  0.00    -0.325 OA
HETATM   33  C   UNL     1      17.147  47.969  46.782  1.00  0.00     0.142 A 
HETATM   34  C   UNL     1      16.025  48.687  47.121  1.00  0.00     0.027 A 
HETATM   35  C   UNL     1      16.468  50.002  47.401  1.00  0.00     0.037 A 
ENDBRANCH   6  31
TORSDOF 6
ENDMDL
MODEL 6
REMARK VINA RESULT:      -8.3      2.634      3.344
REMARK  6 active torsions:
REMARK  status: ('A' for Active; 'I' for Inactive)
REMARK    1  A    between atoms: C_2  and  C_3 
REMARK       I    between atoms: C_3  and  N_4 
REMARK    2  A    between atoms: N_4  and  C_5 
REMARK    3  A    between atoms: C_8  and  N_9 
REMARK       I    between atoms: N_9  and  C_10 
REMARK    4  A    between atoms: C_10  and  C_11 
REMARK    5  A    between atoms: C_16  and  C_17 
REMARK    6  A    between atoms: C_23  and  C_24 
ROOT
HETATM    1  C   UNL     1      21.994  46.970  48.561  1.00  0.00     0.148 A 
HETATM    2  N   UNL     1      22.085  48.228  49.052  1.00  0.00    -0.165 NA
HETATM    3  N   UNL     1      21.179  48.916  48.330  1.00  0.00    -0.240 N 
HETATM    4  C   UNL     1      20.532  48.159  47.392  1.00  0.00     0.123 A 
HETATM    5  N   UNL     1      19.622  48.696  46.551  1.00  0.00    -0.364 N 
HETATM    6  C   UNL     1      19.105  50.051  46.754  1.00  0.00     0.143 C 
HETATM    7  C   UNL     1      20.221  50.949  47.318  1.00  0.00     0.068 C 
HETATM    8  C   UNL     1      20.982  50.341  48.513  1.00  0.00     0.221 C 
HETATM    9  C   UNL     1      21.030  46.891  47.519  1.00  0.00     0.089 A 
HETATM   10  H   UNL     1      19.032  48.094  45.980  1.00  0.00     0.162 HD
ENDROOT
BRANCH   1  11
HETATM   11  C   UNL     1      22.824  45.867  49.079  1.00  0.00     0.276 C 
HETATM   12  N   UNL     1      23.871  46.337  49.850  1.00  0.00    -0.322 N 
HETATM   13  H   UNL     1      23.868  47.348  49.957  1.00  0.00     0.169 HD
HETATM   14  O   UNL     1      22.558  44.696  48.834  1.00  0.00    -0.266 OA
BRANCH  12  15
HETATM   15  C   UNL     1      24.898  45.606  50.467  1.00  0.00     0.035 A 
HETATM   16  C   UNL     1      26.167  45.431  49.919  1.00  0.00     0.032 A 
HETATM   17  C   UNL     1      27.155  44.717  50.615  1.00  0.00     0.032 A 
HETATM   18  C   UNL     1      26.887  44.167  51.868  1.00  0.00     0.034 A 
HETATM   19  C   UNL     1      25.607  44.331  52.410  1.00  0.00     0.032 A 
HETATM   20  C   UNL     1      24.622  45.045  51.716  1.00  0.00     0.032 A 
BRANCH  18  21
HETATM   21  N   UNL     1      27.831  43.466  52.647  1.00  0.00    -0.327 N 
HETATM   22  C   UNL     1      28.536  43.935  53.740  1.00  0.00     0.221 C 
HETATM   23  O   UNL     1      28.473  45.062  54.220  1.00  0.00    -0.273 OA
HETATM   24  H   UNL     1      28.001  42.510  52.367  1.00  0.00     0.169 HD
BRANCH  22  25
HETATM   25  C   UNL     1      29.408  42.874  54.397  1.00  0.00     0.098 C 
HETATM   26  C   UNL     1      30.568  43.439  55.196  1.00  0.00     0.014 C 
ENDBRANCH  22  25
ENDBRANCH  18  21
ENDBRANCH  12  15
ENDBRANCH   1  11
BRANCH   8  27
HETATM   27  C   UNL     1      20.338  50.614  49.854  1.00  0.00     0.409 C 
HETATM   28  F   UNL     1      21.261  50.855  50.816  1.00  0.00    -0.169 F 
HETATM   29  F   UNL     1      19.569  51.731  49.787  1.00  0.00    -0.169 F 
HETATM   30  F   UNL     1      19.553  49.615  50.295  1.00  0.00    -0.169 F 
ENDBRANCH   8  27
BRANCH   6  31
HETATM   31  C   UNL     1      17.835  50.131  47.535  1.00  0.00     0.075 A 
HETATM   32  O   UNL     1      17.315  51.380  47.720  1.00  0.00    -0.325 OA
HETATM   33  C   UNL     1      16.167  51.233  48.429  1.00  0.00     0.142 A 
HETATM   34  C   UNL     1      15.935  49.906  48.702  1.00  0.00     0.027 A 
HETATM   35  C   UNL     1      17.006  49.190  48.117  1.00  0.00     0.037 A 
ENDBRANCH   6  31
TORSDOF 6
ENDMDL
MODEL 7
REMARK VINA RESULT:      -8.3     13.114     14.186
REMARK  6 active torsions:
REMARK  status: ('A' for Active; 'I' for Inactive)
REMARK    1  A    between atoms: C_2  and  C_3 
REMARK       I    between atoms: C_3  and  N_4 
REMARK    2  A    between atoms: N_4  and  C_5 
REMARK    3  A    between atoms: C_8  and  N_9 
REMARK       I    between atoms: N_9  and  C_10 
REMARK    4  A    between atoms: C_10  and  C_11 
REMARK    5  A    between atoms: C_16  and  C_17 
REMARK    6  A    between atoms: C_23  and  C_24 
ROOT
HETATM    1  C   UNL     1      33.486  51.388  42.162  1.00  0.00     0.148 A 
HETATM    2  N   UNL     1      32.845  52.310  41.405  1.00  0.00    -0.165 NA
HETATM    3  N   UNL     1      32.206  51.571  40.478  1.00  0.00    -0.240 N 
HETATM    4  C   UNL     1      32.426  50.226  40.598  1.00  0.00     0.123 A 
HETATM    5  N   UNL     1      31.898  49.339  39.727  1.00  0.00    -0.364 N 
HETATM    6  C   UNL     1      30.875  49.740  38.760  1.00  0.00     0.143 C 
HETATM    7  C   UNL     1      31.150  51.179  38.286  1.00  0.00     0.068 C 
HETATM    8  C   UNL     1      31.419  52.183  39.425  1.00  0.00     0.221 C 
HETATM    9  C   UNL     1      33.246  50.071  41.683  1.00  0.00     0.089 A 
HETATM   10  H   UNL     1      31.931  48.341  39.927  1.00  0.00     0.162 HD
ENDROOT
BRANCH   1  11
HETATM   11  C   UNL     1      34.320  51.769  43.317  1.00  0.00     0.276 C 
HETATM   12  N   UNL     1      35.631  51.996  42.945  1.00  0.00    -0.322 N 
HETATM   13  H   UNL     1      35.787  51.899  41.944  1.00  0.00     0.169 HD
HETATM   14  O   UNL     1      33.846  51.868  44.442  1.00  0.00    -0.266 OA
BRANCH  12  15
HETATM   15  C   UNL     1      36.726  52.322  43.760  1.00  0.00     0.035 A 
HETATM   16  C   UNL     1      37.830  51.494  43.951  1.00  0.00     0.032 A 
HETATM   17  C   UNL     1      38.905  51.907  44.753  1.00  0.00     0.032 A 
HETATM   18  C   UNL     1      38.890  53.154  45.376  1.00  0.00     0.034 A 
HETATM   19  C   UNL     1      37.775  53.978  45.196  1.00  0.00     0.032 A 
HETATM   20  C   UNL     1      36.703  53.566  44.394  1.00  0.00     0.032 A 
BRANCH  18  21
HETATM   21  N   UNL     1      39.942  53.658  46.169  1.00  0.00    -0.327 N 
HETATM   22  C   UNL     1      39.981  53.767  47.547  1.00  0.00     0.221 C 
HETATM   23  O   UNL     1      39.090  53.454  48.329  1.00  0.00    -0.273 OA
HETATM   24  H   UNL     1      40.759  53.970  45.662  1.00  0.00     0.169 HD
BRANCH  22  25
HETATM   25  C   UNL     1      41.315  54.275  48.076  1.00  0.00     0.098 C 
HETATM   26  C   UNL     1      41.777  55.573  47.437  1.00  0.00     0.014 C 
ENDBRANCH  22  25
ENDBRANCH  18  21
ENDBRANCH  12  15
ENDBRANCH   1  11
BRANCH   8  27
HETATM   27  C   UNL     1      30.168  52.808  40.000  1.00  0.00     0.409 C 
HETATM   28  F   UNL     1      30.373  54.094  40.374  1.00  0.00    -0.169 F 
HETATM   29  F   UNL     1      29.186  52.844  39.062  1.00  0.00    -0.169 F 
HETATM   30  F   UNL     1      29.675  52.156  41.069  1.00  0.00    -0.169 F 
ENDBRANCH   8  27
BRANCH   6  31
HETATM   31  C   UNL     1      29.466  49.528  39.208  1.00  0.00     0.075 A 
HETATM   32  O   UNL     1      28.489  49.909  38.334  1.00  0.00    -0.325 OA
HETATM   33  C   UNL     1      27.297  49.619  38.917  1.00  0.00     0.142 A 
HETATM   34  C   UNL     1      27.491  49.052  40.154  1.00  0.00     0.027 A 
HETATM   35  C   UNL     1      28.892  48.984  40.341  1.00  0.00     0.037 A 
ENDBRANCH   6  31
TORSDOF 6
ENDMDL
MODEL 8
REMARK VINA RESULT:      -8.2     13.465     14.500
REMARK  6 active torsions:
REMARK  status: ('A' for Active; 'I' for Inactive)
REMARK    1  A    between atoms: C_2  and  C_3 
REMARK       I    between atoms: C_3  and  N_4 
REMARK    2  A    between atoms: N_4  and  C_5 
REMARK    3  A    between atoms: C_8  and  N_9 
REMARK       I    between atoms: N_9  and  C_10 
REMARK    4  A    between atoms: C_10  and  C_11 
REMARK    5  A    between atoms: C_16  and  C_17 
REMARK    6  A    between atoms: C_23  and  C_24 
ROOT
HETATM    1  C   UNL     1      34.683  51.444  42.336  1.00  0.00     0.148 A 
HETATM    2  N   UNL     1      34.323  51.021  41.101  1.00  0.00    -0.165 NA
HETATM    3  N   UNL     1      33.074  50.547  41.282  1.00  0.00    -0.240 N 
HETATM    4  C   UNL     1      32.634  50.631  42.574  1.00  0.00     0.123 A 
HETATM    5  N   UNL     1      31.422  50.163  42.943  1.00  0.00    -0.364 N 
HETATM    6  C   UNL     1      30.425  49.765  41.948  1.00  0.00     0.143 C 
HETATM    7  C   UNL     1      31.132  49.132  40.735  1.00  0.00     0.068 C 
HETATM    8  C   UNL     1      32.322  49.950  40.196  1.00  0.00     0.221 C 
HETATM    9  C   UNL     1      33.649  51.213  43.283  1.00  0.00     0.089 A 
HETATM   10  H   UNL     1      31.044  50.384  43.863  1.00  0.00     0.162 HD
ENDROOT
BRANCH   1  11
HETATM   11  C   UNL     1      36.002  52.049  42.599  1.00  0.00     0.276 C 
HETATM   12  N   UNL     1      36.259  52.142  43.954  1.00  0.00    -0.322 N 
HETATM   13  H   UNL     1      35.519  51.747  44.531  1.00  0.00     0.169 HD
HETATM   14  O   UNL     1      36.741  52.394  41.685  1.00  0.00    -0.266 OA
BRANCH  12  15
HETATM   15  C   UNL     1      37.373  52.702  44.596  1.00  0.00     0.035 A 
HETATM   16  C   UNL     1      37.410  53.999  45.104  1.00  0.00     0.032 A 
HETATM   17  C   UNL     1      38.551  54.476  45.767  1.00  0.00     0.032 A 
HETATM   18  C   UNL     1      39.672  53.664  45.931  1.00  0.00     0.034 A 
HETATM   19  C   UNL     1      39.639  52.367  45.407  1.00  0.00     0.032 A 
HETATM   20  C   UNL     1      38.500  51.891  44.747  1.00  0.00     0.032 A 
BRANCH  18  21
HETATM   21  N   UNL     1      40.843  54.054  46.612  1.00  0.00    -0.327 N 
HETATM   22  C   UNL     1      41.031  54.147  47.979  1.00  0.00     0.221 C 
HETATM   23  O   UNL     1      40.196  53.917  48.848  1.00  0.00    -0.273 OA
HETATM   24  H   UNL     1      41.631  54.288  46.025  1.00  0.00     0.169 HD
BRANCH  22  25
HETATM   25  C   UNL     1      42.455  54.515  48.370  1.00  0.00     0.098 C 
HETATM   26  C   UNL     1      42.974  55.772  47.694  1.00  0.00     0.014 C 
ENDBRANCH  22  25
ENDBRANCH  18  21
ENDBRANCH  12  15
ENDBRANCH   1  11
BRANCH   8  27
HETATM   27  C   UNL     1      31.932  51.005  39.184  1.00  0.00     0.409 C 
HETATM   28  F   UNL     1      30.720  50.752  38.634  1.00  0.00    -0.169 F 
HETATM   29  F   UNL     1      31.823  52.217  39.787  1.00  0.00    -0.169 F 
HETATM   30  F   UNL     1      32.809  51.140  38.173  1.00  0.00    -0.169 F 
ENDBRANCH   8  27
BRANCH   6  31
HETATM   31  C   UNL     1      29.451  50.832  41.569  1.00  0.00     0.075 A 
HETATM   32  O   UNL     1      28.399  50.443  40.791  1.00  0.00    -0.325 OA
HETATM   33  C   UNL     1      27.632  51.543  40.578  1.00  0.00     0.142 A 
HETATM   34  C   UNL     1      28.173  52.638  41.210  1.00  0.00     0.027 A 
HETATM   35  C   UNL     1      29.343  52.179  41.860  1.00  0.00     0.037 A 
ENDBRANCH   6  31
TORSDOF 6
ENDMDL
MODEL 9
REMARK VINA RESULT:      -8.2     13.251     14.496
REMARK  6 active torsions:
REMARK  status: ('A' for Active; 'I' for Inactive)
REMARK    1  A    between atoms: C_2  and  C_3 
REMARK       I    between atoms: C_3  and  N_4 
REMARK    2  A    between atoms: N_4  and  C_5 
REMARK    3  A    between atoms: C_8  and  N_9 
REMARK       I    between atoms: N_9  and  C_10 
REMARK    4  A    between atoms: C_10  and  C_11 
REMARK    5  A    between atoms: C_16  and  C_17 
REMARK    6  A    between atoms: C_23  and  C_24 
ROOT
HETATM    1  C   UNL     1      33.290  52.060  39.560  1.00  0.00     0.148 A 
HETATM    2  N   UNL     1      32.415  52.681  40.385  1.00  0.00    -0.165 NA
HETATM    3  N   UNL     1      31.224  52.487  39.786  1.00  0.00    -0.240 N 
HETATM    4  C   UNL     1      31.304  51.790  38.612  1.00  0.00     0.123 A 
HETATM    5  N   UNL     1      30.211  51.542  37.858  1.00  0.00    -0.364 N 
HETATM    6  C   UNL     1      28.862  51.791  38.368  1.00  0.00     0.143 C 
HETATM    7  C   UNL     1      28.876  53.035  39.275  1.00  0.00     0.068 C 
HETATM    8  C   UNL     1      29.999  53.038  40.332  1.00  0.00     0.221 C 
HETATM    9  C   UNL     1      32.628  51.491  38.438  1.00  0.00     0.089 A 
HETATM   10  H   UNL     1      30.261  50.883  37.083  1.00  0.00     0.162 HD
ENDROOT
BRANCH   1  11
HETATM   11  C   UNL     1      34.738  52.023  39.842  1.00  0.00     0.276 C 
HETATM   12  N   UNL     1      34.990  51.920  41.196  1.00  0.00    -0.322 N 
HETATM   13  H   UNL     1      34.145  51.851  41.758  1.00  0.00     0.169 HD
HETATM   14  O   UNL     1      35.566  52.067  38.940  1.00  0.00    -0.266 OA
BRANCH  12  15
HETATM   15  C   UNL     1      36.228  51.910  41.856  1.00  0.00     0.035 A 
HETATM   16  C   UNL     1      36.954  53.057  42.169  1.00  0.00     0.032 A 
HETATM   17  C   UNL     1      38.170  52.967  42.865  1.00  0.00     0.032 A 
HETATM   18  C   UNL     1      38.678  51.729  43.255  1.00  0.00     0.034 A 
HETATM   19  C   UNL     1      37.956  50.577  42.926  1.00  0.00     0.032 A 
HETATM   20  C   UNL     1      36.742  50.667  42.234  1.00  0.00     0.032 A 
BRANCH  18  21
HETATM   21  N   UNL     1      39.872  51.554  43.984  1.00  0.00    -0.327 N 
HETATM   22  C   UNL     1      40.058  51.703  45.346  1.00  0.00     0.221 C 
HETATM   23  O   UNL     1      39.207  52.032  46.166  1.00  0.00    -0.273 OA
HETATM   24  H   UNL     1      40.680  51.285  43.439  1.00  0.00     0.169 HD
BRANCH  22  25
HETATM   25  C   UNL     1      41.463  51.346  45.808  1.00  0.00     0.098 C 
HETATM   26  C   UNL     1      41.874  49.920  45.489  1.00  0.00     0.014 C 
ENDBRANCH  22  25
ENDBRANCH  18  21
ENDBRANCH  12  15
ENDBRANCH   1  11
BRANCH   8  27
HETATM   27  C   UNL     1      29.632  52.332  41.618  1.00  0.00     0.409 C 
HETATM   28  F   UNL     1      30.187  52.933  42.699  1.00  0.00    -0.169 F 
HETATM   29  F   UNL     1      28.289  52.378  41.814  1.00  0.00    -0.169 F 
HETATM   30  F   UNL     1      29.996  51.037  41.651  1.00  0.00    -0.169 F 
ENDBRANCH   8  27
BRANCH   6  31
HETATM   31  C   UNL     1      28.199  50.611  38.999  1.00  0.00     0.075 A 
HETATM   32  O   UNL     1      28.958  49.482  39.121  1.00  0.00    -0.325 OA
HETATM   33  C   UNL     1      28.185  48.545  39.727  1.00  0.00     0.142 A 
HETATM   34  C   UNL     1      26.938  49.053  40.002  1.00  0.00     0.027 A 
HETATM   35  C   UNL     1      26.948  50.391  39.541  1.00  0.00     0.037 A 
ENDBRANCH   6  31
TORSDOF 6
ENDMDL
MODEL 10
REMARK VINA RESULT:      -7.9     13.133     14.372
REMARK  6 active torsions:
REMARK  status: ('A' for Active; 'I' for Inactive)
REMARK    1  A    between atoms: C_2  and  C_3 
REMARK       I    between atoms: C_3  and  N_4 
REMARK    2  A    between atoms: N_4  and  C_5 
REMARK    3  A    between atoms: C_8  and  N_9 
REMARK       I    between atoms: N_9  and  C_10 
REMARK    4  A    between atoms: C_10  and  C_11 
REMARK    5  A    between atoms: C_16  and  C_17 
REMARK    6  A    between atoms: C_23  and  C_24 
ROOT
HETATM    1  C   UNL     1      33.504  50.852  42.382  1.00  0.00     0.148 A 
HETATM    2  N   UNL     1      33.033  49.618  42.084  1.00  0.00    -0.165 NA
HETATM    3  N   UNL     1      31.701  49.801  41.995  1.00  0.00    -0.240 N 
HETATM    4  C   UNL     1      31.303  51.087  42.241  1.00  0.00     0.123 A 
HETATM    5  N   UNL     1      30.000  51.440  42.237  1.00  0.00    -0.364 N 
HETATM    6  C   UNL     1      28.967  50.532  41.736  1.00  0.00     0.143 C 
HETATM    7  C   UNL     1      29.346  49.080  42.082  1.00  0.00     0.068 C 
HETATM    8  C   UNL     1      30.797  48.700  41.726  1.00  0.00     0.221 C 
HETATM    9  C   UNL     1      32.447  51.796  42.489  1.00  0.00     0.089 A 
HETATM   10  H   UNL     1      29.734  52.423  42.253  1.00  0.00     0.162 HD
ENDROOT
BRANCH   1  11
HETATM   11  C   UNL     1      34.943  51.114  42.568  1.00  0.00     0.276 C 
HETATM   12  N   UNL     1      35.160  52.214  43.376  1.00  0.00    -0.322 N 
HETATM   13  H   UNL     1      34.300  52.628  43.730  1.00  0.00     0.169 HD
HETATM   14  O   UNL     1      35.795  50.398  42.055  1.00  0.00    -0.266 OA
BRANCH  12  15
HETATM   15  C   UNL     1      36.380  52.803  43.740  1.00  0.00     0.035 A 
HETATM   16  C   UNL     1      37.114  53.650  42.913  1.00  0.00     0.032 A 
HETATM   17  C   UNL     1      38.309  54.232  43.363  1.00  0.00     0.032 A 
HETATM   18  C   UNL     1      38.788  53.973  44.646  1.00  0.00     0.034 A 
HETATM   19  C   UNL     1      38.058  53.111  45.471  1.00  0.00     0.032 A 
HETATM   20  C   UNL     1      36.864  52.532  45.022  1.00  0.00     0.032 A 
BRANCH  18  21
HETATM   21  N   UNL     1      39.960  54.542  45.187  1.00  0.00    -0.327 N 
HETATM   22  C   UNL     1      40.056  55.645  46.017  1.00  0.00     0.221 C 
HETATM   23  O   UNL     1      39.128  56.338  46.420  1.00  0.00    -0.273 OA
HETATM   24  H   UNL     1      40.823  54.082  44.936  1.00  0.00     0.169 HD
BRANCH  22  25
HETATM   25  C   UNL     1      41.477  55.928  46.483  1.00  0.00     0.098 C 
HETATM   26  C   UNL     1      41.870  55.185  47.748  1.00  0.00     0.014 C 
ENDBRANCH  22  25
ENDBRANCH  18  21
ENDBRANCH  12  15
ENDBRANCH   1  11
BRANCH   8  27
HETATM   27  C   UNL     1      30.971  48.212  40.305  1.00  0.00     0.409 C 
HETATM   28  F   UNL     1      29.819  47.708  39.801  1.00  0.00    -0.169 F 
HETATM   29  F   UNL     1      31.315  49.243  39.492  1.00  0.00    -0.169 F 
HETATM   30  F   UNL     1      31.916  47.263  40.168  1.00  0.00    -0.169 F 
ENDBRANCH   8  27
BRANCH   6  31
HETATM   31  C   UNL     1      28.607  50.718  40.298  1.00  0.00     0.075 A 
HETATM   32  O   UNL     1      29.366  51.608  39.594  1.00  0.00    -0.325 OA
HETATM   33  C   UNL     1      28.893  51.617  38.321  1.00  0.00     0.142 A 
HETATM   34  C   UNL     1      27.840  50.742  38.192  1.00  0.00     0.027 A 
HETATM   35  C   UNL     1      27.660  50.153  39.466  1.00  0.00     0.037 A 
ENDBRANCH   6  31
TORSDOF 6
ENDMDL
