MODEL 1
REMARK VINA RESULT:      -8.6      0.000      0.000
REMARK  10 active torsions:
REMARK  status: ('A' for Active; 'I' for Inactive)
REMARK    1  A    between atoms: C_2  and  O_3 
REMARK    2  A    between atoms: O_3  and  C_4 
REMARK    3  A    between atoms: C_7  and  N_8 
REMARK    4  A    between atoms: C_9  and  S_10 
REMARK    5  A    between atoms: S_10  and  C_11 
REMARK    6  A    between atoms: C_11  and  C_12 
REMARK       I    between atoms: C_12  and  N_13 
REMARK    7  A    between atoms: N_13  and  C_14 
REMARK    8  A    between atoms: C_15  and  O_16 
REMARK    9  A    between atoms: C_19  and  O_20 
REMARK   10  A    between atoms: C_29  and  N_30 
ROOT
HETATM    1  N   UNL     1      27.957  41.790  51.230  1.00  0.00    -0.276 N 
HETATM    2  C   UNL     1      27.495  42.144  49.994  1.00  0.00     0.177 A 
HETATM    3  N   UNL     1      27.515  41.341  48.924  1.00  0.00    -0.204 NA
HETATM    4  C   UNL     1      28.078  40.164  49.157  1.00  0.00     0.162 A 
HETATM    5  C   UNL     1      28.573  39.716  50.360  1.00  0.00     0.081 A 
HETATM    6  C   UNL     1      28.482  40.552  51.485  1.00  0.00     0.124 A 
HETATM    7  N   UNL     1      28.276  39.176  48.239  1.00  0.00    -0.260 N 
HETATM    8  H   UNL     1      28.035  39.189  47.251  1.00  0.00     0.191 HD
HETATM    9  N   UNL     1      28.871  38.093  48.764  1.00  0.00    -0.177 NA
HETATM   10  C   UNL     1      29.064  38.412  50.050  1.00  0.00     0.068 A 
HETATM   11  C   UNL     1      29.736  37.432  50.944  1.00  0.00     0.073 C 
ENDROOT
BRANCH   2  12
HETATM   12  S   UNL     1      26.786  43.768  49.653  1.00  0.00    -0.082 SA
BRANCH  12  13
HETATM   13  C   UNL     1      25.057  43.339  49.192  1.00  0.00     0.185 C 
BRANCH  13  14
HETATM   14  C   UNL     1      24.053  43.626  50.299  1.00  0.00     0.232 C 
HETATM   15  N   UNL     1      23.548  44.873  50.512  1.00  0.00    -0.324 N 
HETATM   16  H   UNL     1      23.163  44.988  51.447  1.00  0.00     0.169 HD
HETATM   17  O   UNL     1      23.742  42.733  51.098  1.00  0.00    -0.272 OA
BRANCH  15  18
HETATM   18  C   UNL     1      23.373  46.003  49.690  1.00  0.00     0.070 A 
HETATM   19  C   UNL     1      24.139  47.146  50.006  1.00  0.00     0.097 A 
HETATM   20  C   UNL     1      23.963  48.335  49.284  1.00  0.00     0.077 A 
HETATM   21  C   UNL     1      23.012  48.407  48.261  1.00  0.00     0.092 A 
HETATM   22  C   UNL     1      22.242  47.270  47.971  1.00  0.00     0.069 A 
HETATM   23 CL   UNL     1      21.018  47.299  46.748  1.00  0.00    -0.081 Cl
HETATM   24  C   UNL     1      22.418  46.077  48.681  1.00  0.00     0.059 A 
BRANCH  19  25
HETATM   25  O   UNL     1      25.043  46.977  51.030  1.00  0.00    -0.354 OA
HETATM   26  C   UNL     1      26.345  47.527  50.857  1.00  0.00     0.210 C 
ENDBRANCH  19  25
BRANCH  21  27
HETATM   27  O   UNL     1      22.761  49.525  47.510  1.00  0.00    -0.354 OA
HETATM   28  C   UNL     1      23.419  50.734  47.862  1.00  0.00     0.210 C 
ENDBRANCH  21  27
ENDBRANCH  15  18
ENDBRANCH  13  14
ENDBRANCH  12  13
ENDBRANCH   2  12
BRANCH   1  29
HETATM   29  C   UNL     1      27.949  42.749  52.301  1.00  0.00     0.043 A 
HETATM   30  C   UNL     1      26.768  42.981  53.009  1.00  0.00     0.033 A 
HETATM   31  C   UNL     1      26.807  43.811  54.135  1.00  0.00     0.039 A 
HETATM   32  C   UNL     1      28.015  44.379  54.552  1.00  0.00     0.068 A 
HETATM   33  C   UNL     1      29.185  44.132  53.822  1.00  0.00     0.039 A 
HETATM   34  C   UNL     1      29.163  43.315  52.693  1.00  0.00     0.033 A 
BRANCH  32  35
HETATM   35  O   UNL     1      28.201  45.166  55.650  1.00  0.00    -0.352 OA
BRANCH  35  36
HETATM   36  C   UNL     1      28.739  46.473  55.456  1.00  0.00     0.171 C 
HETATM   37  C   UNL     1      27.644  47.344  54.866  1.00  0.00     0.034 C 
ENDBRANCH  35  36
ENDBRANCH  32  35
ENDBRANCH   1  29
BRANCH   6  38
HETATM   38  N   UNL     1      28.901  40.148  52.749  1.00  0.00    -0.384 N 
HETATM   39  H   UNL     1      28.791  40.798  53.522  1.00  0.00     0.157 HD
HETATM   40  H   UNL     1      29.663  39.489  52.868  1.00  0.00     0.157 HD
ENDBRANCH   6  38
TORSDOF 10
ENDMDL
MODEL 2
REMARK VINA RESULT:      -8.0      2.972      5.721
REMARK  10 active torsions:
REMARK  status: ('A' for Active; 'I' for Inactive)
REMARK    1  A    between atoms: C_2  and  O_3 
REMARK    2  A    between atoms: O_3  and  C_4 
REMARK    3  A    between atoms: C_7  and  N_8 
REMARK    4  A    between atoms: C_9  and  S_10 
REMARK    5  A    between atoms: S_10  and  C_11 
REMARK    6  A    between atoms: C_11  and  C_12 
REMARK       I    between atoms: C_12  and  N_13 
REMARK    7  A    between atoms: N_13  and  C_14 
REMARK    8  A    between atoms: C_15  and  O_16 
REMARK    9  A    between atoms: C_19  and  O_20 
REMARK   10  A    between atoms: C_29  and  N_30 
ROOT
HETATM    1  N   UNL     1      27.480  43.982  52.612  1.00  0.00    -0.276 N 
HETATM    2  C   UNL     1      26.587  44.967  52.927  1.00  0.00     0.177 A 
HETATM    3  N   UNL     1      26.735  45.819  53.948  1.00  0.00    -0.204 NA
HETATM    4  C   UNL     1      27.821  45.592  54.673  1.00  0.00     0.162 A 
HETATM    5  C   UNL     1      28.775  44.629  54.439  1.00  0.00     0.081 A 
HETATM    6  C   UNL     1      28.633  43.787  53.324  1.00  0.00     0.124 A 
HETATM    7  N   UNL     1      28.191  46.272  55.794  1.00  0.00    -0.260 N 
HETATM    8  H   UNL     1      27.700  47.040  56.245  1.00  0.00     0.191 HD
HETATM    9  N   UNL     1      29.342  45.820  56.318  1.00  0.00    -0.177 NA
HETATM   10  C   UNL     1      29.702  44.816  55.509  1.00  0.00     0.068 A 
HETATM   11  C   UNL     1      30.944  44.056  55.810  1.00  0.00     0.073 C 
ENDROOT
BRANCH   2  12
HETATM   12  S   UNL     1      25.074  45.241  51.984  1.00  0.00    -0.082 SA
BRANCH  12  13
HETATM   13  C   UNL     1      25.097  47.066  51.750  1.00  0.00     0.185 C 
BRANCH  13  14
HETATM   14  C   UNL     1      25.611  47.488  50.380  1.00  0.00     0.232 C 
HETATM   15  N   UNL     1      24.778  47.663  49.317  1.00  0.00    -0.324 N 
HETATM   16  H   UNL     1      25.265  47.620  48.424  1.00  0.00     0.169 HD
HETATM   17  O   UNL     1      26.829  47.593  50.183  1.00  0.00    -0.272 OA
BRANCH  15  18
HETATM   18  C   UNL     1      23.409  47.969  49.197  1.00  0.00     0.070 A 
HETATM   19  C   UNL     1      22.560  46.931  48.757  1.00  0.00     0.097 A 
HETATM   20  C   UNL     1      21.197  47.179  48.537  1.00  0.00     0.077 A 
HETATM   21  C   UNL     1      20.673  48.461  48.727  1.00  0.00     0.092 A 
HETATM   22  C   UNL     1      21.532  49.490  49.143  1.00  0.00     0.069 A 
HETATM   23 CL   UNL     1      20.961  51.109  49.358  1.00  0.00    -0.081 Cl
HETATM   24  C   UNL     1      22.890  49.248  49.374  1.00  0.00     0.059 A 
BRANCH  19  25
HETATM   25  O   UNL     1      23.170  45.707  48.595  1.00  0.00    -0.354 OA
HETATM   26  C   UNL     1      22.470  44.556  49.055  1.00  0.00     0.210 C 
ENDBRANCH  19  25
BRANCH  21  27
HETATM   27  O   UNL     1      19.361  48.803  48.526  1.00  0.00    -0.354 OA
HETATM   28  C   UNL     1      18.422  48.492  49.546  1.00  0.00     0.210 C 
ENDBRANCH  21  27
ENDBRANCH  15  18
ENDBRANCH  13  14
ENDBRANCH  12  13
ENDBRANCH   2  12
BRANCH   1  29
HETATM   29  C   UNL     1      27.197  43.076  51.533  1.00  0.00     0.043 A 
HETATM   30  C   UNL     1      26.746  41.785  51.817  1.00  0.00     0.033 A 
HETATM   31  C   UNL     1      26.343  40.961  50.759  1.00  0.00     0.039 A 
HETATM   32  C   UNL     1      26.372  41.437  49.444  1.00  0.00     0.068 A 
HETATM   33  C   UNL     1      26.829  42.736  49.186  1.00  0.00     0.039 A 
HETATM   34  C   UNL     1      27.243  43.565  50.227  1.00  0.00     0.033 A 
BRANCH  32  35
HETATM   35  O   UNL     1      25.967  40.759  48.332  1.00  0.00    -0.352 OA
BRANCH  35  36
HETATM   36  C   UNL     1      24.963  41.356  47.511  1.00  0.00     0.171 C 
HETATM   37  C   UNL     1      23.616  41.104  48.164  1.00  0.00     0.034 C 
ENDBRANCH  35  36
ENDBRANCH  32  35
ENDBRANCH   1  29
BRANCH   6  38
HETATM   38  N   UNL     1      29.586  42.831  52.985  1.00  0.00    -0.384 N 
HETATM   39  H   UNL     1      30.310  43.091  52.322  1.00  0.00     0.157 HD
HETATM   40  H   UNL     1      29.368  41.841  52.993  1.00  0.00     0.157 HD
ENDBRANCH   6  38
TORSDOF 10
ENDMDL
MODEL 3
REMARK VINA RESULT:      -8.0      1.947      2.792
REMARK  10 active torsions:
REMARK  status: ('A' for Active; 'I' for Inactive)
REMARK    1  A    between atoms: C_2  and  O_3 
REMARK    2  A    between atoms: O_3  and  C_4 
REMARK    3  A    between atoms: C_7  and  N_8 
REMARK    4  A    between atoms: C_9  and  S_10 
REMARK    5  A    between atoms: S_10  and  C_11 
REMARK    6  A    between atoms: C_11  and  C_12 
REMARK       I    between atoms: C_12  and  N_13 
REMARK    7  A    between atoms: N_13  and  C_14 
REMARK    8  A    between atoms: C_15  and  O_16 
REMARK    9  A    between atoms: C_19  and  O_20 
REMARK   10  A    between atoms: C_29  and  N_30 
ROOT
HETATM    1  N   UNL     1      27.637  42.459  51.122  1.00  0.00    -0.276 N 
HETATM    2  C   UNL     1      27.116  43.300  50.180  1.00  0.00     0.177 A 
HETATM    3  N   UNL     1      26.592  42.896  49.018  1.00  0.00    -0.204 NA
HETATM    4  C   UNL     1      26.667  41.586  48.831  1.00  0.00     0.162 A 
HETATM    5  C   UNL     1      27.172  40.660  49.714  1.00  0.00     0.081 A 
HETATM    6  C   UNL     1      27.658  41.100  50.956  1.00  0.00     0.124 A 
HETATM    7  N   UNL     1      26.258  40.912  47.719  1.00  0.00    -0.260 N 
HETATM    8  H   UNL     1      25.846  41.299  46.874  1.00  0.00     0.191 HD
HETATM    9  N   UNL     1      26.457  39.587  47.815  1.00  0.00    -0.177 NA
HETATM   10  C   UNL     1      27.021  39.423  49.019  1.00  0.00     0.068 A 
HETATM   11  C   UNL     1      27.407  38.055  49.454  1.00  0.00     0.073 C 
ENDROOT
BRANCH   2  12
HETATM   12  S   UNL     1      27.070  45.090  50.399  1.00  0.00    -0.082 SA
BRANCH  12  13
HETATM   13  C   UNL     1      25.349  45.356  50.996  1.00  0.00     0.185 C 
BRANCH  13  14
HETATM   14  C   UNL     1      25.062  46.804  51.371  1.00  0.00     0.232 C 
HETATM   15  N   UNL     1      24.425  47.658  50.522  1.00  0.00    -0.324 N 
HETATM   16  H   UNL     1      24.588  48.636  50.752  1.00  0.00     0.169 HD
HETATM   17  O   UNL     1      25.492  47.262  52.437  1.00  0.00    -0.272 OA
BRANCH  15  18
HETATM   18  C   UNL     1      23.530  47.474  49.451  1.00  0.00     0.070 A 
HETATM   19  C   UNL     1      22.813  48.610  49.017  1.00  0.00     0.097 A 
HETATM   20  C   UNL     1      21.847  48.492  48.009  1.00  0.00     0.077 A 
HETATM   21  C   UNL     1      21.565  47.245  47.441  1.00  0.00     0.092 A 
HETATM   22  C   UNL     1      22.270  46.120  47.897  1.00  0.00     0.069 A 
HETATM   23 CL   UNL     1      21.945  44.539  47.270  1.00  0.00    -0.081 Cl
HETATM   24  C   UNL     1      23.243  46.231  48.895  1.00  0.00     0.059 A 
BRANCH  19  25
HETATM   25  O   UNL     1      23.158  49.789  49.638  1.00  0.00    -0.354 OA
HETATM   26  C   UNL     1      23.080  50.986  48.871  1.00  0.00     0.210 C 
ENDBRANCH  19  25
BRANCH  21  27
HETATM   27  O   UNL     1      20.632  47.028  46.462  1.00  0.00    -0.354 OA
HETATM   28  C   UNL     1      19.259  47.042  46.827  1.00  0.00     0.210 C 
ENDBRANCH  21  27
ENDBRANCH  15  18
ENDBRANCH  13  14
ENDBRANCH  12  13
ENDBRANCH   2  12
BRANCH   1  29
HETATM   29  C   UNL     1      28.235  42.999  52.313  1.00  0.00     0.043 A 
HETATM   30  C   UNL     1      27.419  43.404  53.372  1.00  0.00     0.033 A 
HETATM   31  C   UNL     1      28.016  43.796  54.575  1.00  0.00     0.039 A 
HETATM   32  C   UNL     1      29.407  43.759  54.716  1.00  0.00     0.068 A 
HETATM   33  C   UNL     1      30.203  43.350  53.639  1.00  0.00     0.039 A 
HETATM   34  C   UNL     1      29.625  42.966  52.431  1.00  0.00     0.033 A 
BRANCH  32  35
HETATM   35  O   UNL     1      30.113  44.070  55.842  1.00  0.00    -0.352 OA
BRANCH  35  36
HETATM   36  C   UNL     1      30.940  43.058  56.416  1.00  0.00     0.171 C 
HETATM   37  C   UNL     1      31.933  43.739  57.341  1.00  0.00     0.034 C 
ENDBRANCH  35  36
ENDBRANCH  32  35
ENDBRANCH   1  29
BRANCH   6  38
HETATM   38  N   UNL     1      28.126  40.221  51.928  1.00  0.00    -0.384 N 
HETATM   39  H   UNL     1      28.704  39.440  51.630  1.00  0.00     0.157 HD
HETATM   40  H   UNL     1      27.605  40.049  52.780  1.00  0.00     0.157 HD
ENDBRANCH   6  38
TORSDOF 10
ENDMDL
MODEL 4
REMARK VINA RESULT:      -7.9      2.487      3.771
REMARK  10 active torsions:
REMARK  status: ('A' for Active; 'I' for Inactive)
REMARK    1  A    between atoms: C_2  and  O_3 
REMARK    2  A    between atoms: O_3  and  C_4 
REMARK    3  A    between atoms: C_7  and  N_8 
REMARK    4  A    between atoms: C_9  and  S_10 
REMARK    5  A    between atoms: S_10  and  C_11 
REMARK    6  A    between atoms: C_11  and  C_12 
REMARK       I    between atoms: C_12  and  N_13 
REMARK    7  A    between atoms: N_13  and  C_14 
REMARK    8  A    between atoms: C_15  and  O_16 
REMARK    9  A    between atoms: C_19  and  O_20 
REMARK   10  A    between atoms: C_29  and  N_30 
ROOT
HETATM    1  N   UNL     1      26.835  43.013  51.263  1.00  0.00    -0.276 N 
HETATM    2  C   UNL     1      26.195  44.112  50.765  1.00  0.00     0.177 A 
HETATM    3  N   UNL     1      25.443  44.108  49.658  1.00  0.00    -0.204 NA
HETATM    4  C   UNL     1      25.411  42.933  49.045  1.00  0.00     0.162 A 
HETATM    5  C   UNL     1      26.020  41.773  49.465  1.00  0.00     0.081 A 
HETATM    6  C   UNL     1      26.750  41.785  50.664  1.00  0.00     0.124 A 
HETATM    7  N   UNL     1      24.767  42.658  47.876  1.00  0.00    -0.260 N 
HETATM    8  H   UNL     1      24.227  43.298  47.298  1.00  0.00     0.191 HD
HETATM    9  N   UNL     1      24.908  41.378  47.496  1.00  0.00    -0.177 NA
HETATM   10  C   UNL     1      25.675  40.833  48.448  1.00  0.00     0.068 A 
HETATM   11  C   UNL     1      26.059  39.401  48.333  1.00  0.00     0.073 C 
ENDROOT
BRANCH   2  12
HETATM   12  S   UNL     1      26.288  45.730  51.557  1.00  0.00    -0.082 SA
BRANCH  12  13
HETATM   13  C   UNL     1      24.851  46.603  50.808  1.00  0.00     0.185 C 
BRANCH  13  14
HETATM   14  C   UNL     1      25.259  47.685  49.817  1.00  0.00     0.232 C 
HETATM   15  N   UNL     1      24.362  48.270  48.975  1.00  0.00    -0.324 N 
HETATM   16  H   UNL     1      24.806  48.714  48.174  1.00  0.00     0.169 HD
HETATM   17  O   UNL     1      26.452  47.991  49.693  1.00  0.00    -0.272 OA
BRANCH  15  18
HETATM   18  C   UNL     1      22.969  48.460  49.022  1.00  0.00     0.070 A 
HETATM   19  C   UNL     1      22.166  47.429  48.487  1.00  0.00     0.097 A 
HETATM   20  C   UNL     1      20.773  47.578  48.425  1.00  0.00     0.077 A 
HETATM   21  C   UNL     1      20.168  48.758  48.869  1.00  0.00     0.092 A 
HETATM   22  C   UNL     1      20.979  49.784  49.379  1.00  0.00     0.069 A 
HETATM   23 CL   UNL     1      20.304  51.287  49.908  1.00  0.00    -0.081 Cl
HETATM   24  C   UNL     1      22.368  49.639  49.453  1.00  0.00     0.059 A 
BRANCH  19  25
HETATM   25  O   UNL     1      22.854  46.311  48.072  1.00  0.00    -0.354 OA
HETATM   26  C   UNL     1      22.188  45.056  48.164  1.00  0.00     0.210 C 
ENDBRANCH  19  25
BRANCH  21  27
HETATM   27  O   UNL     1      18.820  49.001  48.838  1.00  0.00    -0.354 OA
HETATM   28  C   UNL     1      17.983  48.260  49.716  1.00  0.00     0.210 C 
ENDBRANCH  21  27
ENDBRANCH  15  18
ENDBRANCH  13  14
ENDBRANCH  12  13
ENDBRANCH   2  12
BRANCH   1  29
HETATM   29  C   UNL     1      27.672  43.136  52.426  1.00  0.00     0.043 A 
HETATM   30  C   UNL     1      29.060  43.164  52.276  1.00  0.00     0.033 A 
HETATM   31  C   UNL     1      29.856  43.423  53.398  1.00  0.00     0.039 A 
HETATM   32  C   UNL     1      29.264  43.671  54.640  1.00  0.00     0.068 A 
HETATM   33  C   UNL     1      27.869  43.637  54.764  1.00  0.00     0.039 A 
HETATM   34  C   UNL     1      27.062  43.370  53.659  1.00  0.00     0.033 A 
BRANCH  32  35
HETATM   35  O   UNL     1      29.917  43.980  55.798  1.00  0.00    -0.352 OA
BRANCH  35  36
HETATM   36  C   UNL     1      31.064  43.206  56.148  1.00  0.00     0.171 C 
HETATM   37  C   UNL     1      31.660  43.803  57.411  1.00  0.00     0.034 C 
ENDBRANCH  35  36
ENDBRANCH  32  35
ENDBRANCH   1  29
BRANCH   6  38
HETATM   38  N   UNL     1      27.342  40.639  51.188  1.00  0.00    -0.384 N 
HETATM   39  H   UNL     1      27.373  39.807  50.607  1.00  0.00     0.157 HD
HETATM   40  H   UNL     1      27.336  40.450  52.184  1.00  0.00     0.157 HD
ENDBRANCH   6  38
TORSDOF 10
ENDMDL
MODEL 5
REMARK VINA RESULT:      -7.9      2.267      3.490
REMARK  10 active torsions:
REMARK  status: ('A' for Active; 'I' for Inactive)
REMARK    1  A    between atoms: C_2  and  O_3 
REMARK    2  A    between atoms: O_3  and  C_4 
REMARK    3  A    between atoms: C_7  and  N_8 
REMARK    4  A    between atoms: C_9  and  S_10 
REMARK    5  A    between atoms: S_10  and  C_11 
REMARK    6  A    between atoms: C_11  and  C_12 
REMARK       I    between atoms: C_12  and  N_13 
REMARK    7  A    between atoms: N_13  and  C_14 
REMARK    8  A    between atoms: C_15  and  O_16 
REMARK    9  A    between atoms: C_19  and  O_20 
REMARK   10  A    between atoms: C_29  and  N_30 
ROOT
HETATM    1  N   UNL     1      27.778  42.304  51.126  1.00  0.00    -0.276 N 
HETATM    2  C   UNL     1      27.201  43.277  50.361  1.00  0.00     0.177 A 
HETATM    3  N   UNL     1      26.684  43.071  49.144  1.00  0.00    -0.204 NA
HETATM    4  C   UNL     1      26.825  41.825  48.714  1.00  0.00     0.162 A 
HETATM    5  C   UNL     1      27.390  40.779  49.406  1.00  0.00     0.081 A 
HETATM    6  C   UNL     1      27.868  41.004  50.707  1.00  0.00     0.124 A 
HETATM    7  N   UNL     1      26.438  41.350  47.497  1.00  0.00    -0.260 N 
HETATM    8  H   UNL     1      25.996  41.867  46.741  1.00  0.00     0.191 HD
HETATM    9  N   UNL     1      26.708  40.044  47.341  1.00  0.00    -0.177 NA
HETATM   10  C   UNL     1      27.295  39.688  48.491  1.00  0.00     0.068 A 
HETATM   11  C   UNL     1      27.758  38.285  48.660  1.00  0.00     0.073 C 
ENDROOT
BRANCH   2  12
HETATM   12  S   UNL     1      27.064  44.989  50.913  1.00  0.00    -0.082 SA
BRANCH  12  13
HETATM   13  C   UNL     1      25.258  45.142  51.232  1.00  0.00     0.185 C 
BRANCH  13  14
HETATM   14  C   UNL     1      24.699  46.510  50.866  1.00  0.00     0.232 C 
HETATM   15  N   UNL     1      23.952  46.710  49.745  1.00  0.00    -0.324 N 
HETATM   16  H   UNL     1      23.925  47.687  49.458  1.00  0.00     0.169 HD
HETATM   17  O   UNL     1      24.996  47.501  51.547  1.00  0.00    -0.272 OA
BRANCH  15  18
HETATM   18  C   UNL     1      23.148  45.871  48.952  1.00  0.00     0.070 A 
HETATM   19  C   UNL     1      21.908  46.393  48.523  1.00  0.00     0.097 A 
HETATM   20  C   UNL     1      21.018  45.590  47.796  1.00  0.00     0.077 A 
HETATM   21  C   UNL     1      21.337  44.259  47.510  1.00  0.00     0.092 A 
HETATM   22  C   UNL     1      22.563  43.745  47.960  1.00  0.00     0.069 A 
HETATM   23 CL   UNL     1      23.007  42.096  47.680  1.00  0.00    -0.081 Cl
HETATM   24  C   UNL     1      23.461  44.543  48.678  1.00  0.00     0.059 A 
BRANCH  19  25
HETATM   25  O   UNL     1      21.683  47.709  48.857  1.00  0.00    -0.354 OA
HETATM   26  C   UNL     1      21.557  48.646  47.792  1.00  0.00     0.210 C 
ENDBRANCH  19  25
BRANCH  21  27
HETATM   27  O   UNL     1      20.529  43.396  46.818  1.00  0.00    -0.354 OA
HETATM   28  C   UNL     1      19.829  43.891  45.685  1.00  0.00     0.210 C 
ENDBRANCH  21  27
ENDBRANCH  15  18
ENDBRANCH  13  14
ENDBRANCH  12  13
ENDBRANCH   2  12
BRANCH   1  29
HETATM   29  C   UNL     1      28.362  42.642  52.396  1.00  0.00     0.043 A 
HETATM   30  C   UNL     1      29.746  42.800  52.497  1.00  0.00     0.033 A 
HETATM   31  C   UNL     1      30.287  43.263  53.702  1.00  0.00     0.039 A 
HETATM   32  C   UNL     1      29.449  43.582  54.775  1.00  0.00     0.068 A 
HETATM   33  C   UNL     1      28.064  43.413  54.648  1.00  0.00     0.039 A 
HETATM   34  C   UNL     1      27.510  42.944  53.459  1.00  0.00     0.033 A 
BRANCH  32  35
HETATM   35  O   UNL     1      29.838  44.083  55.983  1.00  0.00    -0.352 OA
BRANCH  35  36
HETATM   36  C   UNL     1      31.231  44.309  56.198  1.00  0.00     0.171 C 
HETATM   37  C   UNL     1      31.722  43.274  57.194  1.00  0.00     0.034 C 
ENDBRANCH  35  36
ENDBRANCH  32  35
ENDBRANCH   1  29
BRANCH   6  38
HETATM   38  N   UNL     1      28.395  39.984  51.495  1.00  0.00    -0.384 N 
HETATM   39  H   UNL     1      28.507  40.155  52.490  1.00  0.00     0.157 HD
HETATM   40  H   UNL     1      29.047  39.307  51.115  1.00  0.00     0.157 HD
ENDBRANCH   6  38
TORSDOF 10
ENDMDL
MODEL 6
REMARK VINA RESULT:      -7.9      2.700      5.533
REMARK  10 active torsions:
REMARK  status: ('A' for Active; 'I' for Inactive)
REMARK    1  A    between atoms: C_2  and  O_3 
REMARK    2  A    between atoms: O_3  and  C_4 
REMARK    3  A    between atoms: C_7  and  N_8 
REMARK    4  A    between atoms: C_9  and  S_10 
REMARK    5  A    between atoms: S_10  and  C_11 
REMARK    6  A    between atoms: C_11  and  C_12 
REMARK       I    between atoms: C_12  and  N_13 
REMARK    7  A    between atoms: N_13  and  C_14 
REMARK    8  A    between atoms: C_15  and  O_16 
REMARK    9  A    between atoms: C_19  and  O_20 
REMARK   10  A    between atoms: C_29  and  N_30 
ROOT
HETATM    1  N   UNL     1      27.413  43.334  52.130  1.00  0.00    -0.276 N 
HETATM    2  C   UNL     1      26.592  44.393  52.395  1.00  0.00     0.177 A 
HETATM    3  N   UNL     1      26.800  45.280  53.376  1.00  0.00    -0.204 NA
HETATM    4  C   UNL     1      27.866  45.011  54.115  1.00  0.00     0.162 A 
HETATM    5  C   UNL     1      28.750  43.973  53.930  1.00  0.00     0.081 A 
HETATM    6  C   UNL     1      28.549  43.092  52.855  1.00  0.00     0.124 A 
HETATM    7  N   UNL     1      28.283  45.715  55.205  1.00  0.00    -0.260 N 
HETATM    8  H   UNL     1      27.847  46.536  55.617  1.00  0.00     0.191 HD
HETATM    9  N   UNL     1      29.398  45.208  55.753  1.00  0.00    -0.177 NA
HETATM   10  C   UNL     1      29.687  44.144  54.994  1.00  0.00     0.068 A 
HETATM   11  C   UNL     1      30.872  43.313  55.335  1.00  0.00     0.073 C 
ENDROOT
BRANCH   2  12
HETATM   12  S   UNL     1      25.103  44.729  51.434  1.00  0.00    -0.082 SA
BRANCH  12  13
HETATM   13  C   UNL     1      24.844  46.523  51.748  1.00  0.00     0.185 C 
BRANCH  13  14
HETATM   14  C   UNL     1      25.429  47.413  50.658  1.00  0.00     0.232 C 
HETATM   15  N   UNL     1      24.795  47.611  49.469  1.00  0.00    -0.324 N 
HETATM   16  H   UNL     1      25.423  47.941  48.739  1.00  0.00     0.169 HD
HETATM   17  O   UNL     1      26.555  47.906  50.803  1.00  0.00    -0.272 OA
BRANCH  15  18
HETATM   18  C   UNL     1      23.450  47.535  49.062  1.00  0.00     0.070 A 
HETATM   19  C   UNL     1      22.669  48.701  49.217  1.00  0.00     0.097 A 
HETATM   20  C   UNL     1      21.302  48.681  48.907  1.00  0.00     0.077 A 
HETATM   21  C   UNL     1      20.693  47.502  48.467  1.00  0.00     0.092 A 
HETATM   22  C   UNL     1      21.476  46.344  48.337  1.00  0.00     0.069 A 
HETATM   23 CL   UNL     1      20.783  44.839  47.838  1.00  0.00    -0.081 Cl
HETATM   24  C   UNL     1      22.843  46.358  48.635  1.00  0.00     0.059 A 
BRANCH  19  25
HETATM   25  O   UNL     1      23.357  49.808  49.660  1.00  0.00    -0.354 OA
HETATM   26  C   UNL     1      23.142  51.036  48.973  1.00  0.00     0.210 C 
ENDBRANCH  19  25
BRANCH  21  27
HETATM   27  O   UNL     1      19.366  47.381  48.152  1.00  0.00    -0.354 OA
HETATM   28  C   UNL     1      18.408  47.630  49.172  1.00  0.00     0.210 C 
ENDBRANCH  21  27
ENDBRANCH  15  18
ENDBRANCH  13  14
ENDBRANCH  12  13
ENDBRANCH   2  12
BRANCH   1  29
HETATM   29  C   UNL     1      27.068  42.400  51.093  1.00  0.00     0.043 A 
HETATM   30  C   UNL     1      26.468  41.186  51.431  1.00  0.00     0.033 A 
HETATM   31  C   UNL     1      26.011  40.348  50.407  1.00  0.00     0.039 A 
HETATM   32  C   UNL     1      26.136  40.738  49.069  1.00  0.00     0.068 A 
HETATM   33  C   UNL     1      26.743  41.961  48.757  1.00  0.00     0.039 A 
HETATM   34  C   UNL     1      27.212  42.802  49.764  1.00  0.00     0.033 A 
BRANCH  32  35
HETATM   35  O   UNL     1      25.696  40.042  47.981  1.00  0.00    -0.352 OA
BRANCH  35  36
HETATM   36  C   UNL     1      24.761  40.679  47.111  1.00  0.00     0.171 C 
HETATM   37  C   UNL     1      23.472  40.887  47.887  1.00  0.00     0.034 C 
ENDBRANCH  35  36
ENDBRANCH  32  35
ENDBRANCH   1  29
BRANCH   6  38
HETATM   38  N   UNL     1      29.433  42.056  52.564  1.00  0.00    -0.384 N 
HETATM   39  H   UNL     1      29.850  41.549  53.339  1.00  0.00     0.157 HD
HETATM   40  H   UNL     1      29.999  42.066  51.723  1.00  0.00     0.157 HD
ENDBRANCH   6  38
TORSDOF 10
ENDMDL
MODEL 7
REMARK VINA RESULT:      -7.8      3.519      6.618
REMARK  10 active torsions:
REMARK  status: ('A' for Active; 'I' for Inactive)
REMARK    1  A    between atoms: C_2  and  O_3 
REMARK    2  A    between atoms: O_3  and  C_4 
REMARK    3  A    between atoms: C_7  and  N_8 
REMARK    4  A    between atoms: C_9  and  S_10 
REMARK    5  A    between atoms: S_10  and  C_11 
REMARK    6  A    between atoms: C_11  and  C_12 
REMARK       I    between atoms: C_12  and  N_13 
REMARK    7  A    between atoms: N_13  and  C_14 
REMARK    8  A    between atoms: C_15  and  O_16 
REMARK    9  A    between atoms: C_19  and  O_20 
REMARK   10  A    between atoms: C_29  and  N_30 
ROOT
HETATM    1  N   UNL     1      26.100  45.059  51.734  1.00  0.00    -0.276 N 
HETATM    2  C   UNL     1      25.440  46.223  51.459  1.00  0.00     0.177 A 
HETATM    3  N   UNL     1      25.469  47.308  52.242  1.00  0.00    -0.204 NA
HETATM    4  C   UNL     1      26.165  47.137  53.357  1.00  0.00     0.162 A 
HETATM    5  C   UNL     1      26.860  46.008  53.723  1.00  0.00     0.081 A 
HETATM    6  C   UNL     1      26.870  44.904  52.855  1.00  0.00     0.124 A 
HETATM    7  N   UNL     1      26.318  48.054  54.353  1.00  0.00    -0.260 N 
HETATM    8  H   UNL     1      25.925  48.991  54.401  1.00  0.00     0.191 HD
HETATM    9  N   UNL     1      27.080  47.601  55.361  1.00  0.00    -0.177 NA
HETATM   10  C   UNL     1      27.408  46.356  54.994  1.00  0.00     0.068 A 
HETATM   11  C   UNL     1      28.245  45.532  55.906  1.00  0.00     0.073 C 
ENDROOT
BRANCH   2  12
HETATM   12  S   UNL     1      24.437  46.441  49.975  1.00  0.00    -0.082 SA
BRANCH  12  13
HETATM   13  C   UNL     1      23.970  48.218  50.090  1.00  0.00     0.185 C 
BRANCH  13  14
HETATM   14  C   UNL     1      24.381  49.025  48.865  1.00  0.00     0.232 C 
HETATM   15  N   UNL     1      23.490  49.373  47.896  1.00  0.00    -0.324 N 
HETATM   16  H   UNL     1      23.941  49.611  47.014  1.00  0.00     0.169 HD
HETATM   17  O   UNL     1      25.573  49.305  48.683  1.00  0.00    -0.272 OA
BRANCH  15  18
HETATM   18  C   UNL     1      22.095  49.552  47.880  1.00  0.00     0.070 A 
HETATM   19  C   UNL     1      21.319  48.482  47.383  1.00  0.00     0.097 A 
HETATM   20  C   UNL     1      19.929  48.614  47.261  1.00  0.00     0.077 A 
HETATM   21  C   UNL     1      19.300  49.814  47.607  1.00  0.00     0.092 A 
HETATM   22  C   UNL     1      20.084  50.878  48.080  1.00  0.00     0.069 A 
HETATM   23 CL   UNL     1      19.379  52.405  48.487  1.00  0.00    -0.081 Cl
HETATM   24  C   UNL     1      21.470  50.751  48.213  1.00  0.00     0.059 A 
BRANCH  19  25
HETATM   25  O   UNL     1      22.030  47.347  47.066  1.00  0.00    -0.354 OA
HETATM   26  C   UNL     1      21.539  46.104  47.556  1.00  0.00     0.210 C 
ENDBRANCH  19  25
BRANCH  21  27
HETATM   27  O   UNL     1      17.952  50.042  47.512  1.00  0.00    -0.354 OA
HETATM   28  C   UNL     1      17.124  49.641  48.595  1.00  0.00     0.210 C 
ENDBRANCH  21  27
ENDBRANCH  15  18
ENDBRANCH  13  14
ENDBRANCH  12  13
ENDBRANCH   2  12
BRANCH   1  29
HETATM   29  C   UNL     1      25.954  43.928  50.858  1.00  0.00     0.043 A 
HETATM   30  C   UNL     1      26.947  43.656  49.914  1.00  0.00     0.033 A 
HETATM   31  C   UNL     1      26.861  42.477  49.164  1.00  0.00     0.039 A 
HETATM   32  C   UNL     1      25.810  41.580  49.377  1.00  0.00     0.068 A 
HETATM   33  C   UNL     1      24.827  41.878  50.330  1.00  0.00     0.039 A 
HETATM   34  C   UNL     1      24.891  43.052  51.078  1.00  0.00     0.033 A 
BRANCH  32  35
HETATM   35  O   UNL     1      25.632  40.381  48.752  1.00  0.00    -0.352 OA
BRANCH  35  36
HETATM   36  C   UNL     1      25.098  40.387  47.428  1.00  0.00     0.171 C 
HETATM   37  C   UNL     1      25.815  39.311  46.632  1.00  0.00     0.034 C 
ENDBRANCH  35  36
ENDBRANCH  32  35
ENDBRANCH   1  29
BRANCH   6  38
HETATM   38  N   UNL     1      27.600  43.750  53.124  1.00  0.00    -0.384 N 
HETATM   39  H   UNL     1      27.095  42.874  53.221  1.00  0.00     0.157 HD
HETATM   40  H   UNL     1      28.471  43.785  53.642  1.00  0.00     0.157 HD
ENDBRANCH   6  38
TORSDOF 10
ENDMDL
MODEL 8
REMARK VINA RESULT:      -7.8      3.568      8.155
REMARK  10 active torsions:
REMARK  status: ('A' for Active; 'I' for Inactive)
REMARK    1  A    between atoms: C_2  and  O_3 
REMARK    2  A    between atoms: O_3  and  C_4 
REMARK    3  A    between atoms: C_7  and  N_8 
REMARK    4  A    between atoms: C_9  and  S_10 
REMARK    5  A    between atoms: S_10  and  C_11 
REMARK    6  A    between atoms: C_11  and  C_12 
REMARK       I    between atoms: C_12  and  N_13 
REMARK    7  A    between atoms: N_13  and  C_14 
REMARK    8  A    between atoms: C_15  and  O_16 
REMARK    9  A    between atoms: C_19  and  O_20 
REMARK   10  A    between atoms: C_29  and  N_30 
ROOT
HETATM    1  N   UNL     1      24.391  45.865  49.887  1.00  0.00    -0.276 N 
HETATM    2  C   UNL     1      23.327  45.146  49.420  1.00  0.00     0.177 A 
HETATM    3  N   UNL     1      22.355  45.653  48.653  1.00  0.00    -0.204 NA
HETATM    4  C   UNL     1      22.488  46.951  48.420  1.00  0.00     0.162 A 
HETATM    5  C   UNL     1      23.517  47.758  48.845  1.00  0.00     0.081 A 
HETATM    6  C   UNL     1      24.560  47.191  49.594  1.00  0.00     0.124 A 
HETATM    7  N   UNL     1      21.620  47.729  47.714  1.00  0.00    -0.260 N 
HETATM    8  H   UNL     1      20.750  47.446  47.271  1.00  0.00     0.191 HD
HETATM    9  N   UNL     1      22.016  49.010  47.641  1.00  0.00    -0.177 NA
HETATM   10  C   UNL     1      23.163  49.042  48.332  1.00  0.00     0.068 A 
HETATM   11  C   UNL     1      23.880  50.336  48.480  1.00  0.00     0.073 C 
ENDROOT
BRANCH   2  12
HETATM   12  S   UNL     1      23.105  43.394  49.787  1.00  0.00    -0.082 SA
BRANCH  12  13
HETATM   13  C   UNL     1      23.726  42.601  48.247  1.00  0.00     0.185 C 
BRANCH  13  14
HETATM   14  C   UNL     1      23.288  41.150  48.102  1.00  0.00     0.232 C 
HETATM   15  N   UNL     1      24.178  40.145  47.871  1.00  0.00    -0.324 N 
HETATM   16  H   UNL     1      23.740  39.313  47.481  1.00  0.00     0.169 HD
HETATM   17  O   UNL     1      22.083  40.866  48.102  1.00  0.00    -0.272 OA
BRANCH  15  18
HETATM   18  C   UNL     1      25.552  39.986  48.132  1.00  0.00     0.070 A 
HETATM   19  C   UNL     1      26.298  39.243  47.192  1.00  0.00     0.097 A 
HETATM   20  C   UNL     1      27.655  38.974  47.422  1.00  0.00     0.077 A 
HETATM   21  C   UNL     1      28.275  39.418  48.594  1.00  0.00     0.092 A 
HETATM   22  C   UNL     1      27.517  40.137  49.531  1.00  0.00     0.069 A 
HETATM   23 CL   UNL     1      28.207  40.681  51.022  1.00  0.00    -0.081 Cl
HETATM   24  C   UNL     1      26.165  40.418  49.304  1.00  0.00     0.059 A 
BRANCH  19  25
HETATM   25  O   UNL     1      25.599  38.847  46.075  1.00  0.00    -0.354 OA
HETATM   26  C   UNL     1      26.328  38.689  44.863  1.00  0.00     0.210 C 
ENDBRANCH  19  25
BRANCH  21  27
HETATM   27  O   UNL     1      29.589  39.195  48.912  1.00  0.00    -0.354 OA
HETATM   28  C   UNL     1      29.948  37.923  49.434  1.00  0.00     0.210 C 
ENDBRANCH  21  27
ENDBRANCH  15  18
ENDBRANCH  13  14
ENDBRANCH  12  13
ENDBRANCH   2  12
BRANCH   1  29
HETATM   29  C   UNL     1      25.350  45.242  50.759  1.00  0.00     0.043 A 
HETATM   30  C   UNL     1      26.513  44.688  50.220  1.00  0.00     0.033 A 
HETATM   31  C   UNL     1      27.500  44.210  51.089  1.00  0.00     0.039 A 
HETATM   32  C   UNL     1      27.329  44.309  52.473  1.00  0.00     0.068 A 
HETATM   33  C   UNL     1      26.152  44.868  52.988  1.00  0.00     0.039 A 
HETATM   34  C   UNL     1      25.155  45.339  52.137  1.00  0.00     0.033 A 
BRANCH  32  35
HETATM   35  O   UNL     1      28.226  43.926  53.427  1.00  0.00    -0.352 OA
BRANCH  35  36
HETATM   36  C   UNL     1      29.471  43.377  52.996  1.00  0.00     0.171 C 
HETATM   37  C   UNL     1      30.272  43.012  54.233  1.00  0.00     0.034 C 
ENDBRANCH  35  36
ENDBRANCH  32  35
ENDBRANCH   1  29
BRANCH   6  38
HETATM   38  N   UNL     1      25.667  47.927  50.007  1.00  0.00    -0.384 N 
HETATM   39  H   UNL     1      25.539  48.614  50.745  1.00  0.00     0.157 HD
HETATM   40  H   UNL     1      26.428  48.139  49.371  1.00  0.00     0.157 HD
ENDBRANCH   6  38
TORSDOF 10
ENDMDL
MODEL 9
REMARK VINA RESULT:      -7.7      2.846      5.925
REMARK  10 active torsions:
REMARK  status: ('A' for Active; 'I' for Inactive)
REMARK    1  A    between atoms: C_2  and  O_3 
REMARK    2  A    between atoms: O_3  and  C_4 
REMARK    3  A    between atoms: C_7  and  N_8 
REMARK    4  A    between atoms: C_9  and  S_10 
REMARK    5  A    between atoms: S_10  and  C_11 
REMARK    6  A    between atoms: C_11  and  C_12 
REMARK       I    between atoms: C_12  and  N_13 
REMARK    7  A    between atoms: N_13  and  C_14 
REMARK    8  A    between atoms: C_15  and  O_16 
REMARK    9  A    between atoms: C_19  and  O_20 
REMARK   10  A    between atoms: C_29  and  N_30 
ROOT
HETATM    1  N   UNL     1      26.211  42.499  51.053  1.00  0.00    -0.276 N 
HETATM    2  C   UNL     1      24.932  42.968  51.141  1.00  0.00     0.177 A 
HETATM    3  N   UNL     1      24.509  43.832  52.072  1.00  0.00    -0.204 NA
HETATM    4  C   UNL     1      25.445  44.162  52.950  1.00  0.00     0.162 A 
HETATM    5  C   UNL     1      26.756  43.744  52.947  1.00  0.00     0.081 A 
HETATM    6  C   UNL     1      27.194  42.889  51.923  1.00  0.00     0.124 A 
HETATM    7  N   UNL     1      25.278  44.980  54.028  1.00  0.00    -0.260 N 
HETATM    8  H   UNL     1      24.427  45.449  54.326  1.00  0.00     0.191 HD
HETATM    9  N   UNL     1      26.406  45.134  54.740  1.00  0.00    -0.177 NA
HETATM   10  C   UNL     1      27.308  44.381  54.099  1.00  0.00     0.068 A 
HETATM   11  C   UNL     1      28.691  44.296  54.638  1.00  0.00     0.073 C 
ENDROOT
BRANCH   2  12
HETATM   12  S   UNL     1      23.636  42.472  49.988  1.00  0.00    -0.082 SA
BRANCH  12  13
HETATM   13  C   UNL     1      22.327  43.720  50.328  1.00  0.00     0.185 C 
BRANCH  13  14
HETATM   14  C   UNL     1      21.915  44.508  49.091  1.00  0.00     0.232 C 
HETATM   15  N   UNL     1      22.412  45.747  48.824  1.00  0.00    -0.324 N 
HETATM   16  H   UNL     1      21.829  46.274  48.176  1.00  0.00     0.169 HD
HETATM   17  O   UNL     1      21.036  44.064  48.341  1.00  0.00    -0.272 OA
BRANCH  15  18
HETATM   18  C   UNL     1      23.594  46.419  49.189  1.00  0.00     0.070 A 
HETATM   19  C   UNL     1      23.526  47.825  49.286  1.00  0.00     0.097 A 
HETATM   20  C   UNL     1      24.679  48.570  49.567  1.00  0.00     0.077 A 
HETATM   21  C   UNL     1      25.912  47.931  49.730  1.00  0.00     0.092 A 
HETATM   22  C   UNL     1      25.971  46.534  49.610  1.00  0.00     0.069 A 
HETATM   23 CL   UNL     1      27.468  45.679  49.758  1.00  0.00    -0.081 Cl
HETATM   24  C   UNL     1      24.822  45.782  49.340  1.00  0.00     0.059 A 
BRANCH  19  25
HETATM   25  O   UNL     1      22.270  48.361  49.105  1.00  0.00    -0.354 OA
HETATM   26  C   UNL     1      22.124  49.378  48.119  1.00  0.00     0.210 C 
ENDBRANCH  19  25
BRANCH  21  27
HETATM   27  O   UNL     1      27.093  48.573  49.994  1.00  0.00    -0.354 OA
HETATM   28  C   UNL     1      27.717  49.294  48.940  1.00  0.00     0.210 C 
ENDBRANCH  21  27
ENDBRANCH  15  18
ENDBRANCH  13  14
ENDBRANCH  12  13
ENDBRANCH   2  12
BRANCH   1  29
HETATM   29  C   UNL     1      26.550  41.523  50.052  1.00  0.00     0.043 A 
HETATM   30  C   UNL     1      26.366  40.166  50.323  1.00  0.00     0.033 A 
HETATM   31  C   UNL     1      26.568  39.238  49.295  1.00  0.00     0.039 A 
HETATM   32  C   UNL     1      26.925  39.671  48.014  1.00  0.00     0.068 A 
HETATM   33  C   UNL     1      27.104  41.038  47.769  1.00  0.00     0.039 A 
HETATM   34  C   UNL     1      26.917  41.975  48.784  1.00  0.00     0.033 A 
BRANCH  32  35
HETATM   35  O   UNL     1      27.107  38.881  46.917  1.00  0.00    -0.352 OA
BRANCH  35  36
HETATM   36  C   UNL     1      27.481  37.519  47.124  1.00  0.00     0.171 C 
HETATM   37  C   UNL     1      28.995  37.436  47.051  1.00  0.00     0.034 C 
ENDBRANCH  35  36
ENDBRANCH  32  35
ENDBRANCH   1  29
BRANCH   6  38
HETATM   38  N   UNL     1      28.517  42.472  51.814  1.00  0.00    -0.384 N 
HETATM   39  H   UNL     1      28.808  42.017  50.954  1.00  0.00     0.157 HD
HETATM   40  H   UNL     1      29.053  42.198  52.630  1.00  0.00     0.157 HD
ENDBRANCH   6  38
TORSDOF 10
ENDMDL
MODEL 10
REMARK VINA RESULT:      -7.5      2.998      6.047
REMARK  10 active torsions:
REMARK  status: ('A' for Active; 'I' for Inactive)
REMARK    1  A    between atoms: C_2  and  O_3 
REMARK    2  A    between atoms: O_3  and  C_4 
REMARK    3  A    between atoms: C_7  and  N_8 
REMARK    4  A    between atoms: C_9  and  S_10 
REMARK    5  A    between atoms: S_10  and  C_11 
REMARK    6  A    between atoms: C_11  and  C_12 
REMARK       I    between atoms: C_12  and  N_13 
REMARK    7  A    between atoms: N_13  and  C_14 
REMARK    8  A    between atoms: C_15  and  O_16 
REMARK    9  A    between atoms: C_19  and  O_20 
REMARK   10  A    between atoms: C_29  and  N_30 
ROOT
HETATM    1  N   UNL     1      27.055  40.579  50.153  1.00  0.00    -0.276 N 
HETATM    2  C   UNL     1      25.938  41.319  49.884  1.00  0.00     0.177 A 
HETATM    3  N   UNL     1      25.526  42.355  50.624  1.00  0.00    -0.204 NA
HETATM    4  C   UNL     1      26.281  42.577  51.690  1.00  0.00     0.162 A 
HETATM    5  C   UNL     1      27.418  41.890  52.046  1.00  0.00     0.081 A 
HETATM    6  C   UNL     1      27.870  40.849  51.220  1.00  0.00     0.124 A 
HETATM    7  N   UNL     1      26.064  43.531  52.639  1.00  0.00    -0.260 N 
HETATM    8  H   UNL     1      25.302  44.203  52.682  1.00  0.00     0.191 HD
HETATM    9  N   UNL     1      26.997  43.522  53.605  1.00  0.00    -0.177 NA
HETATM   10  C   UNL     1      27.820  42.524  53.261  1.00  0.00     0.068 A 
HETATM   11  C   UNL     1      28.978  42.208  54.138  1.00  0.00     0.073 C 
ENDROOT
BRANCH   2  12
HETATM   12  S   UNL     1      24.870  40.982  48.471  1.00  0.00    -0.082 SA
BRANCH  12  13
HETATM   13  C   UNL     1      24.305  42.671  48.009  1.00  0.00     0.185 C 
BRANCH  13  14
HETATM   14  C   UNL     1      22.820  42.897  48.264  1.00  0.00     0.232 C 
HETATM   15  N   UNL     1      22.360  43.982  48.945  1.00  0.00    -0.324 N 
HETATM   16  H   UNL     1      21.422  43.845  49.317  1.00  0.00     0.169 HD
HETATM   17  O   UNL     1      21.999  42.034  47.929  1.00  0.00    -0.272 OA
BRANCH  15  18
HETATM   18  C   UNL     1      22.871  45.274  49.173  1.00  0.00     0.070 A 
HETATM   19  C   UNL     1      22.296  46.328  48.430  1.00  0.00     0.097 A 
HETATM   20  C   UNL     1      22.804  47.630  48.543  1.00  0.00     0.077 A 
HETATM   21  C   UNL     1      23.899  47.892  49.372  1.00  0.00     0.092 A 
HETATM   22  C   UNL     1      24.476  46.832  50.089  1.00  0.00     0.069 A 
HETATM   23 CL   UNL     1      25.858  47.075  51.101  1.00  0.00    -0.081 Cl
HETATM   24  C   UNL     1      23.969  45.532  49.989  1.00  0.00     0.059 A 
BRANCH  19  25
HETATM   25  O   UNL     1      21.228  45.969  47.640  1.00  0.00    -0.354 OA
HETATM   26  C   UNL     1      21.348  46.172  46.237  1.00  0.00     0.210 C 
ENDBRANCH  19  25
BRANCH  21  27
HETATM   27  O   UNL     1      24.472  49.126  49.538  1.00  0.00    -0.354 OA
HETATM   28  C   UNL     1      25.248  49.656  48.471  1.00  0.00     0.210 C 
ENDBRANCH  21  27
ENDBRANCH  15  18
ENDBRANCH  13  14
ENDBRANCH  12  13
ENDBRANCH   2  12
BRANCH   1  29
HETATM   29  C   UNL     1      27.378  39.445  49.331  1.00  0.00     0.043 A 
HETATM   30  C   UNL     1      26.829  38.196  49.633  1.00  0.00     0.033 A 
HETATM   31  C   UNL     1      27.040  37.133  48.748  1.00  0.00     0.039 A 
HETATM   32  C   UNL     1      27.770  37.329  47.571  1.00  0.00     0.068 A 
HETATM   33  C   UNL     1      28.311  38.590  47.292  1.00  0.00     0.039 A 
HETATM   34  C   UNL     1      28.119  39.658  48.168  1.00  0.00     0.033 A 
BRANCH  32  35
HETATM   35  O   UNL     1      28.010  36.396  46.606  1.00  0.00    -0.352 OA
BRANCH  35  36
HETATM   36  C   UNL     1      29.122  36.602  45.735  1.00  0.00     0.171 C 
HETATM   37  C   UNL     1      28.631  36.443  44.307  1.00  0.00     0.034 C 
ENDBRANCH  35  36
ENDBRANCH  32  35
ENDBRANCH   1  29
BRANCH   6  38
HETATM   38  N   UNL     1      29.045  40.148  51.477  1.00  0.00    -0.384 N 
HETATM   39  H   UNL     1      29.920  40.663  51.476  1.00  0.00     0.157 HD
HETATM   40  H   UNL     1      29.140  39.169  51.233  1.00  0.00     0.157 HD
ENDBRANCH   6  38
TORSDOF 10
ENDMDL
