MODEL 1
REMARK VINA RESULT:     -10.7      0.000      0.000
REMARK  7 active torsions:
REMARK  status: ('A' for Active; 'I' for Inactive)
REMARK    1  A    between atoms: C_4  and  N_5 
REMARK    2  A    between atoms: C_6  and  S_7 
REMARK    3  A    between atoms: S_7  and  C_8 
REMARK    4  A    between atoms: C_8  and  C_9 
REMARK       I    between atoms: C_9  and  N_10 
REMARK    5  A    between atoms: C_12  and  C_13 
REMARK    6  A    between atoms: C_13  and  N_14 
REMARK       I    between atoms: N_14  and  C_15 
REMARK       I    between atoms: C_15  and  N_16 
REMARK    7  A    between atoms: N_16  and  C_17 
ROOT
HETATM    1  C   UNL     1      25.604  44.703  49.569  1.00  0.00     0.229 C 
HETATM    2  N   UNL     1      26.240  43.656  50.258  1.00  0.00    -0.351 N 
HETATM    3  C   UNL     1      27.514  43.827  50.951  1.00  0.00     0.132 C 
HETATM    4  C   UNL     1      27.849  42.732  51.972  1.00  0.00     0.021 C 
HETATM    5  C   UNL     1      27.577  41.333  51.406  1.00  0.00     0.009 C 
HETATM    6  C   UNL     1      26.191  41.230  50.788  1.00  0.00     0.020 C 
HETATM    7  C   UNL     1      25.982  42.313  49.737  1.00  0.00     0.126 C 
HETATM    8  O   UNL     1      24.766  44.457  48.691  1.00  0.00    -0.273 OA
ENDROOT
BRANCH   1   9
HETATM    9  C   UNL     1      25.759  46.144  50.040  1.00  0.00     0.185 C 
BRANCH   9  10
HETATM   10  S   UNL     1      24.342  47.256  49.969  1.00  0.00    -0.082 SA
BRANCH  10  11
HETATM   11  C   UNL     1      24.923  48.653  49.126  1.00  0.00     0.173 A 
HETATM   12  N   UNL     1      24.134  49.478  48.326  1.00  0.00    -0.300 N 
HETATM   13  C   UNL     1      25.037  50.296  47.666  1.00  0.00     0.118 A 
HETATM   14  C   UNL     1      26.280  49.976  48.152  1.00  0.00     0.137 A 
HETATM   15  N   UNL     1      26.199  48.954  49.049  1.00  0.00    -0.235 NA
BRANCH  12  16
HETATM   16  C   UNL     1      22.714  49.551  48.174  1.00  0.00     0.042 A 
HETATM   17  C   UNL     1      22.009  50.728  48.461  1.00  0.00     0.037 A 
HETATM   18  C   UNL     1      20.617  50.791  48.306  1.00  0.00    -0.059 A 
HETATM   19  C   UNL     1      19.870  52.062  48.597  1.00  0.00     0.048 C 
HETATM   20  C   UNL     1      19.930  49.667  47.840  1.00  0.00     0.013 A 
HETATM   21  C   UNL     1      20.615  48.486  47.532  1.00  0.00    -0.059 A 
HETATM   22  C   UNL     1      22.008  48.439  47.690  1.00  0.00     0.037 A 
HETATM   23  C   UNL     1      19.852  47.292  47.035  1.00  0.00     0.048 C 
ENDBRANCH  12  16
ENDBRANCH  10  11
ENDBRANCH   9  10
ENDBRANCH   1   9
BRANCH   4  24
HETATM   24  C   UNL     1      27.109  43.012  53.294  1.00  0.00     0.130 C 
BRANCH  24  25
HETATM   25  N   UNL     1      27.884  43.782  54.251  1.00  0.00    -0.342 N 
HETATM   26  C   UNL     1      27.803  45.142  54.296  1.00  0.00     0.320 C 
HETATM   27  N   UNL     1      28.484  45.780  55.288  1.00  0.00    -0.309 N 
HETATM   28  O   UNL     1      27.109  45.802  53.526  1.00  0.00    -0.247 OA
HETATM   29  H   UNL     1      28.207  46.753  55.337  1.00  0.00     0.170 HD
HETATM   30  H   UNL     1      27.957  43.367  55.170  1.00  0.00     0.164 HD
BRANCH  27  31
HETATM   31  C   UNL     1      29.464  45.360  56.205  1.00  0.00     0.039 A 
HETATM   32  C   UNL     1      30.429  44.387  55.943  1.00  0.00     0.071 A 
HETATM   33  C   UNL     1      31.341  44.031  56.935  1.00  0.00     0.118 A 
HETATM   34  F   UNL     1      32.253  43.085  56.677  1.00  0.00    -0.206 F 
HETATM   35  C   UNL     1      31.328  44.641  58.182  1.00  0.00     0.042 A 
HETATM   36  C   UNL     1      30.396  45.640  58.440  1.00  0.00     0.005 A 
HETATM   37  C   UNL     1      29.476  46.003  57.452  1.00  0.00     0.030 A 
ENDBRANCH  27  31
ENDBRANCH  24  25
ENDBRANCH   4  24
TORSDOF 7
ENDMDL
MODEL 2
REMARK VINA RESULT:     -10.6      2.728      6.363
REMARK  7 active torsions:
REMARK  status: ('A' for Active; 'I' for Inactive)
REMARK    1  A    between atoms: C_4  and  N_5 
REMARK    2  A    between atoms: C_6  and  S_7 
REMARK    3  A    between atoms: S_7  and  C_8 
REMARK    4  A    between atoms: C_8  and  C_9 
REMARK       I    between atoms: C_9  and  N_10 
REMARK    5  A    between atoms: C_12  and  C_13 
REMARK    6  A    between atoms: C_13  and  N_14 
REMARK       I    between atoms: N_14  and  C_15 
REMARK       I    between atoms: C_15  and  N_16 
REMARK    7  A    between atoms: N_16  and  C_17 
ROOT
HETATM    1  C   UNL     1      27.221  45.694  54.818  1.00  0.00     0.229 C 
HETATM    2  N   UNL     1      28.320  44.823  54.904  1.00  0.00    -0.351 N 
HETATM    3  C   UNL     1      28.202  43.382  54.694  1.00  0.00     0.132 C 
HETATM    4  C   UNL     1      29.527  42.658  54.417  1.00  0.00     0.021 C 
HETATM    5  C   UNL     1      30.627  43.105  55.388  1.00  0.00     0.009 C 
HETATM    6  C   UNL     1      30.730  44.621  55.468  1.00  0.00     0.020 C 
HETATM    7  C   UNL     1      29.384  45.241  55.819  1.00  0.00     0.126 C 
HETATM    8  O   UNL     1      27.257  46.804  55.367  1.00  0.00    -0.273 OA
ENDROOT
BRANCH   1   9
HETATM    9  C   UNL     1      26.067  45.392  53.869  1.00  0.00     0.185 C 
BRANCH   9  10
HETATM   10  S   UNL     1      25.566  46.633  52.661  1.00  0.00    -0.082 SA
BRANCH  10  11
HETATM   11  C   UNL     1      24.782  45.732  51.408  1.00  0.00     0.173 A 
HETATM   12  N   UNL     1      24.400  46.260  50.176  1.00  0.00    -0.300 N 
HETATM   13  C   UNL     1      23.604  45.280  49.604  1.00  0.00     0.118 A 
HETATM   14  C   UNL     1      23.615  44.215  50.470  1.00  0.00     0.137 A 
HETATM   15  N   UNL     1      24.340  44.508  51.585  1.00  0.00    -0.235 NA
BRANCH  12  16
HETATM   16  C   UNL     1      24.725  47.504  49.552  1.00  0.00     0.042 A 
HETATM   17  C   UNL     1      23.739  48.303  48.957  1.00  0.00     0.037 A 
HETATM   18  C   UNL     1      24.067  49.524  48.351  1.00  0.00    -0.059 A 
HETATM   19  C   UNL     1      23.002  50.384  47.733  1.00  0.00     0.048 C 
HETATM   20  C   UNL     1      25.397  49.954  48.357  1.00  0.00     0.013 A 
HETATM   21  C   UNL     1      26.397  49.180  48.958  1.00  0.00    -0.059 A 
HETATM   22  C   UNL     1      26.052  47.962  49.563  1.00  0.00     0.037 A 
HETATM   23  C   UNL     1      27.817  49.665  48.948  1.00  0.00     0.048 C 
ENDBRANCH  12  16
ENDBRANCH  10  11
ENDBRANCH   9  10
ENDBRANCH   1   9
BRANCH   4  24
HETATM   24  C   UNL     1      29.911  42.829  52.935  1.00  0.00     0.130 C 
BRANCH  24  25
HETATM   25  N   UNL     1      29.217  41.922  52.039  1.00  0.00    -0.342 N 
HETATM   26  C   UNL     1      28.160  42.342  51.287  1.00  0.00     0.320 C 
HETATM   27  N   UNL     1      27.629  41.457  50.398  1.00  0.00    -0.309 N 
HETATM   28  O   UNL     1      27.709  43.484  51.337  1.00  0.00    -0.247 OA
HETATM   29  H   UNL     1      26.984  41.928  49.775  1.00  0.00     0.170 HD
HETATM   30  H   UNL     1      29.814  41.276  51.541  1.00  0.00     0.164 HD
BRANCH  27  31
HETATM   31  C   UNL     1      27.794  40.074  50.203  1.00  0.00     0.039 A 
HETATM   32  C   UNL     1      28.983  39.379  50.426  1.00  0.00     0.071 A 
HETATM   33  C   UNL     1      29.040  38.009  50.180  1.00  0.00     0.118 A 
HETATM   34  F   UNL     1      30.191  37.354  50.383  1.00  0.00    -0.206 F 
HETATM   35  C   UNL     1      27.929  37.306  49.733  1.00  0.00     0.042 A 
HETATM   36  C   UNL     1      26.728  37.982  49.546  1.00  0.00     0.005 A 
HETATM   37  C   UNL     1      26.661  39.357  49.790  1.00  0.00     0.030 A 
ENDBRANCH  27  31
ENDBRANCH  24  25
ENDBRANCH   4  24
TORSDOF 7
ENDMDL
MODEL 3
REMARK VINA RESULT:     -10.6      3.693     10.236
REMARK  7 active torsions:
REMARK  status: ('A' for Active; 'I' for Inactive)
REMARK    1  A    between atoms: C_4  and  N_5 
REMARK    2  A    between atoms: C_6  and  S_7 
REMARK    3  A    between atoms: S_7  and  C_8 
REMARK    4  A    between atoms: C_8  and  C_9 
REMARK       I    between atoms: C_9  and  N_10 
REMARK    5  A    between atoms: C_12  and  C_13 
REMARK    6  A    between atoms: C_13  and  N_14 
REMARK       I    between atoms: N_14  and  C_15 
REMARK       I    between atoms: C_15  and  N_16 
REMARK    7  A    between atoms: N_16  and  C_17 
ROOT
HETATM    1  C   UNL     1      25.820  43.495  51.197  1.00  0.00     0.229 C 
HETATM    2  N   UNL     1      24.740  43.583  50.303  1.00  0.00    -0.351 N 
HETATM    3  C   UNL     1      23.562  44.405  50.567  1.00  0.00     0.132 C 
HETATM    4  C   UNL     1      22.695  44.708  49.338  1.00  0.00     0.021 C 
HETATM    5  C   UNL     1      22.457  43.452  48.492  1.00  0.00     0.009 C 
HETATM    6  C   UNL     1      23.755  42.715  48.194  1.00  0.00     0.020 C 
HETATM    7  C   UNL     1      24.507  42.395  49.480  1.00  0.00     0.126 C 
HETATM    8  O   UNL     1      26.596  42.531  51.150  1.00  0.00    -0.273 OA
ENDROOT
BRANCH   1   9
HETATM    9  C   UNL     1      26.193  44.682  52.078  1.00  0.00     0.185 C 
BRANCH   9  10
HETATM   10  S   UNL     1      25.716  44.678  53.817  1.00  0.00    -0.082 SA
BRANCH  10  11
HETATM   11  C   UNL     1      26.427  46.116  54.468  1.00  0.00     0.173 A 
HETATM   12  N   UNL     1      27.665  46.166  55.106  1.00  0.00    -0.300 N 
HETATM   13  C   UNL     1      27.718  47.429  55.675  1.00  0.00     0.118 A 
HETATM   14  C   UNL     1      26.570  48.077  55.292  1.00  0.00     0.137 A 
HETATM   15  N   UNL     1      25.776  47.254  54.552  1.00  0.00    -0.235 NA
BRANCH  12  16
HETATM   16  C   UNL     1      28.714  45.198  55.188  1.00  0.00     0.042 A 
HETATM   17  C   UNL     1      28.948  44.284  54.151  1.00  0.00     0.037 A 
HETATM   18  C   UNL     1      29.981  43.340  54.240  1.00  0.00    -0.059 A 
HETATM   19  C   UNL     1      30.238  42.378  53.116  1.00  0.00     0.048 C 
HETATM   20  C   UNL     1      30.797  43.326  55.374  1.00  0.00     0.013 A 
HETATM   21  C   UNL     1      30.592  44.238  56.416  1.00  0.00    -0.059 A 
HETATM   22  C   UNL     1      29.556  45.179  56.311  1.00  0.00     0.037 A 
HETATM   23  C   UNL     1      31.482  44.200  57.623  1.00  0.00     0.048 C 
ENDBRANCH  12  16
ENDBRANCH  10  11
ENDBRANCH   9  10
ENDBRANCH   1   9
BRANCH   4  24
HETATM   24  C   UNL     1      23.313  45.874  48.543  1.00  0.00     0.130 C 
BRANCH  24  25
HETATM   25  N   UNL     1      22.688  47.159  48.800  1.00  0.00    -0.342 N 
HETATM   26  C   UNL     1      23.308  48.108  49.558  1.00  0.00     0.320 C 
HETATM   27  N   UNL     1      22.700  49.322  49.668  1.00  0.00    -0.309 N 
HETATM   28  O   UNL     1      24.401  47.935  50.092  1.00  0.00    -0.247 OA
HETATM   29  H   UNL     1      23.328  49.994  50.091  1.00  0.00     0.170 HD
HETATM   30  H   UNL     1      22.190  47.555  48.015  1.00  0.00     0.164 HD
BRANCH  27  31
HETATM   31  C   UNL     1      21.417  49.788  49.330  1.00  0.00     0.039 A 
HETATM   32  C   UNL     1      20.240  49.056  49.491  1.00  0.00     0.071 A 
HETATM   33  C   UNL     1      19.022  49.610  49.102  1.00  0.00     0.118 A 
HETATM   34  F   UNL     1      17.900  48.891  49.247  1.00  0.00    -0.206 F 
HETATM   35  C   UNL     1      18.944  50.891  48.572  1.00  0.00     0.042 A 
HETATM   36  C   UNL     1      20.106  51.644  48.444  1.00  0.00     0.005 A 
HETATM   37  C   UNL     1      21.334  51.097  48.831  1.00  0.00     0.030 A 
ENDBRANCH  27  31
ENDBRANCH  24  25
ENDBRANCH   4  24
TORSDOF 7
ENDMDL
MODEL 4
REMARK VINA RESULT:     -10.5      4.452     11.764
REMARK  7 active torsions:
REMARK  status: ('A' for Active; 'I' for Inactive)
REMARK    1  A    between atoms: C_4  and  N_5 
REMARK    2  A    between atoms: C_6  and  S_7 
REMARK    3  A    between atoms: S_7  and  C_8 
REMARK    4  A    between atoms: C_8  and  C_9 
REMARK       I    between atoms: C_9  and  N_10 
REMARK    5  A    between atoms: C_12  and  C_13 
REMARK    6  A    between atoms: C_13  and  N_14 
REMARK       I    between atoms: N_14  and  C_15 
REMARK       I    between atoms: C_15  and  N_16 
REMARK    7  A    between atoms: N_16  and  C_17 
ROOT
HETATM    1  C   UNL     1      25.335  47.765  49.933  1.00  0.00     0.229 C 
HETATM    2  N   UNL     1      24.423  48.556  49.214  1.00  0.00    -0.351 N 
HETATM    3  C   UNL     1      23.153  48.037  48.713  1.00  0.00     0.132 C 
HETATM    4  C   UNL     1      22.123  49.108  48.329  1.00  0.00     0.021 C 
HETATM    5  C   UNL     1      22.759  50.231  47.502  1.00  0.00     0.009 C 
HETATM    6  C   UNL     1      24.027  50.766  48.153  1.00  0.00     0.020 C 
HETATM    7  C   UNL     1      25.015  49.640  48.428  1.00  0.00     0.126 C 
HETATM    8  O   UNL     1      26.528  48.090  50.002  1.00  0.00    -0.273 OA
ENDROOT
BRANCH   1   9
HETATM    9  C   UNL     1      24.841  46.631  50.823  1.00  0.00     0.185 C 
BRANCH   9  10
HETATM   10  S   UNL     1      26.036  45.637  51.737  1.00  0.00    -0.082 SA
BRANCH  10  11
HETATM   11  C   UNL     1      26.356  46.550  53.173  1.00  0.00     0.173 A 
HETATM   12  N   UNL     1      27.204  46.136  54.200  1.00  0.00    -0.300 N 
HETATM   13  C   UNL     1      26.969  47.030  55.232  1.00  0.00     0.118 A 
HETATM   14  C   UNL     1      26.074  47.953  54.753  1.00  0.00     0.137 A 
HETATM   15  N   UNL     1      25.696  47.643  53.481  1.00  0.00    -0.235 NA
BRANCH  12  16
HETATM   16  C   UNL     1      28.147  45.063  54.257  1.00  0.00     0.042 A 
HETATM   17  C   UNL     1      28.112  44.009  53.333  1.00  0.00     0.037 A 
HETATM   18  C   UNL     1      29.044  42.964  53.396  1.00  0.00    -0.059 A 
HETATM   19  C   UNL     1      29.013  41.848  52.391  1.00  0.00     0.048 C 
HETATM   20  C   UNL     1      30.032  42.987  54.385  1.00  0.00     0.013 A 
HETATM   21  C   UNL     1      30.095  44.037  55.308  1.00  0.00    -0.059 A 
HETATM   22  C   UNL     1      29.158  45.078  55.231  1.00  0.00     0.037 A 
HETATM   23  C   UNL     1      31.165  44.036  56.361  1.00  0.00     0.048 C 
ENDBRANCH  12  16
ENDBRANCH  10  11
ENDBRANCH   9  10
ENDBRANCH   1   9
BRANCH   4  24
HETATM   24  C   UNL     1      21.402  49.611  49.594  1.00  0.00     0.130 C 
BRANCH  24  25
HETATM   25  N   UNL     1      19.983  49.855  49.405  1.00  0.00    -0.342 N 
HETATM   26  C   UNL     1      19.075  48.840  49.479  1.00  0.00     0.320 C 
HETATM   27  N   UNL     1      17.756  49.169  49.391  1.00  0.00    -0.309 N 
HETATM   28  O   UNL     1      19.388  47.668  49.673  1.00  0.00    -0.247 OA
HETATM   29  H   UNL     1      17.178  48.376  49.640  1.00  0.00     0.170 HD
HETATM   30  H   UNL     1      19.640  50.712  49.817  1.00  0.00     0.164 HD
BRANCH  27  31
HETATM   31  C   UNL     1      17.082  50.347  49.023  1.00  0.00     0.039 A 
HETATM   32  C   UNL     1      17.063  51.519  49.779  1.00  0.00     0.071 A 
HETATM   33  C   UNL     1      16.342  52.623  49.327  1.00  0.00     0.118 A 
HETATM   34  F   UNL     1      16.319  53.738  50.069  1.00  0.00    -0.206 F 
HETATM   35  C   UNL     1      15.652  52.594  48.122  1.00  0.00     0.042 A 
HETATM   36  C   UNL     1      15.698  51.444  47.341  1.00  0.00     0.005 A 
HETATM   37  C   UNL     1      16.417  50.331  47.787  1.00  0.00     0.030 A 
ENDBRANCH  27  31
ENDBRANCH  24  25
ENDBRANCH   4  24
TORSDOF 7
ENDMDL
MODEL 5
REMARK VINA RESULT:     -10.3      3.969     10.124
REMARK  7 active torsions:
REMARK  status: ('A' for Active; 'I' for Inactive)
REMARK    1  A    between atoms: C_4  and  N_5 
REMARK    2  A    between atoms: C_6  and  S_7 
REMARK    3  A    between atoms: S_7  and  C_8 
REMARK    4  A    between atoms: C_8  and  C_9 
REMARK       I    between atoms: C_9  and  N_10 
REMARK    5  A    between atoms: C_12  and  C_13 
REMARK    6  A    between atoms: C_13  and  N_14 
REMARK       I    between atoms: N_14  and  C_15 
REMARK       I    between atoms: C_15  and  N_16 
REMARK    7  A    between atoms: N_16  and  C_17 
ROOT
HETATM    1  C   UNL     1      24.508  43.320  50.388  1.00  0.00     0.229 C 
HETATM    2  N   UNL     1      23.531  43.732  49.467  1.00  0.00    -0.351 N 
HETATM    3  C   UNL     1      22.435  44.627  49.827  1.00  0.00     0.132 C 
HETATM    4  C   UNL     1      21.722  45.289  48.640  1.00  0.00     0.021 C 
HETATM    5  C   UNL     1      21.421  44.278  47.528  1.00  0.00     0.009 C 
HETATM    6  C   UNL     1      22.649  43.456  47.161  1.00  0.00     0.020 C 
HETATM    7  C   UNL     1      23.240  42.781  48.392  1.00  0.00     0.126 C 
HETATM    8  O   UNL     1      25.170  42.293  50.183  1.00  0.00    -0.273 OA
ENDROOT
BRANCH   1   9
HETATM    9  C   UNL     1      24.932  44.238  51.529  1.00  0.00     0.185 C 
BRANCH   9  10
HETATM   10  S   UNL     1      26.338  45.342  51.302  1.00  0.00    -0.082 SA
BRANCH  10  11
HETATM   11  C   UNL     1      26.398  46.280  52.756  1.00  0.00     0.173 A 
HETATM   12  N   UNL     1      27.066  45.895  53.917  1.00  0.00    -0.300 N 
HETATM   13  C   UNL     1      26.647  46.799  54.881  1.00  0.00     0.118 A 
HETATM   14  C   UNL     1      25.832  47.700  54.242  1.00  0.00     0.137 A 
HETATM   15  N   UNL     1      25.679  47.365  52.930  1.00  0.00    -0.235 NA
BRANCH  12  16
HETATM   16  C   UNL     1      28.002  44.840  54.151  1.00  0.00     0.042 A 
HETATM   17  C   UNL     1      29.084  45.004  55.026  1.00  0.00     0.037 A 
HETATM   18  C   UNL     1      29.995  43.962  55.251  1.00  0.00    -0.059 A 
HETATM   19  C   UNL     1      31.142  44.139  56.205  1.00  0.00     0.048 C 
HETATM   20  C   UNL     1      29.806  42.738  54.604  1.00  0.00     0.013 A 
HETATM   21  C   UNL     1      28.723  42.546  53.738  1.00  0.00    -0.059 A 
HETATM   22  C   UNL     1      27.819  43.597  53.525  1.00  0.00     0.037 A 
HETATM   23  C   UNL     1      28.544  41.221  53.054  1.00  0.00     0.048 C 
ENDBRANCH  12  16
ENDBRANCH  10  11
ENDBRANCH   9  10
ENDBRANCH   1   9
BRANCH   4  24
HETATM   24  C   UNL     1      22.538  46.504  48.159  1.00  0.00     0.130 C 
BRANCH  24  25
HETATM   25  N   UNL     1      22.024  47.780  48.623  1.00  0.00    -0.342 N 
HETATM   26  C   UNL     1      22.771  48.596  49.420  1.00  0.00     0.320 C 
HETATM   27  N   UNL     1      22.255  49.819  49.728  1.00  0.00    -0.309 N 
HETATM   28  O   UNL     1      23.895  48.303  49.820  1.00  0.00    -0.247 OA
HETATM   29  H   UNL     1      22.962  50.401  50.161  1.00  0.00     0.170 HD
HETATM   30  H   UNL     1      21.482  48.294  47.942  1.00  0.00     0.164 HD
BRANCH  27  31
HETATM   31  C   UNL     1      20.979  50.390  49.575  1.00  0.00     0.039 A 
HETATM   32  C   UNL     1      20.702  51.512  48.795  1.00  0.00     0.071 A 
HETATM   33  C   UNL     1      19.400  52.007  48.732  1.00  0.00     0.118 A 
HETATM   34  F   UNL     1      19.149  53.095  47.991  1.00  0.00    -0.206 F 
HETATM   35  C   UNL     1      18.358  51.395  49.415  1.00  0.00     0.042 A 
HETATM   36  C   UNL     1      18.617  50.251  50.163  1.00  0.00     0.005 A 
HETATM   37  C   UNL     1      19.919  49.748  50.234  1.00  0.00     0.030 A 
ENDBRANCH  27  31
ENDBRANCH  24  25
ENDBRANCH   4  24
TORSDOF 7
ENDMDL
MODEL 6
REMARK VINA RESULT:     -10.3      3.179      6.585
REMARK  7 active torsions:
REMARK  status: ('A' for Active; 'I' for Inactive)
REMARK    1  A    between atoms: C_4  and  N_5 
REMARK    2  A    between atoms: C_6  and  S_7 
REMARK    3  A    between atoms: S_7  and  C_8 
REMARK    4  A    between atoms: C_8  and  C_9 
REMARK       I    between atoms: C_9  and  N_10 
REMARK    5  A    between atoms: C_12  and  C_13 
REMARK    6  A    between atoms: C_13  and  N_14 
REMARK       I    between atoms: N_14  and  C_15 
REMARK       I    between atoms: C_15  and  N_16 
REMARK    7  A    between atoms: N_16  and  C_17 
ROOT
HETATM    1  C   UNL     1      27.303  45.931  54.948  1.00  0.00     0.229 C 
HETATM    2  N   UNL     1      28.381  45.033  55.018  1.00  0.00    -0.351 N 
HETATM    3  C   UNL     1      28.223  43.594  54.819  1.00  0.00     0.132 C 
HETATM    4  C   UNL     1      29.523  42.835  54.521  1.00  0.00     0.021 C 
HETATM    5  C   UNL     1      30.653  43.260  55.467  1.00  0.00     0.009 C 
HETATM    6  C   UNL     1      30.796  44.773  55.535  1.00  0.00     0.020 C 
HETATM    7  C   UNL     1      29.473  45.429  55.908  1.00  0.00     0.126 C 
HETATM    8  O   UNL     1      27.378  47.043  55.488  1.00  0.00    -0.273 OA
ENDROOT
BRANCH   1   9
HETATM    9  C   UNL     1      26.123  45.653  54.024  1.00  0.00     0.185 C 
BRANCH   9  10
HETATM   10  S   UNL     1      25.752  46.806  52.689  1.00  0.00    -0.082 SA
BRANCH  10  11
HETATM   11  C   UNL     1      24.935  45.850  51.499  1.00  0.00     0.173 A 
HETATM   12  N   UNL     1      24.494  46.330  50.267  1.00  0.00    -0.300 N 
HETATM   13  C   UNL     1      23.693  45.318  49.761  1.00  0.00     0.118 A 
HETATM   14  C   UNL     1      23.759  44.282  50.660  1.00  0.00     0.137 A 
HETATM   15  N   UNL     1      24.524  44.625  51.734  1.00  0.00    -0.235 NA
BRANCH  12  16
HETATM   16  C   UNL     1      24.770  47.558  49.589  1.00  0.00     0.042 A 
HETATM   17  C   UNL     1      23.750  48.300  48.977  1.00  0.00     0.037 A 
HETATM   18  C   UNL     1      24.030  49.505  48.318  1.00  0.00    -0.059 A 
HETATM   19  C   UNL     1      22.929  50.304  47.681  1.00  0.00     0.048 C 
HETATM   20  C   UNL     1      25.345  49.978  48.290  1.00  0.00     0.013 A 
HETATM   21  C   UNL     1      26.377  49.262  48.907  1.00  0.00    -0.059 A 
HETATM   22  C   UNL     1      26.081  48.060  49.565  1.00  0.00     0.037 A 
HETATM   23  C   UNL     1      27.780  49.793  48.860  1.00  0.00     0.048 C 
ENDBRANCH  12  16
ENDBRANCH  10  11
ENDBRANCH   9  10
ENDBRANCH   1   9
BRANCH   4  24
HETATM   24  C   UNL     1      29.881  42.987  53.031  1.00  0.00     0.130 C 
BRANCH  24  25
HETATM   25  N   UNL     1      29.020  42.231  52.138  1.00  0.00    -0.342 N 
HETATM   26  C   UNL     1      28.578  40.985  52.470  1.00  0.00     0.320 C 
HETATM   27  N   UNL     1      27.694  40.387  51.624  1.00  0.00    -0.309 N 
HETATM   28  O   UNL     1      28.895  40.411  53.509  1.00  0.00    -0.247 OA
HETATM   29  H   UNL     1      27.297  39.560  52.055  1.00  0.00     0.170 HD
HETATM   30  H   UNL     1      28.317  42.778  51.662  1.00  0.00     0.164 HD
BRANCH  27  31
HETATM   31  C   UNL     1      27.260  40.683  50.319  1.00  0.00     0.039 A 
HETATM   32  C   UNL     1      26.003  41.195  49.999  1.00  0.00     0.071 A 
HETATM   33  C   UNL     1      25.671  41.432  48.667  1.00  0.00     0.118 A 
HETATM   34  F   UNL     1      24.455  41.910  48.370  1.00  0.00    -0.206 F 
HETATM   35  C   UNL     1      26.574  41.189  47.640  1.00  0.00     0.042 A 
HETATM   36  C   UNL     1      27.844  40.716  47.952  1.00  0.00     0.005 A 
HETATM   37  C   UNL     1      28.186  40.474  49.286  1.00  0.00     0.030 A 
ENDBRANCH  27  31
ENDBRANCH  24  25
ENDBRANCH   4  24
TORSDOF 7
ENDMDL
MODEL 7
REMARK VINA RESULT:      -9.9      2.981      8.857
REMARK  7 active torsions:
REMARK  status: ('A' for Active; 'I' for Inactive)
REMARK    1  A    between atoms: C_4  and  N_5 
REMARK    2  A    between atoms: C_6  and  S_7 
REMARK    3  A    between atoms: S_7  and  C_8 
REMARK    4  A    between atoms: C_8  and  C_9 
REMARK       I    between atoms: C_9  and  N_10 
REMARK    5  A    between atoms: C_12  and  C_13 
REMARK    6  A    between atoms: C_13  and  N_14 
REMARK       I    between atoms: N_14  and  C_15 
REMARK       I    between atoms: C_15  and  N_16 
REMARK    7  A    between atoms: N_16  and  C_17 
ROOT
HETATM    1  C   UNL     1      26.251  43.006  50.200  1.00  0.00     0.229 C 
HETATM    2  N   UNL     1      25.284  42.383  49.394  1.00  0.00    -0.351 N 
HETATM    3  C   UNL     1      23.850  42.590  49.579  1.00  0.00     0.132 C 
HETATM    4  C   UNL     1      22.977  42.179  48.386  1.00  0.00     0.021 C 
HETATM    5  C   UNL     1      23.388  40.810  47.831  1.00  0.00     0.009 C 
HETATM    6  C   UNL     1      24.888  40.725  47.587  1.00  0.00     0.020 C 
HETATM    7  C   UNL     1      25.666  41.079  48.847  1.00  0.00     0.126 C 
HETATM    8  O   UNL     1      27.393  42.534  50.288  1.00  0.00    -0.273 OA
ENDROOT
BRANCH   1   9
HETATM    9  C   UNL     1      25.990  44.386  50.793  1.00  0.00     0.185 C 
BRANCH   9  10
HETATM   10  S   UNL     1      25.234  44.521  52.424  1.00  0.00    -0.082 SA
BRANCH  10  11
HETATM   11  C   UNL     1      25.993  45.900  53.145  1.00  0.00     0.173 A 
HETATM   12  N   UNL     1      27.121  45.844  53.961  1.00  0.00    -0.300 N 
HETATM   13  C   UNL     1      27.226  47.115  54.505  1.00  0.00     0.118 A 
HETATM   14  C   UNL     1      26.225  47.865  53.939  1.00  0.00     0.137 A 
HETATM   15  N   UNL     1      25.464  47.102  53.106  1.00  0.00    -0.235 NA
BRANCH  12  16
HETATM   16  C   UNL     1      28.034  44.776  54.221  1.00  0.00     0.042 A 
HETATM   17  C   UNL     1      29.152  44.954  55.049  1.00  0.00     0.037 A 
HETATM   18  C   UNL     1      30.040  43.899  55.300  1.00  0.00    -0.059 A 
HETATM   19  C   UNL     1      31.224  44.092  56.204  1.00  0.00     0.048 C 
HETATM   20  C   UNL     1      29.793  42.647  54.729  1.00  0.00     0.013 A 
HETATM   21  C   UNL     1      28.675  42.442  53.911  1.00  0.00    -0.059 A 
HETATM   22  C   UNL     1      27.794  43.507  53.671  1.00  0.00     0.037 A 
HETATM   23  C   UNL     1      28.435  41.088  53.309  1.00  0.00     0.048 C 
ENDBRANCH  12  16
ENDBRANCH  10  11
ENDBRANCH   9  10
ENDBRANCH   1   9
BRANCH   4  24
HETATM   24  C   UNL     1      22.988  43.298  47.326  1.00  0.00     0.130 C 
BRANCH  24  25
HETATM   25  N   UNL     1      23.019  44.638  47.885  1.00  0.00    -0.342 N 
HETATM   26  C   UNL     1      21.927  45.173  48.501  1.00  0.00     0.320 C 
HETATM   27  N   UNL     1      22.071  46.394  49.086  1.00  0.00    -0.309 N 
HETATM   28  O   UNL     1      20.851  44.587  48.596  1.00  0.00    -0.247 OA
HETATM   29  H   UNL     1      21.265  46.607  49.662  1.00  0.00     0.170 HD
HETATM   30  H   UNL     1      23.884  44.886  48.346  1.00  0.00     0.164 HD
BRANCH  27  31
HETATM   31  C   UNL     1      23.078  47.374  49.031  1.00  0.00     0.039 A 
HETATM   32  C   UNL     1      24.309  47.283  49.680  1.00  0.00     0.071 A 
HETATM   33  C   UNL     1      25.227  48.326  49.573  1.00  0.00     0.118 A 
HETATM   34  F   UNL     1      26.401  48.234  50.213  1.00  0.00    -0.206 F 
HETATM   35  C   UNL     1      24.955  49.456  48.813  1.00  0.00     0.042 A 
HETATM   36  C   UNL     1      23.747  49.539  48.129  1.00  0.00     0.005 A 
HETATM   37  C   UNL     1      22.819  48.498  48.231  1.00  0.00     0.030 A 
ENDBRANCH  27  31
ENDBRANCH  24  25
ENDBRANCH   4  24
TORSDOF 7
ENDMDL
MODEL 8
REMARK VINA RESULT:      -9.9      2.748      4.370
REMARK  7 active torsions:
REMARK  status: ('A' for Active; 'I' for Inactive)
REMARK    1  A    between atoms: C_4  and  N_5 
REMARK    2  A    between atoms: C_6  and  S_7 
REMARK    3  A    between atoms: S_7  and  C_8 
REMARK    4  A    between atoms: C_8  and  C_9 
REMARK       I    between atoms: C_9  and  N_10 
REMARK    5  A    between atoms: C_12  and  C_13 
REMARK    6  A    between atoms: C_13  and  N_14 
REMARK       I    between atoms: N_14  and  C_15 
REMARK       I    between atoms: C_15  and  N_16 
REMARK    7  A    between atoms: N_16  and  C_17 
ROOT
HETATM    1  C   UNL     1      23.915  41.695  47.984  1.00  0.00     0.229 C 
HETATM    2  N   UNL     1      25.228  41.357  48.352  1.00  0.00    -0.351 N 
HETATM    3  C   UNL     1      26.156  42.321  48.938  1.00  0.00     0.132 C 
HETATM    4  C   UNL     1      27.370  41.703  49.646  1.00  0.00     0.021 C 
HETATM    5  C   UNL     1      28.004  40.587  48.807  1.00  0.00     0.009 C 
HETATM    6  C   UNL     1      26.968  39.585  48.320  1.00  0.00     0.020 C 
HETATM    7  C   UNL     1      25.844  40.285  47.568  1.00  0.00     0.126 C 
HETATM    8  O   UNL     1      23.298  41.007  47.160  1.00  0.00    -0.273 OA
ENDROOT
BRANCH   1   9
HETATM    9  C   UNL     1      23.149  42.766  48.752  1.00  0.00     0.185 C 
BRANCH   9  10
HETATM   10  S   UNL     1      23.677  44.486  48.640  1.00  0.00    -0.082 SA
BRANCH  10  11
HETATM   11  C   UNL     1      24.141  44.907  50.254  1.00  0.00     0.173 A 
HETATM   12  N   UNL     1      24.744  46.111  50.614  1.00  0.00    -0.300 N 
HETATM   13  C   UNL     1      25.161  45.919  51.921  1.00  0.00     0.118 A 
HETATM   14  C   UNL     1      24.727  44.670  52.290  1.00  0.00     0.137 A 
HETATM   15  N   UNL     1      24.104  44.050  51.249  1.00  0.00    -0.235 NA
BRANCH  12  16
HETATM   16  C   UNL     1      24.918  47.325  49.879  1.00  0.00     0.042 A 
HETATM   17  C   UNL     1      23.828  47.995  49.305  1.00  0.00     0.037 A 
HETATM   18  C   UNL     1      24.009  49.186  48.589  1.00  0.00    -0.059 A 
HETATM   19  C   UNL     1      22.834  49.909  47.994  1.00  0.00     0.048 C 
HETATM   20  C   UNL     1      25.295  49.720  48.464  1.00  0.00     0.013 A 
HETATM   21  C   UNL     1      26.396  49.076  49.041  1.00  0.00    -0.059 A 
HETATM   22  C   UNL     1      26.199  47.886  49.757  1.00  0.00     0.037 A 
HETATM   23  C   UNL     1      27.766  49.670  48.889  1.00  0.00     0.048 C 
ENDBRANCH  12  16
ENDBRANCH  10  11
ENDBRANCH   9  10
ENDBRANCH   1   9
BRANCH   4  24
HETATM   24  C   UNL     1      26.967  41.251  51.063  1.00  0.00     0.130 C 
BRANCH  24  25
HETATM   25  N   UNL     1      27.738  41.878  52.122  1.00  0.00    -0.342 N 
HETATM   26  C   UNL     1      28.837  41.270  52.652  1.00  0.00     0.320 C 
HETATM   27  N   UNL     1      29.562  41.969  53.569  1.00  0.00    -0.309 N 
HETATM   28  O   UNL     1      29.227  40.158  52.302  1.00  0.00    -0.247 OA
HETATM   29  H   UNL     1      30.443  41.504  53.752  1.00  0.00     0.170 HD
HETATM   30  H   UNL     1      27.856  42.878  52.028  1.00  0.00     0.164 HD
BRANCH  27  31
HETATM   31  C   UNL     1      29.318  43.155  54.285  1.00  0.00     0.039 A 
HETATM   32  C   UNL     1      28.142  43.900  54.207  1.00  0.00     0.071 A 
HETATM   33  C   UNL     1      28.015  45.075  54.946  1.00  0.00     0.118 A 
HETATM   34  F   UNL     1      26.887  45.790  54.851  1.00  0.00    -0.206 F 
HETATM   35  C   UNL     1      29.031  45.516  55.783  1.00  0.00     0.042 A 
HETATM   36  C   UNL     1      30.192  44.760  55.900  1.00  0.00     0.005 A 
HETATM   37  C   UNL     1      30.329  43.580  55.161  1.00  0.00     0.030 A 
ENDBRANCH  27  31
ENDBRANCH  24  25
ENDBRANCH   4  24
TORSDOF 7
ENDMDL
MODEL 9
REMARK VINA RESULT:      -9.9      3.836     10.001
REMARK  7 active torsions:
REMARK  status: ('A' for Active; 'I' for Inactive)
REMARK    1  A    between atoms: C_4  and  N_5 
REMARK    2  A    between atoms: C_6  and  S_7 
REMARK    3  A    between atoms: S_7  and  C_8 
REMARK    4  A    between atoms: C_8  and  C_9 
REMARK       I    between atoms: C_9  and  N_10 
REMARK    5  A    between atoms: C_12  and  C_13 
REMARK    6  A    between atoms: C_13  and  N_14 
REMARK       I    between atoms: N_14  and  C_15 
REMARK       I    between atoms: C_15  and  N_16 
REMARK    7  A    between atoms: N_16  and  C_17 
ROOT
HETATM    1  C   UNL     1      24.393  42.445  49.548  1.00  0.00     0.229 C 
HETATM    2  N   UNL     1      23.389  43.208  48.928  1.00  0.00    -0.351 N 
HETATM    3  C   UNL     1      22.542  44.143  49.664  1.00  0.00     0.132 C 
HETATM    4  C   UNL     1      21.805  45.171  48.795  1.00  0.00     0.021 C 
HETATM    5  C   UNL     1      21.165  44.514  47.566  1.00  0.00     0.009 C 
HETATM    6  C   UNL     1      22.153  43.631  46.816  1.00  0.00     0.020 C 
HETATM    7  C   UNL     1      22.775  42.599  47.746  1.00  0.00     0.126 C 
HETATM    8  O   UNL     1      24.815  41.411  49.012  1.00  0.00    -0.273 OA
ENDROOT
BRANCH   1   9
HETATM    9  C   UNL     1      25.138  42.987  50.762  1.00  0.00     0.185 C 
BRANCH   9  10
HETATM   10  S   UNL     1      26.868  43.466  50.599  1.00  0.00    -0.082 SA
BRANCH  10  11
HETATM   11  C   UNL     1      27.718  42.409  51.674  1.00  0.00     0.173 A 
HETATM   12  N   UNL     1      28.303  42.807  52.875  1.00  0.00    -0.300 N 
HETATM   13  C   UNL     1      29.070  41.723  53.270  1.00  0.00     0.118 A 
HETATM   14  C   UNL     1      28.848  40.731  52.347  1.00  0.00     0.137 A 
HETATM   15  N   UNL     1      28.016  41.168  51.361  1.00  0.00    -0.235 NA
BRANCH  12  16
HETATM   16  C   UNL     1      28.179  44.023  53.616  1.00  0.00     0.042 A 
HETATM   17  C   UNL     1      27.131  44.922  53.376  1.00  0.00     0.037 A 
HETATM   18  C   UNL     1      27.017  46.111  54.110  1.00  0.00    -0.059 A 
HETATM   19  C   UNL     1      25.880  47.061  53.860  1.00  0.00     0.048 C 
HETATM   20  C   UNL     1      27.955  46.391  55.108  1.00  0.00     0.013 A 
HETATM   21  C   UNL     1      29.002  45.500  55.375  1.00  0.00    -0.059 A 
HETATM   22  C   UNL     1      29.101  44.314  54.634  1.00  0.00     0.037 A 
HETATM   23  C   UNL     1      29.996  45.826  56.451  1.00  0.00     0.048 C 
ENDBRANCH  12  16
ENDBRANCH  10  11
ENDBRANCH   9  10
ENDBRANCH   1   9
BRANCH   4  24
HETATM   24  C   UNL     1      22.757  46.330  48.444  1.00  0.00     0.130 C 
BRANCH  24  25
HETATM   25  N   UNL     1      22.246  47.641  48.803  1.00  0.00    -0.342 N 
HETATM   26  C   UNL     1      22.995  48.517  49.532  1.00  0.00     0.320 C 
HETATM   27  N   UNL     1      22.482  49.762  49.739  1.00  0.00    -0.309 N 
HETATM   28  O   UNL     1      24.118  48.254  49.955  1.00  0.00    -0.247 OA
HETATM   29  H   UNL     1      23.190  50.375  50.125  1.00  0.00     0.170 HD
HETATM   30  H   UNL     1      21.706  48.100  48.082  1.00  0.00     0.164 HD
BRANCH  27  31
HETATM   31  C   UNL     1      21.208  50.322  49.539  1.00  0.00     0.039 A 
HETATM   32  C   UNL     1      20.046  49.901  50.187  1.00  0.00     0.071 A 
HETATM   33  C   UNL     1      18.830  50.515  49.896  1.00  0.00     0.118 A 
HETATM   34  F   UNL     1      17.719  50.092  50.513  1.00  0.00    -0.206 F 
HETATM   35  C   UNL     1      18.745  51.559  48.984  1.00  0.00     0.042 A 
HETATM   36  C   UNL     1      19.903  52.013  48.363  1.00  0.00     0.005 A 
HETATM   37  C   UNL     1      21.128  51.403  48.647  1.00  0.00     0.030 A 
ENDBRANCH  27  31
ENDBRANCH  24  25
ENDBRANCH   4  24
TORSDOF 7
ENDMDL
MODEL 10
REMARK VINA RESULT:      -9.8      4.858     11.924
REMARK  7 active torsions:
REMARK  status: ('A' for Active; 'I' for Inactive)
REMARK    1  A    between atoms: C_4  and  N_5 
REMARK    2  A    between atoms: C_6  and  S_7 
REMARK    3  A    between atoms: S_7  and  C_8 
REMARK    4  A    between atoms: C_8  and  C_9 
REMARK       I    between atoms: C_9  and  N_10 
REMARK    5  A    between atoms: C_12  and  C_13 
REMARK    6  A    between atoms: C_13  and  N_14 
REMARK       I    between atoms: N_14  and  C_15 
REMARK       I    between atoms: C_15  and  N_16 
REMARK    7  A    between atoms: N_16  and  C_17 
ROOT
HETATM    1  C   UNL     1      24.851  47.790  49.690  1.00  0.00     0.229 C 
HETATM    2  N   UNL     1      23.836  48.546  49.080  1.00  0.00    -0.351 N 
HETATM    3  C   UNL     1      22.821  47.951  48.214  1.00  0.00     0.132 C 
HETATM    4  C   UNL     1      21.580  48.822  47.978  1.00  0.00     0.021 C 
HETATM    5  C   UNL     1      21.961  50.273  47.662  1.00  0.00     0.009 C 
HETATM    6  C   UNL     1      22.953  50.832  48.672  1.00  0.00     0.020 C 
HETATM    7  C   UNL     1      24.181  49.938  48.782  1.00  0.00     0.126 C 
HETATM    8  O   UNL     1      25.892  48.337  50.079  1.00  0.00    -0.273 OA
ENDROOT
BRANCH   1   9
HETATM    9  C   UNL     1      24.602  46.341  50.089  1.00  0.00     0.185 C 
BRANCH   9  10
HETATM   10  S   UNL     1      24.972  45.809  51.771  1.00  0.00    -0.082 SA
BRANCH  10  11
HETATM   11  C   UNL     1      25.540  44.183  51.602  1.00  0.00     0.173 A 
HETATM   12  N   UNL     1      26.685  43.677  52.215  1.00  0.00    -0.300 N 
HETATM   13  C   UNL     1      26.892  42.445  51.615  1.00  0.00     0.118 A 
HETATM   14  C   UNL     1      25.843  42.251  50.752  1.00  0.00     0.137 A 
HETATM   15  N   UNL     1      25.017  43.334  50.746  1.00  0.00    -0.235 NA
BRANCH  12  16
HETATM   16  C   UNL     1      27.507  44.222  53.250  1.00  0.00     0.042 A 
HETATM   17  C   UNL     1      27.231  45.471  53.822  1.00  0.00     0.037 A 
HETATM   18  C   UNL     1      28.042  45.995  54.839  1.00  0.00    -0.059 A 
HETATM   19  C   UNL     1      27.728  47.326  55.461  1.00  0.00     0.048 C 
HETATM   20  C   UNL     1      29.131  45.248  55.297  1.00  0.00     0.013 A 
HETATM   21  C   UNL     1      29.417  43.992  54.751  1.00  0.00    -0.059 A 
HETATM   22  C   UNL     1      28.595  43.479  53.736  1.00  0.00     0.037 A 
HETATM   23  C   UNL     1      30.594  43.211  55.260  1.00  0.00     0.048 C 
ENDBRANCH  12  16
ENDBRANCH  10  11
ENDBRANCH   9  10
ENDBRANCH   1   9
BRANCH   4  24
HETATM   24  C   UNL     1      20.618  48.688  49.174  1.00  0.00     0.130 C 
BRANCH  24  25
HETATM   25  N   UNL     1      19.283  49.198  48.915  1.00  0.00    -0.342 N 
HETATM   26  C   UNL     1      18.550  49.791  49.900  1.00  0.00     0.320 C 
HETATM   27  N   UNL     1      17.350  50.332  49.552  1.00  0.00    -0.309 N 
HETATM   28  O   UNL     1      18.944  49.905  51.059  1.00  0.00    -0.247 OA
HETATM   29  H   UNL     1      16.985  50.898  50.308  1.00  0.00     0.170 HD
HETATM   30  H   UNL     1      19.166  49.651  48.020  1.00  0.00     0.164 HD
BRANCH  27  31
HETATM   31  C   UNL     1      16.555  50.243  48.395  1.00  0.00     0.039 A 
HETATM   32  C   UNL     1      16.314  51.299  47.516  1.00  0.00     0.071 A 
HETATM   33  C   UNL     1      15.490  51.104  46.408  1.00  0.00     0.118 A 
HETATM   34  F   UNL     1      15.254  52.130  45.580  1.00  0.00    -0.206 F 
HETATM   35  C   UNL     1      14.915  49.869  46.142  1.00  0.00     0.042 A 
HETATM   36  C   UNL     1      15.181  48.799  46.989  1.00  0.00     0.005 A 
HETATM   37  C   UNL     1      16.005  48.985  48.104  1.00  0.00     0.030 A 
ENDBRANCH  27  31
ENDBRANCH  24  25
ENDBRANCH   4  24
TORSDOF 7
ENDMDL
