MODEL 1
REMARK VINA RESULT:      -9.8      0.000      0.000
REMARK  3 active torsions:
REMARK  status: ('A' for Active; 'I' for Inactive)
REMARK    1  A    between atoms: N_4  and  C_5 
REMARK    2  A    between atoms: C_16  and  C_17 
REMARK       I    between atoms: C_17  and  N_18 
REMARK    3  A    between atoms: N_18  and  C_19 
ROOT
HETATM    1  C   UNL     1      23.729  42.632  50.147  1.00  0.00     0.073 C 
HETATM    2  C   UNL     1      24.765  43.511  50.743  1.00  0.00     0.069 A 
HETATM    3  N   UNL     1      25.675  43.011  51.592  1.00  0.00    -0.170 NA
HETATM    4  N   UNL     1      26.493  44.060  51.909  1.00  0.00    -0.216 N 
HETATM    5  C   UNL     1      25.997  45.234  51.365  1.00  0.00     0.145 A 
HETATM    6  C   UNL     1      24.921  44.898  50.577  1.00  0.00     0.087 A 
HETATM    7  N   UNL     1      26.383  46.519  51.559  1.00  0.00    -0.349 N 
HETATM    8  C   UNL     1      25.649  47.520  50.943  1.00  0.00     0.111 A 
HETATM    9  C   UNL     1      24.600  47.314  50.113  1.00  0.00     0.098 A 
HETATM   10  C   UNL     1      24.172  45.897  49.843  1.00  0.00     0.205 A 
HETATM   11  O   UNL     1      23.254  45.626  49.075  1.00  0.00    -0.286 OA
HETATM   12  H   UNL     1      26.998  46.815  52.316  1.00  0.00     0.167 HD
ENDROOT
BRANCH   9  13
HETATM   13  C   UNL     1      23.907  48.513  49.545  1.00  0.00     0.261 C 
HETATM   14  N   UNL     1      22.531  48.429  49.535  1.00  0.00    -0.323 N 
HETATM   15  H   UNL     1      22.119  47.561  49.880  1.00  0.00     0.169 HD
HETATM   16  O   UNL     1      24.571  49.461  49.134  1.00  0.00    -0.267 OA
BRANCH  14  17
HETATM   17  C   UNL     1      21.604  49.405  49.112  1.00  0.00     0.035 A 
HETATM   18  C   UNL     1      21.165  50.466  49.907  1.00  0.00     0.029 A 
HETATM   19  C   UNL     1      20.229  51.380  49.412  1.00  0.00     0.002 A 
HETATM   20  C   UNL     1      19.728  51.244  48.119  1.00  0.00     0.000 A 
HETATM   21  C   UNL     1      20.161  50.192  47.319  1.00  0.00     0.002 A 
HETATM   22  C   UNL     1      21.092  49.276  47.814  1.00  0.00     0.029 A 
ENDBRANCH  14  17
ENDBRANCH   9  13
BRANCH   4  23
HETATM   23  C   UNL     1      27.666  43.832  52.686  1.00  0.00     0.060 A 
HETATM   24  C   UNL     1      28.750  43.096  52.187  1.00  0.00     0.034 A 
HETATM   25  C   UNL     1      29.883  42.893  52.982  1.00  0.00     0.044 A 
HETATM   26  C   UNL     1      29.928  43.414  54.270  1.00  0.00     0.116 A 
HETATM   27  F   UNL     1      31.016  43.214  55.024  1.00  0.00    -0.206 F 
HETATM   28  C   UNL     1      28.854  44.125  54.789  1.00  0.00     0.044 A 
HETATM   29  C   UNL     1      27.718  44.327  54.003  1.00  0.00     0.034 A 
ENDBRANCH   4  23
TORSDOF 3
ENDMDL
MODEL 2
REMARK VINA RESULT:      -9.6      3.727      8.995
REMARK  3 active torsions:
REMARK  status: ('A' for Active; 'I' for Inactive)
REMARK    1  A    between atoms: N_4  and  C_5 
REMARK    2  A    between atoms: C_16  and  C_17 
REMARK       I    between atoms: C_17  and  N_18 
REMARK    3  A    between atoms: N_18  and  C_19 
ROOT
HETATM    1  C   UNL     1      25.518  43.280  49.153  1.00  0.00     0.073 C 
HETATM    2  C   UNL     1      25.454  44.640  49.742  1.00  0.00     0.069 A 
HETATM    3  N   UNL     1      25.053  45.683  49.000  1.00  0.00    -0.170 NA
HETATM    4  N   UNL     1      25.064  46.758  49.847  1.00  0.00    -0.216 N 
HETATM    5  C   UNL     1      25.609  46.397  51.069  1.00  0.00     0.145 A 
HETATM    6  C   UNL     1      25.820  45.038  51.039  1.00  0.00     0.087 A 
HETATM    7  N   UNL     1      25.963  47.165  52.128  1.00  0.00    -0.349 N 
HETATM    8  C   UNL     1      26.571  46.544  53.208  1.00  0.00     0.111 A 
HETATM    9  C   UNL     1      26.792  45.214  53.315  1.00  0.00     0.098 A 
HETATM   10  C   UNL     1      26.372  44.328  52.174  1.00  0.00     0.205 A 
HETATM   11  O   UNL     1      26.506  43.108  52.208  1.00  0.00    -0.286 OA
HETATM   12  H   UNL     1      26.054  48.179  52.085  1.00  0.00     0.167 HD
ENDROOT
BRANCH   9  13
HETATM   13  C   UNL     1      27.477  44.711  54.547  1.00  0.00     0.261 C 
HETATM   14  N   UNL     1      28.771  45.161  54.708  1.00  0.00    -0.323 N 
HETATM   15  H   UNL     1      29.147  45.758  53.971  1.00  0.00     0.169 HD
HETATM   16  O   UNL     1      26.880  43.957  55.311  1.00  0.00    -0.267 OA
BRANCH  14  17
HETATM   17  C   UNL     1      29.652  44.906  55.780  1.00  0.00     0.035 A 
HETATM   18  C   UNL     1      29.710  45.672  56.946  1.00  0.00     0.029 A 
HETATM   19  C   UNL     1      30.628  45.358  57.954  1.00  0.00     0.002 A 
HETATM   20  C   UNL     1      31.492  44.275  57.806  1.00  0.00     0.000 A 
HETATM   21  C   UNL     1      31.440  43.505  56.649  1.00  0.00     0.002 A 
HETATM   22  C   UNL     1      30.527  43.821  55.640  1.00  0.00     0.029 A 
ENDBRANCH  14  17
ENDBRANCH   9  13
BRANCH   4  23
HETATM   23  C   UNL     1      24.544  48.010  49.407  1.00  0.00     0.060 A 
HETATM   24  C   UNL     1      23.172  48.295  49.450  1.00  0.00     0.034 A 
HETATM   25  C   UNL     1      22.701  49.535  49.007  1.00  0.00     0.044 A 
HETATM   26  C   UNL     1      23.595  50.480  48.515  1.00  0.00     0.116 A 
HETATM   27  F   UNL     1      23.135  51.664  48.093  1.00  0.00    -0.206 F 
HETATM   28  C   UNL     1      24.954  50.205  48.443  1.00  0.00     0.044 A 
HETATM   29  C   UNL     1      25.430  48.967  48.879  1.00  0.00     0.034 A 
ENDBRANCH   4  23
TORSDOF 3
ENDMDL
MODEL 3
REMARK VINA RESULT:      -9.4      3.599      8.844
REMARK  3 active torsions:
REMARK  status: ('A' for Active; 'I' for Inactive)
REMARK    1  A    between atoms: N_4  and  C_5 
REMARK    2  A    between atoms: C_16  and  C_17 
REMARK       I    between atoms: C_17  and  N_18 
REMARK    3  A    between atoms: N_18  and  C_19 
ROOT
HETATM    1  C   UNL     1      24.094  43.159  48.752  1.00  0.00     0.073 C 
HETATM    2  C   UNL     1      24.152  44.520  49.340  1.00  0.00     0.069 A 
HETATM    3  N   UNL     1      23.692  45.576  48.655  1.00  0.00    -0.170 NA
HETATM    4  N   UNL     1      23.849  46.649  49.490  1.00  0.00    -0.216 N 
HETATM    5  C   UNL     1      24.537  46.268  50.631  1.00  0.00     0.145 A 
HETATM    6  C   UNL     1      24.698  44.903  50.577  1.00  0.00     0.087 A 
HETATM    7  N   UNL     1      25.052  47.022  51.633  1.00  0.00    -0.349 N 
HETATM    8  C   UNL     1      25.775  46.379  52.626  1.00  0.00     0.111 A 
HETATM    9  C   UNL     1      25.965  45.042  52.706  1.00  0.00     0.098 A 
HETATM   10  C   UNL     1      25.371  44.173  51.632  1.00  0.00     0.205 A 
HETATM   11  O   UNL     1      25.467  42.949  51.651  1.00  0.00    -0.286 OA
HETATM   12  H   UNL     1      25.170  48.032  51.576  1.00  0.00     0.167 HD
ENDROOT
BRANCH   9  13
HETATM   13  C   UNL     1      26.789  44.515  53.839  1.00  0.00     0.261 C 
HETATM   14  N   UNL     1      28.089  44.975  53.866  1.00  0.00    -0.323 N 
HETATM   15  H   UNL     1      28.374  45.595  53.108  1.00  0.00     0.169 HD
HETATM   16  O   UNL     1      26.287  43.735  54.644  1.00  0.00    -0.267 OA
BRANCH  14  17
HETATM   17  C   UNL     1      29.086  44.702  54.825  1.00  0.00     0.035 A 
HETATM   18  C   UNL     1      29.428  45.564  55.868  1.00  0.00     0.029 A 
HETATM   19  C   UNL     1      30.445  45.221  56.766  1.00  0.00     0.002 A 
HETATM   20  C   UNL     1      31.124  44.012  56.630  1.00  0.00     0.000 A 
HETATM   21  C   UNL     1      30.790  43.146  55.595  1.00  0.00     0.002 A 
HETATM   22  C   UNL     1      29.778  43.490  54.695  1.00  0.00     0.029 A 
ENDBRANCH  14  17
ENDBRANCH   9  13
BRANCH   4  23
HETATM   23  C   UNL     1      23.318  47.918  49.118  1.00  0.00     0.060 A 
HETATM   24  C   UNL     1      24.147  49.021  48.869  1.00  0.00     0.034 A 
HETATM   25  C   UNL     1      23.586  50.250  48.509  1.00  0.00     0.044 A 
HETATM   26  C   UNL     1      22.205  50.378  48.407  1.00  0.00     0.116 A 
HETATM   27  F   UNL     1      21.677  51.559  48.062  1.00  0.00    -0.206 F 
HETATM   28  C   UNL     1      21.368  49.303  48.673  1.00  0.00     0.044 A 
HETATM   29  C   UNL     1      21.921  48.074  49.039  1.00  0.00     0.034 A 
ENDBRANCH   4  23
TORSDOF 3
ENDMDL
MODEL 4
REMARK VINA RESULT:      -9.3      2.668      4.281
REMARK  3 active torsions:
REMARK  status: ('A' for Active; 'I' for Inactive)
REMARK    1  A    between atoms: N_4  and  C_5 
REMARK    2  A    between atoms: C_16  and  C_17 
REMARK       I    between atoms: C_17  and  N_18 
REMARK    3  A    between atoms: N_18  and  C_19 
ROOT
HETATM    1  C   UNL     1      26.328  48.609  55.304  1.00  0.00     0.073 C 
HETATM    2  C   UNL     1      27.061  47.380  54.914  1.00  0.00     0.069 A 
HETATM    3  N   UNL     1      28.086  46.936  55.656  1.00  0.00    -0.170 NA
HETATM    4  N   UNL     1      28.498  45.779  55.053  1.00  0.00    -0.216 N 
HETATM    5  C   UNL     1      27.815  45.593  53.862  1.00  0.00     0.145 A 
HETATM    6  C   UNL     1      26.859  46.579  53.778  1.00  0.00     0.087 A 
HETATM    7  N   UNL     1      28.014  44.687  52.873  1.00  0.00    -0.349 N 
HETATM    8  C   UNL     1      27.225  44.779  51.737  1.00  0.00     0.111 A 
HETATM    9  C   UNL     1      26.227  45.674  51.555  1.00  0.00     0.098 A 
HETATM   10  C   UNL     1      25.952  46.667  52.652  1.00  0.00     0.205 A 
HETATM   11  O   UNL     1      25.041  47.487  52.580  1.00  0.00    -0.286 OA
HETATM   12  H   UNL     1      28.856  44.119  52.788  1.00  0.00     0.167 HD
ENDROOT
BRANCH   9  13
HETATM   13  C   UNL     1      25.483  45.645  50.257  1.00  0.00     0.261 C 
HETATM   14  N   UNL     1      24.157  46.013  50.347  1.00  0.00    -0.323 N 
HETATM   15  H   UNL     1      23.803  46.237  51.277  1.00  0.00     0.169 HD
HETATM   16  O   UNL     1      26.065  45.306  49.230  1.00  0.00    -0.267 OA
BRANCH  14  17
HETATM   17  C   UNL     1      23.216  46.131  49.302  1.00  0.00     0.035 A 
HETATM   18  C   UNL     1      22.582  45.047  48.692  1.00  0.00     0.029 A 
HETATM   19  C   UNL     1      21.673  45.255  47.649  1.00  0.00     0.002 A 
HETATM   20  C   UNL     1      21.387  46.547  47.212  1.00  0.00     0.000 A 
HETATM   21  C   UNL     1      22.013  47.633  47.815  1.00  0.00     0.002 A 
HETATM   22  C   UNL     1      22.925  47.426  48.853  1.00  0.00     0.029 A 
ENDBRANCH  14  17
ENDBRANCH   9  13
BRANCH   4  23
HETATM   23  C   UNL     1      29.488  44.969  55.681  1.00  0.00     0.060 A 
HETATM   24  C   UNL     1      29.926  43.765  55.110  1.00  0.00     0.034 A 
HETATM   25  C   UNL     1      30.899  42.997  55.759  1.00  0.00     0.044 A 
HETATM   26  C   UNL     1      31.422  43.425  56.974  1.00  0.00     0.116 A 
HETATM   27  F   UNL     1      32.352  42.683  57.588  1.00  0.00    -0.206 F 
HETATM   28  C   UNL     1      30.982  44.601  57.565  1.00  0.00     0.044 A 
HETATM   29  C   UNL     1      30.008  45.370  56.925  1.00  0.00     0.034 A 
ENDBRANCH   4  23
TORSDOF 3
ENDMDL
MODEL 5
REMARK VINA RESULT:      -9.2      3.571      9.191
REMARK  3 active torsions:
REMARK  status: ('A' for Active; 'I' for Inactive)
REMARK    1  A    between atoms: N_4  and  C_5 
REMARK    2  A    between atoms: C_16  and  C_17 
REMARK       I    between atoms: C_17  and  N_18 
REMARK    3  A    between atoms: N_18  and  C_19 
ROOT
HETATM    1  C   UNL     1      26.870  50.183  48.403  1.00  0.00     0.073 C 
HETATM    2  C   UNL     1      25.648  49.457  48.828  1.00  0.00     0.069 A 
HETATM    3  N   UNL     1      24.470  50.094  48.898  1.00  0.00    -0.170 NA
HETATM    4  N   UNL     1      23.562  49.140  49.269  1.00  0.00    -0.216 N 
HETATM    5  C   UNL     1      24.211  47.952  49.564  1.00  0.00     0.145 A 
HETATM    6  C   UNL     1      25.539  48.119  49.243  1.00  0.00     0.087 A 
HETATM    7  N   UNL     1      23.737  46.811  50.122  1.00  0.00    -0.349 N 
HETATM    8  C   UNL     1      24.637  45.791  50.384  1.00  0.00     0.111 A 
HETATM    9  C   UNL     1      25.954  45.819  50.076  1.00  0.00     0.098 A 
HETATM   10  C   UNL     1      26.505  47.054  49.416  1.00  0.00     0.205 A 
HETATM   11  O   UNL     1      27.680  47.144  49.073  1.00  0.00    -0.286 OA
HETATM   12  H   UNL     1      22.836  46.747  50.595  1.00  0.00     0.167 HD
ENDROOT
BRANCH   9  13
HETATM   13  C   UNL     1      26.789  44.633  50.446  1.00  0.00     0.261 C 
HETATM   14  N   UNL     1      27.066  44.523  51.792  1.00  0.00    -0.323 N 
HETATM   15  H   UNL     1      26.709  45.264  52.398  1.00  0.00     0.169 HD
HETATM   16  O   UNL     1      27.168  43.859  49.570  1.00  0.00    -0.267 OA
BRANCH  14  17
HETATM   17  C   UNL     1      27.779  43.501  52.452  1.00  0.00     0.035 A 
HETATM   18  C   UNL     1      27.404  42.156  52.449  1.00  0.00     0.029 A 
HETATM   19  C   UNL     1      28.162  41.209  53.147  1.00  0.00     0.002 A 
HETATM   20  C   UNL     1      29.303  41.598  53.847  1.00  0.00     0.000 A 
HETATM   21  C   UNL     1      29.685  42.935  53.853  1.00  0.00     0.002 A 
HETATM   22  C   UNL     1      28.926  43.882  53.162  1.00  0.00     0.029 A 
ENDBRANCH  14  17
ENDBRANCH   9  13
BRANCH   4  23
HETATM   23  C   UNL     1      22.173  49.457  49.291  1.00  0.00     0.060 A 
HETATM   24  C   UNL     1      21.197  48.525  48.910  1.00  0.00     0.034 A 
HETATM   25  C   UNL     1      19.844  48.876  48.944  1.00  0.00     0.044 A 
HETATM   26  C   UNL     1      19.469  50.152  49.348  1.00  0.00     0.116 A 
HETATM   27  F   UNL     1      18.171  50.480  49.378  1.00  0.00    -0.206 F 
HETATM   28  C   UNL     1      20.423  51.095  49.707  1.00  0.00     0.044 A 
HETATM   29  C   UNL     1      21.776  50.753  49.670  1.00  0.00     0.034 A 
ENDBRANCH   4  23
TORSDOF 3
ENDMDL
MODEL 6
REMARK VINA RESULT:      -9.2      2.039      3.158
REMARK  3 active torsions:
REMARK  status: ('A' for Active; 'I' for Inactive)
REMARK    1  A    between atoms: N_4  and  C_5 
REMARK    2  A    between atoms: C_16  and  C_17 
REMARK       I    between atoms: C_17  and  N_18 
REMARK    3  A    between atoms: N_18  and  C_19 
ROOT
HETATM    1  C   UNL     1      28.036  41.422  50.881  1.00  0.00     0.073 C 
HETATM    2  C   UNL     1      28.035  42.577  51.811  1.00  0.00     0.069 A 
HETATM    3  N   UNL     1      28.725  42.525  52.960  1.00  0.00    -0.170 NA
HETATM    4  N   UNL     1      28.551  43.749  53.545  1.00  0.00    -0.216 N 
HETATM    5  C   UNL     1      27.638  44.499  52.822  1.00  0.00     0.145 A 
HETATM    6  C   UNL     1      27.332  43.787  51.684  1.00  0.00     0.087 A 
HETATM    7  N   UNL     1      27.048  45.683  53.118  1.00  0.00    -0.349 N 
HETATM    8  C   UNL     1      26.096  46.175  52.240  1.00  0.00     0.111 A 
HETATM    9  C   UNL     1      25.742  45.591  51.072  1.00  0.00     0.098 A 
HETATM   10  C   UNL     1      26.409  44.297  50.692  1.00  0.00     0.205 A 
HETATM   11  O   UNL     1      26.170  43.724  49.633  1.00  0.00    -0.286 OA
HETATM   12  H   UNL     1      27.059  46.102  54.048  1.00  0.00     0.167 HD
ENDROOT
BRANCH   9  13
HETATM   13  C   UNL     1      24.681  46.251  50.249  1.00  0.00     0.261 C 
HETATM   14  N   UNL     1      24.843  47.611  50.088  1.00  0.00    -0.323 N 
HETATM   15  H   UNL     1      25.639  48.041  50.561  1.00  0.00     0.169 HD
HETATM   16  O   UNL     1      23.763  45.579  49.786  1.00  0.00    -0.267 OA
BRANCH  14  17
HETATM   17  C   UNL     1      24.045  48.498  49.334  1.00  0.00     0.035 A 
HETATM   18  C   UNL     1      22.659  48.389  49.205  1.00  0.00     0.029 A 
HETATM   19  C   UNL     1      21.947  49.304  48.422  1.00  0.00     0.002 A 
HETATM   20  C   UNL     1      22.614  50.336  47.765  1.00  0.00     0.000 A 
HETATM   21  C   UNL     1      23.995  50.454  47.889  1.00  0.00     0.002 A 
HETATM   22  C   UNL     1      24.706  49.538  48.667  1.00  0.00     0.029 A 
ENDBRANCH  14  17
ENDBRANCH   9  13
BRANCH   4  23
HETATM   23  C   UNL     1      29.282  44.080  54.724  1.00  0.00     0.060 A 
HETATM   24  C   UNL     1      29.006  45.240  55.462  1.00  0.00     0.034 A 
HETATM   25  C   UNL     1      29.747  45.529  56.612  1.00  0.00     0.044 A 
HETATM   26  C   UNL     1      30.762  44.670  57.016  1.00  0.00     0.116 A 
HETATM   27  F   UNL     1      31.467  44.955  58.118  1.00  0.00    -0.206 F 
HETATM   28  C   UNL     1      31.064  43.529  56.285  1.00  0.00     0.044 A 
HETATM   29  C   UNL     1      30.332  43.237  55.132  1.00  0.00     0.034 A 
ENDBRANCH   4  23
TORSDOF 3
ENDMDL
MODEL 7
REMARK VINA RESULT:      -8.9      3.528      8.934
REMARK  3 active torsions:
REMARK  status: ('A' for Active; 'I' for Inactive)
REMARK    1  A    between atoms: N_4  and  C_5 
REMARK    2  A    between atoms: C_16  and  C_17 
REMARK       I    between atoms: C_17  and  N_18 
REMARK    3  A    between atoms: N_18  and  C_19 
ROOT
HETATM    1  C   UNL     1      21.864  44.353  47.209  1.00  0.00     0.073 C 
HETATM    2  C   UNL     1      22.153  45.609  47.944  1.00  0.00     0.069 A 
HETATM    3  N   UNL     1      21.375  46.688  47.779  1.00  0.00    -0.170 NA
HETATM    4  N   UNL     1      21.883  47.637  48.623  1.00  0.00    -0.216 N 
HETATM    5  C   UNL     1      23.059  47.183  49.199  1.00  0.00     0.145 A 
HETATM    6  C   UNL     1      23.224  45.872  48.816  1.00  0.00     0.087 A 
HETATM    7  N   UNL     1      23.972  47.840  49.954  1.00  0.00    -0.349 N 
HETATM    8  C   UNL     1      25.115  47.155  50.336  1.00  0.00     0.111 A 
HETATM    9  C   UNL     1      25.371  45.856  50.059  1.00  0.00     0.098 A 
HETATM   10  C   UNL     1      24.357  45.086  49.258  1.00  0.00     0.205 A 
HETATM   11  O   UNL     1      24.497  43.894  48.996  1.00  0.00    -0.286 OA
HETATM   12  H   UNL     1      24.008  48.855  50.041  1.00  0.00     0.167 HD
ENDROOT
BRANCH   9  13
HETATM   13  C   UNL     1      26.666  45.277  50.536  1.00  0.00     0.261 C 
HETATM   14  N   UNL     1      26.642  44.808  51.833  1.00  0.00    -0.323 N 
HETATM   15  H   UNL     1      25.770  44.925  52.350  1.00  0.00     0.169 HD
HETATM   16  O   UNL     1      27.636  45.254  49.783  1.00  0.00    -0.267 OA
BRANCH  14  17
HETATM   17  C   UNL     1      27.680  44.170  52.545  1.00  0.00     0.035 A 
HETATM   18  C   UNL     1      28.361  43.039  52.091  1.00  0.00     0.029 A 
HETATM   19  C   UNL     1      29.367  42.459  52.872  1.00  0.00     0.002 A 
HETATM   20  C   UNL     1      29.702  43.007  54.108  1.00  0.00     0.000 A 
HETATM   21  C   UNL     1      29.030  44.135  54.567  1.00  0.00     0.002 A 
HETATM   22  C   UNL     1      28.022  44.712  53.791  1.00  0.00     0.029 A 
ENDBRANCH  14  17
ENDBRANCH   9  13
BRANCH   4  23
HETATM   23  C   UNL     1      21.189  48.869  48.801  1.00  0.00     0.060 A 
HETATM   24  C   UNL     1      21.669  50.071  48.261  1.00  0.00     0.034 A 
HETATM   25  C   UNL     1      20.960  51.259  48.460  1.00  0.00     0.044 A 
HETATM   26  C   UNL     1      19.784  51.248  49.201  1.00  0.00     0.116 A 
HETATM   27  F   UNL     1      19.111  52.391  49.386  1.00  0.00    -0.206 F 
HETATM   28  C   UNL     1      19.306  50.072  49.762  1.00  0.00     0.044 A 
HETATM   29  C   UNL     1      20.012  48.882  49.572  1.00  0.00     0.034 A 
ENDBRANCH   4  23
TORSDOF 3
ENDMDL
MODEL 8
REMARK VINA RESULT:      -8.9      4.813      8.134
REMARK  3 active torsions:
REMARK  status: ('A' for Active; 'I' for Inactive)
REMARK    1  A    between atoms: N_4  and  C_5 
REMARK    2  A    between atoms: C_16  and  C_17 
REMARK       I    between atoms: C_17  and  N_18 
REMARK    3  A    between atoms: N_18  and  C_19 
ROOT
HETATM    1  C   UNL     1      25.892  45.843  52.447  1.00  0.00     0.073 C 
HETATM    2  C   UNL     1      26.954  44.955  52.984  1.00  0.00     0.069 A 
HETATM    3  N   UNL     1      27.770  45.385  53.957  1.00  0.00    -0.170 NA
HETATM    4  N   UNL     1      28.583  44.323  54.245  1.00  0.00    -0.216 N 
HETATM    5  C   UNL     1      28.357  43.291  53.349  1.00  0.00     0.145 A 
HETATM    6  C   UNL     1      27.286  43.656  52.565  1.00  0.00     0.087 A 
HETATM    7  N   UNL     1      29.038  42.135  53.156  1.00  0.00    -0.349 N 
HETATM    8  C   UNL     1      28.637  41.308  52.119  1.00  0.00     0.111 A 
HETATM    9  C   UNL     1      27.577  41.536  51.310  1.00  0.00     0.098 A 
HETATM   10  C   UNL     1      26.773  42.789  51.524  1.00  0.00     0.205 A 
HETATM   11  O   UNL     1      25.777  43.051  50.857  1.00  0.00    -0.286 OA
HETATM   12  H   UNL     1      29.965  41.956  53.538  1.00  0.00     0.167 HD
ENDROOT
BRANCH   9  13
HETATM   13  C   UNL     1      27.293  40.543  50.226  1.00  0.00     0.261 C 
HETATM   14  N   UNL     1      28.266  40.462  49.253  1.00  0.00    -0.323 N 
HETATM   15  H   UNL     1      29.061  41.096  49.341  1.00  0.00     0.169 HD
HETATM   16  O   UNL     1      26.255  39.887  50.258  1.00  0.00    -0.267 OA
BRANCH  14  17
HETATM   17  C   UNL     1      28.312  39.597  48.139  1.00  0.00     0.035 A 
HETATM   18  C   UNL     1      28.748  38.273  48.193  1.00  0.00     0.029 A 
HETATM   19  C   UNL     1      28.777  37.490  47.034  1.00  0.00     0.002 A 
HETATM   20  C   UNL     1      28.366  38.023  45.814  1.00  0.00     0.000 A 
HETATM   21  C   UNL     1      27.927  39.342  45.751  1.00  0.00     0.002 A 
HETATM   22  C   UNL     1      27.903  40.125  46.907  1.00  0.00     0.029 A 
ENDBRANCH  14  17
ENDBRANCH   9  13
BRANCH   4  23
HETATM   23  C   UNL     1      29.481  44.399  55.350  1.00  0.00     0.060 A 
HETATM   24  C   UNL     1      30.462  43.423  55.572  1.00  0.00     0.034 A 
HETATM   25  C   UNL     1      31.322  43.533  56.669  1.00  0.00     0.044 A 
HETATM   26  C   UNL     1      31.196  44.606  57.544  1.00  0.00     0.116 A 
HETATM   27  F   UNL     1      32.023  44.703  58.592  1.00  0.00    -0.206 F 
HETATM   28  C   UNL     1      30.214  45.569  57.353  1.00  0.00     0.044 A 
HETATM   29  C   UNL     1      29.349  45.463  56.262  1.00  0.00     0.034 A 
ENDBRANCH   4  23
TORSDOF 3
ENDMDL
MODEL 9
REMARK VINA RESULT:      -8.5      2.451      3.479
REMARK  3 active torsions:
REMARK  status: ('A' for Active; 'I' for Inactive)
REMARK    1  A    between atoms: N_4  and  C_5 
REMARK    2  A    between atoms: C_16  and  C_17 
REMARK       I    between atoms: C_17  and  N_18 
REMARK    3  A    between atoms: N_18  and  C_19 
ROOT
HETATM    1  C   UNL     1      26.901  45.585  54.298  1.00  0.00     0.073 C 
HETATM    2  C   UNL     1      26.640  44.902  53.007  1.00  0.00     0.069 A 
HETATM    3  N   UNL     1      27.142  43.681  52.772  1.00  0.00    -0.170 NA
HETATM    4  N   UNL     1      26.681  43.331  51.532  1.00  0.00    -0.216 N 
HETATM    5  C   UNL     1      26.015  44.398  50.951  1.00  0.00     0.145 A 
HETATM    6  C   UNL     1      25.936  45.395  51.896  1.00  0.00     0.087 A 
HETATM    7  N   UNL     1      25.549  44.555  49.688  1.00  0.00    -0.349 N 
HETATM    8  C   UNL     1      24.987  45.775  49.348  1.00  0.00     0.111 A 
HETATM    9  C   UNL     1      24.814  46.814  50.197  1.00  0.00     0.098 A 
HETATM   10  C   UNL     1      25.282  46.657  51.619  1.00  0.00     0.205 A 
HETATM   11  O   UNL     1      25.130  47.539  52.459  1.00  0.00    -0.286 OA
HETATM   12  H   UNL     1      25.812  43.951  48.911  1.00  0.00     0.167 HD
ENDROOT
BRANCH   9  13
HETATM   13  C   UNL     1      24.203  48.069  49.658  1.00  0.00     0.261 C 
HETATM   14  N   UNL     1      22.839  48.005  49.466  1.00  0.00    -0.323 N 
HETATM   15  H   UNL     1      22.384  47.116  49.674  1.00  0.00     0.169 HD
HETATM   16  O   UNL     1      24.915  49.041  49.423  1.00  0.00    -0.267 OA
BRANCH  14  17
HETATM   17  C   UNL     1      21.976  49.029  49.020  1.00  0.00     0.035 A 
HETATM   18  C   UNL     1      21.240  48.974  47.835  1.00  0.00     0.029 A 
HETATM   19  C   UNL     1      20.421  50.044  47.461  1.00  0.00     0.002 A 
HETATM   20  C   UNL     1      20.326  51.175  48.270  1.00  0.00     0.000 A 
HETATM   21  C   UNL     1      21.054  51.238  49.454  1.00  0.00     0.002 A 
HETATM   22  C   UNL     1      21.876  50.172  49.826  1.00  0.00     0.029 A 
ENDBRANCH  14  17
ENDBRANCH   9  13
BRANCH   4  23
HETATM   23  C   UNL     1      26.913  42.014  51.037  1.00  0.00     0.060 A 
HETATM   24  C   UNL     1      28.183  41.422  51.082  1.00  0.00     0.034 A 
HETATM   25  C   UNL     1      28.370  40.129  50.585  1.00  0.00     0.044 A 
HETATM   26  C   UNL     1      27.297  39.435  50.038  1.00  0.00     0.116 A 
HETATM   27  F   UNL     1      27.484  38.198  49.563  1.00  0.00    -0.206 F 
HETATM   28  C   UNL     1      26.037  40.015  49.964  1.00  0.00     0.044 A 
HETATM   29  C   UNL     1      25.845  41.308  50.453  1.00  0.00     0.034 A 
ENDBRANCH   4  23
TORSDOF 3
ENDMDL
MODEL 10
REMARK VINA RESULT:      -8.2      3.080      4.100
REMARK  3 active torsions:
REMARK  status: ('A' for Active; 'I' for Inactive)
REMARK    1  A    between atoms: N_4  and  C_5 
REMARK    2  A    between atoms: C_16  and  C_17 
REMARK       I    between atoms: C_17  and  N_18 
REMARK    3  A    between atoms: N_18  and  C_19 
ROOT
HETATM    1  C   UNL     1      27.265  43.878  54.600  1.00  0.00     0.073 C 
HETATM    2  C   UNL     1      27.115  43.424  53.196  1.00  0.00     0.069 A 
HETATM    3  N   UNL     1      27.533  42.203  52.829  1.00  0.00    -0.170 NA
HETATM    4  N   UNL     1      27.208  42.091  51.505  1.00  0.00    -0.216 N 
HETATM    5  C   UNL     1      26.720  43.297  51.028  1.00  0.00     0.145 A 
HETATM    6  C   UNL     1      26.609  44.148  52.104  1.00  0.00     0.087 A 
HETATM    7  N   UNL     1      26.438  43.687  49.761  1.00  0.00    -0.349 N 
HETATM    8  C   UNL     1      26.036  44.997  49.556  1.00  0.00     0.111 A 
HETATM    9  C   UNL     1      25.847  45.913  50.534  1.00  0.00     0.098 A 
HETATM   10  C   UNL     1      26.111  45.500  51.957  1.00  0.00     0.205 A 
HETATM   11  O   UNL     1      25.929  46.260  52.904  1.00  0.00    -0.286 OA
HETATM   12  H   UNL     1      26.745  43.178  48.932  1.00  0.00     0.167 HD
ENDROOT
BRANCH   9  13
HETATM   13  C   UNL     1      25.425  47.292  50.135  1.00  0.00     0.261 C 
HETATM   14  N   UNL     1      24.190  47.359  49.525  1.00  0.00    -0.323 N 
HETATM   15  H   UNL     1      23.699  46.477  49.377  1.00  0.00     0.169 HD
HETATM   16  O   UNL     1      26.168  48.244  50.357  1.00  0.00    -0.267 OA
BRANCH  14  17
HETATM   17  C   UNL     1      23.501  48.508  49.083  1.00  0.00     0.035 A 
HETATM   18  C   UNL     1      22.130  48.712  49.245  1.00  0.00     0.029 A 
HETATM   19  C   UNL     1      21.525  49.876  48.758  1.00  0.00     0.002 A 
HETATM   20  C   UNL     1      22.286  50.847  48.111  1.00  0.00     0.000 A 
HETATM   21  C   UNL     1      23.654  50.653  47.946  1.00  0.00     0.002 A 
HETATM   22  C   UNL     1      24.258  49.489  48.427  1.00  0.00     0.029 A 
ENDBRANCH  14  17
ENDBRANCH   9  13
BRANCH   4  23
HETATM   23  C   UNL     1      27.384  40.844  50.837  1.00  0.00     0.060 A 
HETATM   24  C   UNL     1      26.322  40.196  50.190  1.00  0.00     0.034 A 
HETATM   25  C   UNL     1      26.535  38.973  49.548  1.00  0.00     0.044 A 
HETATM   26  C   UNL     1      27.800  38.396  49.560  1.00  0.00     0.116 A 
HETATM   27  F   UNL     1      27.996  37.224  48.943  1.00  0.00    -0.206 F 
HETATM   28  C   UNL     1      28.858  39.011  50.216  1.00  0.00     0.044 A 
HETATM   29  C   UNL     1      28.650  40.230  50.864  1.00  0.00     0.034 A 
ENDBRANCH   4  23
TORSDOF 3
ENDMDL
