MODEL 1
REMARK VINA RESULT:     -10.0      0.000      0.000
REMARK  8 active torsions:
REMARK  status: ('A' for Active; 'I' for Inactive)
REMARK    1  A    between atoms: C_4  and  S_5 
REMARK    2  A    between atoms: S_5  and  C_6 
REMARK    3  A    between atoms: C_6  and  C_7 
REMARK       I    between atoms: C_7  and  N_8 
REMARK    4  A    between atoms: N_8  and  C_9 
REMARK    5  A    between atoms: C_20  and  C_21 
REMARK    6  A    between atoms: C_27  and  C_28 
REMARK       I    between atoms: C_28  and  N_29 
REMARK    7  A    between atoms: N_29  and  C_30 
REMARK    8  A    between atoms: C_31  and  O_32 
ROOT
HETATM    1  C   UNL     1      25.247  49.370  48.828  1.00  0.00     0.069 C 
HETATM    2  C   UNL     1      24.549  48.056  49.098  1.00  0.00     0.019 A 
HETATM    3  N   UNL     1      25.367  47.044  49.561  1.00  0.00    -0.353 N 
HETATM    4  C   UNL     1      24.977  45.755  49.853  1.00  0.00     0.087 A 
HETATM    5  C   UNL     1      23.672  45.426  49.741  1.00  0.00     0.055 A 
HETATM    6  C   UNL     1      23.164  44.002  49.896  1.00  0.00     0.019 C 
HETATM    7  N   UNL     1      22.743  42.820  50.023  1.00  0.00    -0.096 N 
HETATM    8  C   UNL     1      22.633  46.451  49.220  1.00  0.00     0.104 A 
HETATM    9  C   UNL     1      23.224  47.830  48.903  1.00  0.00     0.046 A 
HETATM   10  H   UNL     1      26.322  47.282  49.812  1.00  0.00     0.166 HD
ENDROOT
BRANCH   4  11
HETATM   11  S   UNL     1      26.195  44.615  50.371  1.00  0.00    -0.102 SA
BRANCH  11  12
HETATM   12  C   UNL     1      25.879  44.380  52.145  1.00  0.00     0.184 C 
BRANCH  12  13
HETATM   13  C   UNL     1      27.029  43.801  52.948  1.00  0.00     0.231 C 
HETATM   14  N   UNL     1      27.740  44.743  53.669  1.00  0.00    -0.325 N 
HETATM   15  H   UNL     1      27.554  45.719  53.467  1.00  0.00     0.169 HD
HETATM   16  O   UNL     1      27.258  42.595  52.927  1.00  0.00    -0.272 OA
BRANCH  14  17
HETATM   17  C   UNL     1      28.847  44.510  54.525  1.00  0.00     0.056 A 
HETATM   18  C   UNL     1      29.143  45.461  55.518  1.00  0.00     0.060 A 
HETATM   19 CL   UNL     1      28.155  46.869  55.723  1.00  0.00    -0.082 Cl
HETATM   20  C   UNL     1      30.247  45.304  56.361  1.00  0.00     0.026 A 
HETATM   21  C   UNL     1      31.062  44.180  56.236  1.00  0.00     0.002 A 
HETATM   22  C   UNL     1      30.763  43.214  55.278  1.00  0.00     0.002 A 
HETATM   23  C   UNL     1      29.659  43.376  54.433  1.00  0.00     0.031 A 
ENDBRANCH  14  17
ENDBRANCH  12  13
ENDBRANCH  11  12
ENDBRANCH   4  11
BRANCH   8  24
HETATM   24  C   UNL     1      21.855  45.820  48.061  1.00  0.00    -0.044 A 
HETATM   25  C   UNL     1      20.516  45.431  48.243  1.00  0.00     0.008 A 
HETATM   26  C   UNL     1      19.816  44.795  47.217  1.00  0.00     0.001 A 
HETATM   27  C   UNL     1      20.439  44.549  45.995  1.00  0.00     0.000 A 
HETATM   28  C   UNL     1      21.762  44.933  45.800  1.00  0.00     0.001 A 
HETATM   29  C   UNL     1      22.469  45.558  46.827  1.00  0.00     0.008 A 
ENDBRANCH   8  24
BRANCH   9  30
HETATM   30  C   UNL     1      22.365  49.006  48.516  1.00  0.00     0.255 C 
HETATM   31  N   UNL     1      21.598  49.564  49.506  1.00  0.00    -0.321 N 
HETATM   32  H   UNL     1      21.800  49.389  50.481  1.00  0.00     0.169 HD
HETATM   33  O   UNL     1      22.387  49.417  47.356  1.00  0.00    -0.268 OA
BRANCH  31  34
HETATM   34  C   UNL     1      20.448  50.376  49.346  1.00  0.00     0.068 A 
HETATM   35  C   UNL     1      19.208  49.827  49.740  1.00  0.00     0.095 A 
HETATM   36  C   UNL     1      18.028  50.541  49.512  1.00  0.00     0.039 A 
HETATM   37  C   UNL     1      18.074  51.791  48.893  1.00  0.00     0.003 A 
HETATM   38  C   UNL     1      19.298  52.337  48.512  1.00  0.00     0.002 A 
HETATM   39  C   UNL     1      20.483  51.635  48.741  1.00  0.00     0.032 A 
BRANCH  35  40
HETATM   40  O   UNL     1      19.271  48.591  50.337  1.00  0.00    -0.354 OA
HETATM   41  C   UNL     1      18.553  48.420  51.552  1.00  0.00     0.210 C 
ENDBRANCH  35  40
ENDBRANCH  31  34
ENDBRANCH   9  30
TORSDOF 8
ENDMDL
MODEL 2
REMARK VINA RESULT:      -9.9      0.885      1.223
REMARK  8 active torsions:
REMARK  status: ('A' for Active; 'I' for Inactive)
REMARK    1  A    between atoms: C_4  and  S_5 
REMARK    2  A    between atoms: S_5  and  C_6 
REMARK    3  A    between atoms: C_6  and  C_7 
REMARK       I    between atoms: C_7  and  N_8 
REMARK    4  A    between atoms: N_8  and  C_9 
REMARK    5  A    between atoms: C_20  and  C_21 
REMARK    6  A    between atoms: C_27  and  C_28 
REMARK       I    between atoms: C_28  and  N_29 
REMARK    7  A    between atoms: N_29  and  C_30 
REMARK    8  A    between atoms: C_31  and  O_32 
ROOT
HETATM    1  C   UNL     1      24.909  48.835  49.154  1.00  0.00     0.069 C 
HETATM    2  C   UNL     1      24.286  47.458  49.176  1.00  0.00     0.019 A 
HETATM    3  N   UNL     1      25.134  46.439  49.564  1.00  0.00    -0.353 N 
HETATM    4  C   UNL     1      24.813  45.101  49.639  1.00  0.00     0.087 A 
HETATM    5  C   UNL     1      23.547  44.716  49.368  1.00  0.00     0.055 A 
HETATM    6  C   UNL     1      23.130  43.257  49.278  1.00  0.00     0.019 C 
HETATM    7  N   UNL     1      22.784  42.047  49.203  1.00  0.00    -0.096 N 
HETATM    8  C   UNL     1      22.483  45.743  48.906  1.00  0.00     0.104 A 
HETATM    9  C   UNL     1      22.999  47.186  48.836  1.00  0.00     0.046 A 
HETATM   10  H   UNL     1      26.047  46.694  49.928  1.00  0.00     0.166 HD
ENDROOT
BRANCH   4  11
HETATM   11  S   UNL     1      26.064  43.971  50.098  1.00  0.00    -0.102 SA
BRANCH  11  12
HETATM   12  C   UNL     1      26.188  44.133  51.903  1.00  0.00     0.184 C 
BRANCH  12  13
HETATM   13  C   UNL     1      27.591  44.058  52.477  1.00  0.00     0.231 C 
HETATM   14  N   UNL     1      27.649  44.254  53.845  1.00  0.00    -0.325 N 
HETATM   15  H   UNL     1      26.810  44.595  54.301  1.00  0.00     0.169 HD
HETATM   16  O   UNL     1      28.552  43.834  51.746  1.00  0.00    -0.272 OA
BRANCH  14  17
HETATM   17  C   UNL     1      28.805  44.222  54.666  1.00  0.00     0.056 A 
HETATM   18  C   UNL     1      29.129  45.366  55.419  1.00  0.00     0.060 A 
HETATM   19 CL   UNL     1      28.117  46.770  55.381  1.00  0.00    -0.082 Cl
HETATM   20  C   UNL     1      30.280  45.405  56.212  1.00  0.00     0.026 A 
HETATM   21  C   UNL     1      31.117  44.292  56.278  1.00  0.00     0.002 A 
HETATM   22  C   UNL     1      30.792  43.142  55.563  1.00  0.00     0.002 A 
HETATM   23  C   UNL     1      29.641  43.106  54.768  1.00  0.00     0.031 A 
ENDBRANCH  14  17
ENDBRANCH  12  13
ENDBRANCH  11  12
ENDBRANCH   4  11
BRANCH   8  24
HETATM   24  C   UNL     1      21.845  45.242  47.606  1.00  0.00    -0.044 A 
HETATM   25  C   UNL     1      22.556  45.328  46.397  1.00  0.00     0.008 A 
HETATM   26  C   UNL     1      21.963  44.938  45.195  1.00  0.00     0.001 A 
HETATM   27  C   UNL     1      20.660  44.447  45.187  1.00  0.00     0.000 A 
HETATM   28  C   UNL     1      19.946  44.351  46.378  1.00  0.00     0.001 A 
HETATM   29  C   UNL     1      20.530  44.752  47.579  1.00  0.00     0.008 A 
ENDBRANCH   8  24
BRANCH   9  30
HETATM   30  C   UNL     1      22.093  48.354  48.543  1.00  0.00     0.255 C 
HETATM   31  N   UNL     1      21.485  48.950  49.618  1.00  0.00    -0.321 N 
HETATM   32  H   UNL     1      21.832  48.807  50.557  1.00  0.00     0.169 HD
HETATM   33  O   UNL     1      21.939  48.724  47.380  1.00  0.00    -0.268 OA
BRANCH  31  34
HETATM   34  C   UNL     1      20.325  49.763  49.605  1.00  0.00     0.068 A 
HETATM   35  C   UNL     1      19.077  49.109  49.517  1.00  0.00     0.095 A 
HETATM   36  C   UNL     1      17.905  49.862  49.398  1.00  0.00     0.039 A 
HETATM   37  C   UNL     1      17.968  51.255  49.364  1.00  0.00     0.003 A 
HETATM   38  C   UNL     1      19.198  51.902  49.460  1.00  0.00     0.002 A 
HETATM   39  C   UNL     1      20.374  51.160  49.585  1.00  0.00     0.032 A 
BRANCH  35  40
HETATM   40  O   UNL     1      19.125  47.736  49.557  1.00  0.00    -0.354 OA
HETATM   41  C   UNL     1      18.338  47.031  48.606  1.00  0.00     0.210 C 
ENDBRANCH  35  40
ENDBRANCH  31  34
ENDBRANCH   9  30
TORSDOF 8
ENDMDL
MODEL 3
REMARK VINA RESULT:      -9.8      5.362     10.052
REMARK  8 active torsions:
REMARK  status: ('A' for Active; 'I' for Inactive)
REMARK    1  A    between atoms: C_4  and  S_5 
REMARK    2  A    between atoms: S_5  and  C_6 
REMARK    3  A    between atoms: C_6  and  C_7 
REMARK       I    between atoms: C_7  and  N_8 
REMARK    4  A    between atoms: N_8  and  C_9 
REMARK    5  A    between atoms: C_20  and  C_21 
REMARK    6  A    between atoms: C_27  and  C_28 
REMARK       I    between atoms: C_28  and  N_29 
REMARK    7  A    between atoms: N_29  and  C_30 
REMARK    8  A    between atoms: C_31  and  O_32 
ROOT
HETATM    1  C   UNL     1      28.612  40.827  52.542  1.00  0.00     0.069 C 
HETATM    2  C   UNL     1      27.467  41.499  51.817  1.00  0.00     0.019 A 
HETATM    3  N   UNL     1      27.065  40.874  50.653  1.00  0.00    -0.353 N 
HETATM    4  C   UNL     1      26.067  41.302  49.805  1.00  0.00     0.087 A 
HETATM    5  C   UNL     1      25.356  42.403  50.136  1.00  0.00     0.055 A 
HETATM    6  C   UNL     1      24.340  43.039  49.201  1.00  0.00     0.019 C 
HETATM    7  N   UNL     1      23.498  43.567  48.426  1.00  0.00    -0.096 N 
HETATM    8  C   UNL     1      25.698  43.222  51.406  1.00  0.00     0.104 A 
HETATM    9  C   UNL     1      26.856  42.641  52.229  1.00  0.00     0.046 A 
HETATM   10  H   UNL     1      27.459  39.961  50.444  1.00  0.00     0.166 HD
ENDROOT
BRANCH   4  11
HETATM   11  S   UNL     1      25.763  40.385  48.350  1.00  0.00    -0.102 SA
BRANCH  11  12
HETATM   12  C   UNL     1      27.412  39.920  47.748  1.00  0.00     0.184 C 
BRANCH  12  13
HETATM   13  C   UNL     1      27.893  40.653  46.510  1.00  0.00     0.231 C 
HETATM   14  N   UNL     1      27.257  40.264  45.344  1.00  0.00    -0.325 N 
HETATM   15  H   UNL     1      26.678  39.432  45.387  1.00  0.00     0.169 HD
HETATM   16  O   UNL     1      28.768  41.510  46.594  1.00  0.00    -0.272 OA
BRANCH  14  17
HETATM   17  C   UNL     1      27.471  40.777  44.039  1.00  0.00     0.056 A 
HETATM   18  C   UNL     1      28.413  40.139  43.211  1.00  0.00     0.060 A 
HETATM   19 CL   UNL     1      29.264  38.731  43.752  1.00  0.00    -0.082 Cl
HETATM   20  C   UNL     1      28.695  40.627  41.932  1.00  0.00     0.026 A 
HETATM   21  C   UNL     1      28.025  41.753  41.454  1.00  0.00     0.002 A 
HETATM   22  C   UNL     1      27.068  42.375  42.251  1.00  0.00     0.002 A 
HETATM   23  C   UNL     1      26.789  41.886  43.532  1.00  0.00     0.031 A 
ENDBRANCH  14  17
ENDBRANCH  12  13
ENDBRANCH  11  12
ENDBRANCH   4  11
BRANCH   8  24
HETATM   24  C   UNL     1      25.885  44.690  51.011  1.00  0.00    -0.044 A 
HETATM   25  C   UNL     1      25.105  45.686  51.623  1.00  0.00     0.008 A 
HETATM   26  C   UNL     1      25.216  47.019  51.227  1.00  0.00     0.001 A 
HETATM   27  C   UNL     1      26.115  47.376  50.224  1.00  0.00     0.000 A 
HETATM   28  C   UNL     1      26.898  46.401  49.613  1.00  0.00     0.001 A 
HETATM   29  C   UNL     1      26.780  45.066  49.997  1.00  0.00     0.008 A 
ENDBRANCH   8  24
BRANCH   9  30
HETATM   30  C   UNL     1      27.257  43.204  53.567  1.00  0.00     0.255 C 
HETATM   31  N   UNL     1      28.425  43.923  53.610  1.00  0.00    -0.321 N 
HETATM   32  H   UNL     1      28.841  44.290  52.765  1.00  0.00     0.169 HD
HETATM   33  O   UNL     1      26.539  43.010  54.547  1.00  0.00    -0.268 OA
BRANCH  31  34
HETATM   34  C   UNL     1      29.216  44.207  54.750  1.00  0.00     0.068 A 
HETATM   35  C   UNL     1      28.940  45.403  55.447  1.00  0.00     0.095 A 
HETATM   36  C   UNL     1      29.753  45.785  56.519  1.00  0.00     0.039 A 
HETATM   37  C   UNL     1      30.834  44.989  56.897  1.00  0.00     0.003 A 
HETATM   38  C   UNL     1      31.101  43.803  56.215  1.00  0.00     0.002 A 
HETATM   39  C   UNL     1      30.292  43.409  55.148  1.00  0.00     0.032 A 
BRANCH  35  40
HETATM   40  O   UNL     1      27.856  46.115  54.995  1.00  0.00    -0.354 OA
HETATM   41  C   UNL     1      28.025  47.516  54.823  1.00  0.00     0.210 C 
ENDBRANCH  35  40
ENDBRANCH  31  34
ENDBRANCH   9  30
TORSDOF 8
ENDMDL
MODEL 4
REMARK VINA RESULT:      -9.3      5.681     10.020
REMARK  8 active torsions:
REMARK  status: ('A' for Active; 'I' for Inactive)
REMARK    1  A    between atoms: C_4  and  S_5 
REMARK    2  A    between atoms: S_5  and  C_6 
REMARK    3  A    between atoms: C_6  and  C_7 
REMARK       I    between atoms: C_7  and  N_8 
REMARK    4  A    between atoms: N_8  and  C_9 
REMARK    5  A    between atoms: C_20  and  C_21 
REMARK    6  A    between atoms: C_27  and  C_28 
REMARK       I    between atoms: C_28  and  N_29 
REMARK    7  A    between atoms: N_29  and  C_30 
REMARK    8  A    between atoms: C_31  and  O_32 
ROOT
HETATM    1  C   UNL     1      28.752  40.882  52.527  1.00  0.00     0.069 C 
HETATM    2  C   UNL     1      27.598  41.548  51.812  1.00  0.00     0.019 A 
HETATM    3  N   UNL     1      27.221  40.948  50.626  1.00  0.00    -0.353 N 
HETATM    4  C   UNL     1      26.220  41.377  49.782  1.00  0.00     0.087 A 
HETATM    5  C   UNL     1      25.481  42.451  50.138  1.00  0.00     0.055 A 
HETATM    6  C   UNL     1      24.458  43.090  49.213  1.00  0.00     0.019 C 
HETATM    7  N   UNL     1      23.610  43.621  48.446  1.00  0.00    -0.096 N 
HETATM    8  C   UNL     1      25.792  43.239  51.434  1.00  0.00     0.104 A 
HETATM    9  C   UNL     1      26.956  42.662  52.251  1.00  0.00     0.046 A 
HETATM   10  H   UNL     1      27.638  40.051  50.393  1.00  0.00     0.166 HD
ENDROOT
BRANCH   4  11
HETATM   11  S   UNL     1      25.950  40.497  48.298  1.00  0.00    -0.102 SA
BRANCH  11  12
HETATM   12  C   UNL     1      26.615  38.837  48.621  1.00  0.00     0.184 C 
BRANCH  12  13
HETATM   13  C   UNL     1      26.937  38.005  47.394  1.00  0.00     0.231 C 
HETATM   14  N   UNL     1      28.121  38.360  46.771  1.00  0.00    -0.325 N 
HETATM   15  H   UNL     1      28.561  39.223  47.068  1.00  0.00     0.169 HD
HETATM   16  O   UNL     1      26.182  37.107  47.034  1.00  0.00    -0.272 OA
BRANCH  14  17
HETATM   17  C   UNL     1      28.697  37.758  45.623  1.00  0.00     0.056 A 
HETATM   18  C   UNL     1      28.615  38.438  44.393  1.00  0.00     0.060 A 
HETATM   19 CL   UNL     1      27.866  39.995  44.287  1.00  0.00    -0.082 Cl
HETATM   20  C   UNL     1      29.129  37.873  43.222  1.00  0.00     0.026 A 
HETATM   21  C   UNL     1      29.749  36.625  43.266  1.00  0.00     0.002 A 
HETATM   22  C   UNL     1      29.865  35.955  44.482  1.00  0.00     0.002 A 
HETATM   23  C   UNL     1      29.348  36.521  45.652  1.00  0.00     0.031 A 
ENDBRANCH  14  17
ENDBRANCH  12  13
ENDBRANCH  11  12
ENDBRANCH   4  11
BRANCH   8  24
HETATM   24  C   UNL     1      25.948  44.723  51.085  1.00  0.00    -0.044 A 
HETATM   25  C   UNL     1      25.134  45.681  51.714  1.00  0.00     0.008 A 
HETATM   26  C   UNL     1      25.217  47.027  51.357  1.00  0.00     0.001 A 
HETATM   27  C   UNL     1      26.121  47.436  50.378  1.00  0.00     0.000 A 
HETATM   28  C   UNL     1      26.936  46.498  49.751  1.00  0.00     0.001 A 
HETATM   29  C   UNL     1      26.846  45.150  50.096  1.00  0.00     0.008 A 
ENDBRANCH   8  24
BRANCH   9  30
HETATM   30  C   UNL     1      27.332  43.195  53.608  1.00  0.00     0.255 C 
HETATM   31  N   UNL     1      28.445  43.994  53.672  1.00  0.00    -0.321 N 
HETATM   32  H   UNL     1      28.822  44.428  52.840  1.00  0.00     0.169 HD
HETATM   33  O   UNL     1      26.642  42.906  54.586  1.00  0.00    -0.268 OA
BRANCH  31  34
HETATM   34  C   UNL     1      29.227  44.285  54.816  1.00  0.00     0.068 A 
HETATM   35  C   UNL     1      28.916  45.462  55.531  1.00  0.00     0.095 A 
HETATM   36  C   UNL     1      29.716  45.853  56.609  1.00  0.00     0.039 A 
HETATM   37  C   UNL     1      30.823  45.086  56.974  1.00  0.00     0.003 A 
HETATM   38  C   UNL     1      31.126  43.920  56.274  1.00  0.00     0.002 A 
HETATM   39  C   UNL     1      30.329  43.517  55.201  1.00  0.00     0.032 A 
BRANCH  35  40
HETATM   40  O   UNL     1      27.809  46.147  55.090  1.00  0.00    -0.354 OA
HETATM   41  C   UNL     1      27.946  47.549  54.899  1.00  0.00     0.210 C 
ENDBRANCH  35  40
ENDBRANCH  31  34
ENDBRANCH   9  30
TORSDOF 8
ENDMDL
MODEL 5
REMARK VINA RESULT:      -9.3      3.717      5.852
REMARK  8 active torsions:
REMARK  status: ('A' for Active; 'I' for Inactive)
REMARK    1  A    between atoms: C_4  and  S_5 
REMARK    2  A    between atoms: S_5  and  C_6 
REMARK    3  A    between atoms: C_6  and  C_7 
REMARK       I    between atoms: C_7  and  N_8 
REMARK    4  A    between atoms: N_8  and  C_9 
REMARK    5  A    between atoms: C_20  and  C_21 
REMARK    6  A    between atoms: C_27  and  C_28 
REMARK       I    between atoms: C_28  and  N_29 
REMARK    7  A    between atoms: N_29  and  C_30 
REMARK    8  A    between atoms: C_31  and  O_32 
ROOT
HETATM    1  C   UNL     1      25.031  44.099  51.537  1.00  0.00     0.069 C 
HETATM    2  C   UNL     1      25.595  42.783  51.052  1.00  0.00     0.019 A 
HETATM    3  N   UNL     1      26.632  42.276  51.812  1.00  0.00    -0.353 N 
HETATM    4  C   UNL     1      27.327  41.113  51.563  1.00  0.00     0.087 A 
HETATM    5  C   UNL     1      26.955  40.340  50.519  1.00  0.00     0.055 A 
HETATM    6  C   UNL     1      27.746  39.121  50.073  1.00  0.00     0.019 C 
HETATM    7  N   UNL     1      28.402  38.110  49.703  1.00  0.00    -0.096 N 
HETATM    8  C   UNL     1      25.817  40.781  49.565  1.00  0.00     0.104 A 
HETATM    9  C   UNL     1      25.163  42.115  49.951  1.00  0.00     0.046 A 
HETATM   10  H   UNL     1      26.845  42.736  52.692  1.00  0.00     0.166 HD
ENDROOT
BRANCH   4  11
HETATM   11  S   UNL     1      28.647  40.690  52.626  1.00  0.00    -0.102 SA
BRANCH  11  12
HETATM   12  C   UNL     1      29.531  42.253  52.904  1.00  0.00     0.184 C 
BRANCH  12  13
HETATM   13  C   UNL     1      29.109  43.039  54.131  1.00  0.00     0.231 C 
HETATM   14  N   UNL     1      30.156  43.669  54.781  1.00  0.00    -0.325 N 
HETATM   15  H   UNL     1      31.097  43.416  54.499  1.00  0.00     0.169 HD
HETATM   16  O   UNL     1      27.930  43.082  54.469  1.00  0.00    -0.272 OA
BRANCH  14  17
HETATM   17  C   UNL     1      30.078  44.489  55.936  1.00  0.00     0.056 A 
HETATM   18  C   UNL     1      30.957  44.233  57.004  1.00  0.00     0.060 A 
HETATM   19 CL   UNL     1      32.140  42.973  56.899  1.00  0.00    -0.082 Cl
HETATM   20  C   UNL     1      30.895  44.981  58.184  1.00  0.00     0.026 A 
HETATM   21  C   UNL     1      29.963  46.011  58.305  1.00  0.00     0.002 A 
HETATM   22  C   UNL     1      29.108  46.296  57.244  1.00  0.00     0.002 A 
HETATM   23  C   UNL     1      29.170  45.543  56.066  1.00  0.00     0.031 A 
ENDBRANCH  14  17
ENDBRANCH  12  13
ENDBRANCH  11  12
ENDBRANCH   4  11
BRANCH   8  24
HETATM   24  C   UNL     1      26.333  40.730  48.124  1.00  0.00    -0.044 A 
HETATM   25  C   UNL     1      25.553  40.128  47.121  1.00  0.00     0.008 A 
HETATM   26  C   UNL     1      26.038  40.014  45.817  1.00  0.00     0.001 A 
HETATM   27  C   UNL     1      27.300  40.509  45.496  1.00  0.00     0.000 A 
HETATM   28  C   UNL     1      28.081  41.111  46.479  1.00  0.00     0.001 A 
HETATM   29  C   UNL     1      27.605  41.215  47.785  1.00  0.00     0.008 A 
ENDBRANCH   8  24
BRANCH   9  30
HETATM   30  C   UNL     1      23.951  42.655  49.238  1.00  0.00     0.255 C 
HETATM   31  N   UNL     1      24.170  43.633  48.301  1.00  0.00    -0.321 N 
HETATM   32  H   UNL     1      25.091  43.783  47.910  1.00  0.00     0.169 HD
HETATM   33  O   UNL     1      22.838  42.208  49.510  1.00  0.00    -0.268 OA
BRANCH  31  34
HETATM   34  C   UNL     1      23.228  44.564  47.797  1.00  0.00     0.068 A 
HETATM   35  C   UNL     1      23.208  45.847  48.385  1.00  0.00     0.095 A 
HETATM   36  C   UNL     1      22.235  46.773  47.998  1.00  0.00     0.039 A 
HETATM   37  C   UNL     1      21.283  46.429  47.037  1.00  0.00     0.003 A 
HETATM   38  C   UNL     1      21.308  45.166  46.451  1.00  0.00     0.002 A 
HETATM   39  C   UNL     1      22.280  44.236  46.824  1.00  0.00     0.032 A 
BRANCH  35  40
HETATM   40  O   UNL     1      24.186  46.084  49.321  1.00  0.00    -0.354 OA
HETATM   41  C   UNL     1      24.246  47.390  49.879  1.00  0.00     0.210 C 
ENDBRANCH  35  40
ENDBRANCH  31  34
ENDBRANCH   9  30
TORSDOF 8
ENDMDL
MODEL 6
REMARK VINA RESULT:      -9.3      1.861      2.211
REMARK  8 active torsions:
REMARK  status: ('A' for Active; 'I' for Inactive)
REMARK    1  A    between atoms: C_4  and  S_5 
REMARK    2  A    between atoms: S_5  and  C_6 
REMARK    3  A    between atoms: C_6  and  C_7 
REMARK       I    between atoms: C_7  and  N_8 
REMARK    4  A    between atoms: N_8  and  C_9 
REMARK    5  A    between atoms: C_20  and  C_21 
REMARK    6  A    between atoms: C_27  and  C_28 
REMARK       I    between atoms: C_28  and  N_29 
REMARK    7  A    between atoms: N_29  and  C_30 
REMARK    8  A    between atoms: C_31  and  O_32 
ROOT
HETATM    1  C   UNL     1      24.701  47.311  50.010  1.00  0.00     0.069 C 
HETATM    2  C   UNL     1      23.936  46.212  49.309  1.00  0.00     0.019 A 
HETATM    3  N   UNL     1      24.436  44.938  49.500  1.00  0.00    -0.353 N 
HETATM    4  C   UNL     1      23.935  43.779  48.950  1.00  0.00     0.087 A 
HETATM    5  C   UNL     1      22.820  43.845  48.190  1.00  0.00     0.055 A 
HETATM    6  C   UNL     1      22.276  42.652  47.420  1.00  0.00     0.019 C 
HETATM    7  N   UNL     1      21.824  41.664  46.781  1.00  0.00    -0.096 N 
HETATM    8  C   UNL     1      22.150  45.205  47.873  1.00  0.00     0.104 A 
HETATM    9  C   UNL     1      22.842  46.408  48.527  1.00  0.00     0.046 A 
HETATM   10  H   UNL     1      25.175  44.816  50.187  1.00  0.00     0.166 HD
ENDROOT
BRANCH   4  11
HETATM   11  S   UNL     1      24.764  42.277  49.279  1.00  0.00    -0.102 SA
BRANCH  11  12
HETATM   12  C   UNL     1      26.509  42.747  49.462  1.00  0.00     0.184 C 
BRANCH  12  13
HETATM   13  C   UNL     1      27.120  42.497  50.829  1.00  0.00     0.231 C 
HETATM   14  N   UNL     1      27.879  43.550  51.306  1.00  0.00    -0.325 N 
HETATM   15  H   UNL     1      28.101  44.294  50.654  1.00  0.00     0.169 HD
HETATM   16  O   UNL     1      26.920  41.437  51.416  1.00  0.00    -0.272 OA
BRANCH  14  17
HETATM   17  C   UNL     1      28.553  43.624  52.551  1.00  0.00     0.056 A 
HETATM   18  C   UNL     1      28.019  44.448  53.559  1.00  0.00     0.060 A 
HETATM   19 CL   UNL     1      26.545  45.321  53.305  1.00  0.00    -0.082 Cl
HETATM   20  C   UNL     1      28.666  44.592  54.791  1.00  0.00     0.026 A 
HETATM   21  C   UNL     1      29.849  43.898  55.039  1.00  0.00     0.002 A 
HETATM   22  C   UNL     1      30.373  43.056  54.062  1.00  0.00     0.002 A 
HETATM   23  C   UNL     1      29.726  42.916  52.830  1.00  0.00     0.031 A 
ENDBRANCH  14  17
ENDBRANCH  12  13
ENDBRANCH  11  12
ENDBRANCH   4  11
BRANCH   8  24
HETATM   24  C   UNL     1      21.978  45.329  46.356  1.00  0.00    -0.044 A 
HETATM   25  C   UNL     1      20.796  45.877  45.826  1.00  0.00     0.008 A 
HETATM   26  C   UNL     1      20.597  45.934  44.446  1.00  0.00     0.001 A 
HETATM   27  C   UNL     1      21.579  45.459  43.578  1.00  0.00     0.000 A 
HETATM   28  C   UNL     1      22.756  44.919  44.090  1.00  0.00     0.001 A 
HETATM   29  C   UNL     1      22.952  44.848  45.468  1.00  0.00     0.008 A 
ENDBRANCH   8  24
BRANCH   9  30
HETATM   30  C   UNL     1      22.274  47.801  48.458  1.00  0.00     0.255 C 
HETATM   31  N   UNL     1      21.364  48.146  49.425  1.00  0.00    -0.321 N 
HETATM   32  H   UNL     1      21.288  47.614  50.281  1.00  0.00     0.169 HD
HETATM   33  O   UNL     1      22.642  48.563  47.564  1.00  0.00    -0.268 OA
BRANCH  31  34
HETATM   34  C   UNL     1      20.410  49.192  49.371  1.00  0.00     0.068 A 
HETATM   35  C   UNL     1      19.104  48.857  48.953  1.00  0.00     0.095 A 
HETATM   36  C   UNL     1      18.149  49.864  48.784  1.00  0.00     0.039 A 
HETATM   37  C   UNL     1      18.486  51.197  49.022  1.00  0.00     0.003 A 
HETATM   38  C   UNL     1      19.772  51.527  49.442  1.00  0.00     0.002 A 
HETATM   39  C   UNL     1      20.732  50.529  49.621  1.00  0.00     0.032 A 
BRANCH  35  40
HETATM   40  O   UNL     1      18.876  47.518  48.743  1.00  0.00    -0.354 OA
HETATM   41  C   UNL     1      17.523  47.107  48.592  1.00  0.00     0.210 C 
ENDBRANCH  35  40
ENDBRANCH  31  34
ENDBRANCH   9  30
TORSDOF 8
ENDMDL
MODEL 7
REMARK VINA RESULT:      -9.1      4.062      6.407
REMARK  8 active torsions:
REMARK  status: ('A' for Active; 'I' for Inactive)
REMARK    1  A    between atoms: C_4  and  S_5 
REMARK    2  A    between atoms: S_5  and  C_6 
REMARK    3  A    between atoms: C_6  and  C_7 
REMARK       I    between atoms: C_7  and  N_8 
REMARK    4  A    between atoms: N_8  and  C_9 
REMARK    5  A    between atoms: C_20  and  C_21 
REMARK    6  A    between atoms: C_27  and  C_28 
REMARK       I    between atoms: C_28  and  N_29 
REMARK    7  A    between atoms: N_29  and  C_30 
REMARK    8  A    between atoms: C_31  and  O_32 
ROOT
HETATM    1  C   UNL     1      24.959  43.775  50.896  1.00  0.00     0.069 C 
HETATM    2  C   UNL     1      25.590  42.459  50.501  1.00  0.00     0.019 A 
HETATM    3  N   UNL     1      26.623  42.038  51.316  1.00  0.00    -0.353 N 
HETATM    4  C   UNL     1      27.371  40.893  51.152  1.00  0.00     0.087 A 
HETATM    5  C   UNL     1      27.062  40.049  50.143  1.00  0.00     0.055 A 
HETATM    6  C   UNL     1      27.914  38.841  49.789  1.00  0.00     0.019 C 
HETATM    7  N   UNL     1      28.620  37.840  49.494  1.00  0.00    -0.096 N 
HETATM    8  C   UNL     1      25.936  40.390  49.135  1.00  0.00     0.104 A 
HETATM    9  C   UNL     1      25.218  41.714  49.427  1.00  0.00     0.046 A 
HETATM   10  H   UNL     1      26.790  42.554  52.175  1.00  0.00     0.166 HD
ENDROOT
BRANCH   4  11
HETATM   11  S   UNL     1      28.674  40.585  52.273  1.00  0.00    -0.102 SA
BRANCH  11  12
HETATM   12  C   UNL     1      29.403  42.218  52.590  1.00  0.00     0.184 C 
BRANCH  12  13
HETATM   13  C   UNL     1      29.230  42.756  53.999  1.00  0.00     0.231 C 
HETATM   14  N   UNL     1      30.336  43.432  54.481  1.00  0.00    -0.325 N 
HETATM   15  H   UNL     1      31.194  43.359  53.947  1.00  0.00     0.169 HD
HETATM   16  O   UNL     1      28.178  42.581  54.607  1.00  0.00    -0.272 OA
BRANCH  14  17
HETATM   17  C   UNL     1      30.470  44.061  55.745  1.00  0.00     0.056 A 
HETATM   18  C   UNL     1      29.739  45.237  55.994  1.00  0.00     0.060 A 
HETATM   19 CL   UNL     1      28.662  45.883  54.802  1.00  0.00    -0.082 Cl
HETATM   20  C   UNL     1      29.866  45.922  57.206  1.00  0.00     0.026 A 
HETATM   21  C   UNL     1      30.714  45.431  58.197  1.00  0.00     0.002 A 
HETATM   22  C   UNL     1      31.421  44.251  57.977  1.00  0.00     0.002 A 
HETATM   23  C   UNL     1      31.295  43.569  56.762  1.00  0.00     0.031 A 
ENDBRANCH  14  17
ENDBRANCH  12  13
ENDBRANCH  11  12
ENDBRANCH   4  11
BRANCH   8  24
HETATM   24  C   UNL     1      26.497  40.281  47.714  1.00  0.00    -0.044 A 
HETATM   25  C   UNL     1      25.967  39.333  46.821  1.00  0.00     0.008 A 
HETATM   26  C   UNL     1      26.512  39.176  45.546  1.00  0.00     0.001 A 
HETATM   27  C   UNL     1      27.583  39.971  45.142  1.00  0.00     0.000 A 
HETATM   28  C   UNL     1      28.113  40.917  46.014  1.00  0.00     0.001 A 
HETATM   29  C   UNL     1      27.580  41.067  47.293  1.00  0.00     0.008 A 
ENDBRANCH   8  24
BRANCH   9  30
HETATM   30  C   UNL     1      24.008  42.164  48.651  1.00  0.00     0.255 C 
HETATM   31  N   UNL     1      24.219  43.077  47.650  1.00  0.00    -0.321 N 
HETATM   32  H   UNL     1      25.144  43.227  47.269  1.00  0.00     0.169 HD
HETATM   33  O   UNL     1      22.902  41.704  48.933  1.00  0.00    -0.268 OA
BRANCH  31  34
HETATM   34  C   UNL     1      23.262  43.940  47.060  1.00  0.00     0.068 A 
HETATM   35  C   UNL     1      23.001  43.771  45.683  1.00  0.00     0.095 A 
HETATM   36  C   UNL     1      22.143  44.657  45.025  1.00  0.00     0.039 A 
HETATM   37  C   UNL     1      21.549  45.707  45.725  1.00  0.00     0.003 A 
HETATM   38  C   UNL     1      21.800  45.869  47.086  1.00  0.00     0.002 A 
HETATM   39  C   UNL     1      22.650  44.986  47.754  1.00  0.00     0.032 A 
BRANCH  35  40
HETATM   40  O   UNL     1      23.637  42.708  45.086  1.00  0.00    -0.354 OA
HETATM   41  C   UNL     1      24.123  42.902  43.764  1.00  0.00     0.210 C 
ENDBRANCH  35  40
ENDBRANCH  31  34
ENDBRANCH   9  30
TORSDOF 8
ENDMDL
MODEL 8
REMARK VINA RESULT:      -9.1      3.101      5.289
REMARK  8 active torsions:
REMARK  status: ('A' for Active; 'I' for Inactive)
REMARK    1  A    between atoms: C_4  and  S_5 
REMARK    2  A    between atoms: S_5  and  C_6 
REMARK    3  A    between atoms: C_6  and  C_7 
REMARK       I    between atoms: C_7  and  N_8 
REMARK    4  A    between atoms: N_8  and  C_9 
REMARK    5  A    between atoms: C_20  and  C_21 
REMARK    6  A    between atoms: C_27  and  C_28 
REMARK       I    between atoms: C_28  and  N_29 
REMARK    7  A    between atoms: N_29  and  C_30 
REMARK    8  A    between atoms: C_31  and  O_32 
ROOT
HETATM    1  C   UNL     1      19.797  44.953  48.416  1.00  0.00     0.069 C 
HETATM    2  C   UNL     1      20.504  46.288  48.345  1.00  0.00     0.019 A 
HETATM    3  N   UNL     1      21.777  46.303  48.881  1.00  0.00    -0.353 N 
HETATM    4  C   UNL     1      22.611  47.398  48.960  1.00  0.00     0.087 A 
HETATM    5  C   UNL     1      22.203  48.570  48.426  1.00  0.00     0.055 A 
HETATM    6  C   UNL     1      22.981  49.865  48.591  1.00  0.00     0.019 C 
HETATM    7  N   UNL     1      23.625  50.940  48.728  1.00  0.00    -0.096 N 
HETATM    8  C   UNL     1      20.793  48.713  47.800  1.00  0.00     0.104 A 
HETATM    9  C   UNL     1      19.969  47.419  47.818  1.00  0.00     0.046 A 
HETATM   10  H   UNL     1      22.190  45.415  49.152  1.00  0.00     0.166 HD
ENDROOT
BRANCH   4  11
HETATM   11  S   UNL     1      24.164  47.205  49.736  1.00  0.00    -0.102 SA
BRANCH  11  12
HETATM   12  C   UNL     1      24.307  45.419  50.038  1.00  0.00     0.184 C 
BRANCH  12  13
HETATM   13  C   UNL     1      24.871  45.022  51.390  1.00  0.00     0.231 C 
HETATM   14  N   UNL     1      26.178  45.427  51.594  1.00  0.00    -0.325 N 
HETATM   15  H   UNL     1      26.685  45.780  50.790  1.00  0.00     0.169 HD
HETATM   16  O   UNL     1      24.181  44.403  52.195  1.00  0.00    -0.272 OA
BRANCH  14  17
HETATM   17  C   UNL     1      26.965  45.225  52.756  1.00  0.00     0.056 A 
HETATM   18  C   UNL     1      26.855  46.147  53.813  1.00  0.00     0.060 A 
HETATM   19 CL   UNL     1      25.750  47.478  53.720  1.00  0.00    -0.082 Cl
HETATM   20  C   UNL     1      27.638  46.022  54.965  1.00  0.00     0.026 A 
HETATM   21  C   UNL     1      28.533  44.959  55.084  1.00  0.00     0.002 A 
HETATM   22  C   UNL     1      28.630  44.021  54.059  1.00  0.00     0.002 A 
HETATM   23  C   UNL     1      27.847  44.151  52.906  1.00  0.00     0.031 A 
ENDBRANCH  14  17
ENDBRANCH  12  13
ENDBRANCH  11  12
ENDBRANCH   4  11
BRANCH   8  24
HETATM   24  C   UNL     1      20.089  49.914  48.440  1.00  0.00    -0.044 A 
HETATM   25  C   UNL     1      19.513  49.791  49.716  1.00  0.00     0.008 A 
HETATM   26  C   UNL     1      18.811  50.855  50.284  1.00  0.00     0.001 A 
HETATM   27  C   UNL     1      18.685  52.057  49.590  1.00  0.00     0.000 A 
HETATM   28  C   UNL     1      19.255  52.194  48.328  1.00  0.00     0.001 A 
HETATM   29  C   UNL     1      19.946  51.129  47.752  1.00  0.00     0.008 A 
ENDBRANCH   8  24
BRANCH   9  30
HETATM   30  C   UNL     1      18.629  47.307  47.139  1.00  0.00     0.255 C 
HETATM   31  N   UNL     1      18.638  47.103  45.782  1.00  0.00    -0.321 N 
HETATM   32  H   UNL     1      19.469  46.769  45.312  1.00  0.00     0.169 HD
HETATM   33  O   UNL     1      17.600  47.395  47.809  1.00  0.00    -0.268 OA
BRANCH  31  34
HETATM   34  C   UNL     1      17.584  47.355  44.870  1.00  0.00     0.068 A 
HETATM   35  C   UNL     1      17.426  48.682  44.415  1.00  0.00     0.095 A 
HETATM   36  C   UNL     1      16.343  49.009  43.594  1.00  0.00     0.039 A 
HETATM   37  C   UNL     1      15.419  48.030  43.227  1.00  0.00     0.003 A 
HETATM   38  C   UNL     1      15.580  46.718  43.669  1.00  0.00     0.002 A 
HETATM   39  C   UNL     1      16.661  46.379  44.484  1.00  0.00     0.032 A 
BRANCH  35  40
HETATM   40  O   UNL     1      18.387  49.570  44.834  1.00  0.00    -0.354 OA
HETATM   41  C   UNL     1      18.435  50.831  44.179  1.00  0.00     0.210 C 
ENDBRANCH  35  40
ENDBRANCH  31  34
ENDBRANCH   9  30
TORSDOF 8
ENDMDL
MODEL 9
REMARK VINA RESULT:      -8.9      3.362      5.634
REMARK  8 active torsions:
REMARK  status: ('A' for Active; 'I' for Inactive)
REMARK    1  A    between atoms: C_4  and  S_5 
REMARK    2  A    between atoms: S_5  and  C_6 
REMARK    3  A    between atoms: C_6  and  C_7 
REMARK       I    between atoms: C_7  and  N_8 
REMARK    4  A    between atoms: N_8  and  C_9 
REMARK    5  A    between atoms: C_20  and  C_21 
REMARK    6  A    between atoms: C_27  and  C_28 
REMARK       I    between atoms: C_28  and  N_29 
REMARK    7  A    between atoms: N_29  and  C_30 
REMARK    8  A    between atoms: C_31  and  O_32 
ROOT
HETATM    1  C   UNL     1      19.581  45.172  48.398  1.00  0.00     0.069 C 
HETATM    2  C   UNL     1      20.274  46.511  48.285  1.00  0.00     0.019 A 
HETATM    3  N   UNL     1      21.554  46.552  48.804  1.00  0.00    -0.353 N 
HETATM    4  C   UNL     1      22.378  47.655  48.845  1.00  0.00     0.087 A 
HETATM    5  C   UNL     1      21.952  48.810  48.289  1.00  0.00     0.055 A 
HETATM    6  C   UNL     1      22.719  50.117  48.412  1.00  0.00     0.019 C 
HETATM    7  N   UNL     1      23.355  51.200  48.515  1.00  0.00    -0.096 N 
HETATM    8  C   UNL     1      20.532  48.926  47.680  1.00  0.00     0.104 A 
HETATM    9  C   UNL     1      19.721  47.625  47.739  1.00  0.00     0.046 A 
HETATM   10  H   UNL     1      21.979  45.674  49.089  1.00  0.00     0.166 HD
ENDROOT
BRANCH   4  11
HETATM   11  S   UNL     1      23.944  47.495  49.603  1.00  0.00    -0.102 SA
BRANCH  11  12
HETATM   12  C   UNL     1      24.156  45.707  49.844  1.00  0.00     0.184 C 
BRANCH  12  13
HETATM   13  C   UNL     1      24.696  45.283  51.198  1.00  0.00     0.231 C 
HETATM   14  N   UNL     1      25.923  45.840  51.511  1.00  0.00    -0.325 N 
HETATM   15  H   UNL     1      26.420  46.318  50.768  1.00  0.00     0.169 HD
HETATM   16  O   UNL     1      24.055  44.518  51.911  1.00  0.00    -0.272 OA
BRANCH  14  17
HETATM   17  C   UNL     1      26.667  45.653  52.704  1.00  0.00     0.056 A 
HETATM   18  C   UNL     1      27.518  44.536  52.801  1.00  0.00     0.060 A 
HETATM   19 CL   UNL     1      27.688  43.433  51.477  1.00  0.00    -0.082 Cl
HETATM   20  C   UNL     1      28.242  44.280  53.969  1.00  0.00     0.026 A 
HETATM   21  C   UNL     1      28.141  45.150  55.054  1.00  0.00     0.002 A 
HETATM   22  C   UNL     1      27.327  46.276  54.961  1.00  0.00     0.002 A 
HETATM   23  C   UNL     1      26.601  46.528  53.793  1.00  0.00     0.031 A 
ENDBRANCH  14  17
ENDBRANCH  12  13
ENDBRANCH  11  12
ENDBRANCH   4  11
BRANCH   8  24
HETATM   24  C   UNL     1      19.825  50.135  48.301  1.00  0.00    -0.044 A 
HETATM   25  C   UNL     1      19.339  50.063  49.618  1.00  0.00     0.008 A 
HETATM   26  C   UNL     1      18.634  51.132  50.174  1.00  0.00     0.001 A 
HETATM   27  C   UNL     1      18.417  52.288  49.428  1.00  0.00     0.000 A 
HETATM   28  C   UNL     1      18.898  52.374  48.124  1.00  0.00     0.001 A 
HETATM   29  C   UNL     1      19.591  51.304  47.561  1.00  0.00     0.008 A 
ENDBRANCH   8  24
BRANCH   9  30
HETATM   30  C   UNL     1      18.373  47.484  47.082  1.00  0.00     0.255 C 
HETATM   31  N   UNL     1      18.365  47.253  45.730  1.00  0.00    -0.321 N 
HETATM   32  H   UNL     1      19.193  46.920  45.255  1.00  0.00     0.169 HD
HETATM   33  O   UNL     1      17.353  47.574  47.765  1.00  0.00    -0.268 OA
BRANCH  31  34
HETATM   34  C   UNL     1      17.296  47.475  44.828  1.00  0.00     0.068 A 
HETATM   35  C   UNL     1      16.811  46.360  44.111  1.00  0.00     0.095 A 
HETATM   36  C   UNL     1      15.826  46.536  43.135  1.00  0.00     0.039 A 
HETATM   37  C   UNL     1      15.326  47.810  42.866  1.00  0.00     0.003 A 
HETATM   38  C   UNL     1      15.797  48.910  43.579  1.00  0.00     0.002 A 
HETATM   39  C   UNL     1      16.775  48.745  44.561  1.00  0.00     0.032 A 
BRANCH  35  40
HETATM   40  O   UNL     1      17.371  45.151  44.449  1.00  0.00    -0.354 OA
HETATM   41  C   UNL     1      16.480  44.079  44.729  1.00  0.00     0.210 C 
ENDBRANCH  35  40
ENDBRANCH  31  34
ENDBRANCH   9  30
TORSDOF 8
ENDMDL
MODEL 10
REMARK VINA RESULT:      -8.7      3.110      4.816
REMARK  8 active torsions:
REMARK  status: ('A' for Active; 'I' for Inactive)
REMARK    1  A    between atoms: C_4  and  S_5 
REMARK    2  A    between atoms: S_5  and  C_6 
REMARK    3  A    between atoms: C_6  and  C_7 
REMARK       I    between atoms: C_7  and  N_8 
REMARK    4  A    between atoms: N_8  and  C_9 
REMARK    5  A    between atoms: C_20  and  C_21 
REMARK    6  A    between atoms: C_27  and  C_28 
REMARK       I    between atoms: C_28  and  N_29 
REMARK    7  A    between atoms: N_29  and  C_30 
REMARK    8  A    between atoms: C_31  and  O_32 
ROOT
HETATM    1  C   UNL     1      19.585  44.187  46.887  1.00  0.00     0.069 C 
HETATM    2  C   UNL     1      20.661  45.123  47.389  1.00  0.00     0.019 A 
HETATM    3  N   UNL     1      21.542  44.568  48.297  1.00  0.00    -0.353 N 
HETATM    4  C   UNL     1      22.587  45.219  48.916  1.00  0.00     0.087 A 
HETATM    5  C   UNL     1      22.840  46.505  48.591  1.00  0.00     0.055 A 
HETATM    6  C   UNL     1      23.869  47.353  49.320  1.00  0.00     0.019 C 
HETATM    7  N   UNL     1      24.723  48.056  49.925  1.00  0.00    -0.096 N 
HETATM    8  C   UNL     1      21.931  47.270  47.596  1.00  0.00     0.104 A 
HETATM    9  C   UNL     1      20.789  46.424  47.018  1.00  0.00     0.046 A 
HETATM   10  H   UNL     1      21.492  43.566  48.456  1.00  0.00     0.166 HD
ENDROOT
BRANCH   4  11
HETATM   11  S   UNL     1      23.542  44.336  50.082  1.00  0.00    -0.102 SA
BRANCH  11  12
HETATM   12  C   UNL     1      25.071  43.914  49.197  1.00  0.00     0.184 C 
BRANCH  12  13
HETATM   13  C   UNL     1      26.358  44.103  49.978  1.00  0.00     0.231 C 
HETATM   14  N   UNL     1      26.394  43.411  51.176  1.00  0.00    -0.325 N 
HETATM   15  H   UNL     1      25.526  43.000  51.501  1.00  0.00     0.169 HD
HETATM   16  O   UNL     1      27.257  44.813  49.537  1.00  0.00    -0.272 OA
BRANCH  14  17
HETATM   17  C   UNL     1      27.461  43.371  52.110  1.00  0.00     0.056 A 
HETATM   18  C   UNL     1      28.381  42.309  52.037  1.00  0.00     0.060 A 
HETATM   19 CL   UNL     1      28.244  41.097  50.807  1.00  0.00    -0.082 Cl
HETATM   20  C   UNL     1      29.427  42.196  52.959  1.00  0.00     0.026 A 
HETATM   21  C   UNL     1      29.578  43.156  53.958  1.00  0.00     0.002 A 
HETATM   22  C   UNL     1      28.694  44.229  54.023  1.00  0.00     0.002 A 
HETATM   23  C   UNL     1      27.646  44.338  53.102  1.00  0.00     0.031 A 
ENDBRANCH  14  17
ENDBRANCH  12  13
ENDBRANCH  11  12
ENDBRANCH   4  11
BRANCH   8  24
HETATM   24  C   UNL     1      21.473  48.577  48.251  1.00  0.00    -0.044 A 
HETATM   25  C   UNL     1      20.504  48.550  49.269  1.00  0.00     0.008 A 
HETATM   26  C   UNL     1      20.028  49.737  49.828  1.00  0.00     0.001 A 
HETATM   27  C   UNL     1      20.521  50.963  49.387  1.00  0.00     0.000 A 
HETATM   28  C   UNL     1      21.484  51.004  48.383  1.00  0.00     0.001 A 
HETATM   29  C   UNL     1      21.952  49.821  47.813  1.00  0.00     0.008 A 
ENDBRANCH   8  24
BRANCH   9  30
HETATM   30  C   UNL     1      19.876  46.933  45.934  1.00  0.00     0.255 C 
HETATM   31  N   UNL     1      18.769  47.636  46.337  1.00  0.00    -0.321 N 
HETATM   32  H   UNL     1      18.713  48.030  47.267  1.00  0.00     0.169 HD
HETATM   33  O   UNL     1      20.151  46.712  44.755  1.00  0.00    -0.268 OA
BRANCH  31  34
HETATM   34  C   UNL     1      17.584  47.869  45.597  1.00  0.00     0.068 A 
HETATM   35  C   UNL     1      17.365  49.179  45.121  1.00  0.00     0.095 A 
HETATM   36  C   UNL     1      16.167  49.491  44.471  1.00  0.00     0.039 A 
HETATM   37  C   UNL     1      15.188  48.512  44.298  1.00  0.00     0.003 A 
HETATM   38  C   UNL     1      15.407  47.216  44.761  1.00  0.00     0.002 A 
HETATM   39  C   UNL     1      16.603  46.892  45.404  1.00  0.00     0.032 A 
BRANCH  35  40
HETATM   40  O   UNL     1      18.389  50.069  45.343  1.00  0.00    -0.354 OA
HETATM   41  C   UNL     1      18.126  51.154  46.223  1.00  0.00     0.210 C 
ENDBRANCH  35  40
ENDBRANCH  31  34
ENDBRANCH   9  30
TORSDOF 8
ENDMDL
