MODEL 1
REMARK VINA RESULT:      -9.3      0.000      0.000
REMARK  9 active torsions:
REMARK  status: ('A' for Active; 'I' for Inactive)
REMARK    1  A    between atoms: C_2  and  N_3 
REMARK    2  A    between atoms: C_4  and  S_5 
REMARK    3  A    between atoms: S_5  and  C_6 
REMARK    4  A    between atoms: C_6  and  C_7 
REMARK       I    between atoms: C_7  and  N_8 
REMARK    5  A    between atoms: N_8  and  C_9 
REMARK    6  A    between atoms: C_11  and  O_12 
REMARK    7  A    between atoms: C_19  and  C_20 
REMARK    8  A    between atoms: C_23  and  S_24 
REMARK    9  A    between atoms: S_24  and  N_25 
ROOT
HETATM    1  N   UNL     1      25.962  43.749  51.013  1.00  0.00    -0.308 N 
HETATM    2  C   UNL     1      26.756  42.687  50.670  1.00  0.00     0.192 A 
HETATM    3  N   UNL     1      27.433  42.959  49.585  1.00  0.00    -0.122 NA
HETATM    4  N   UNL     1      27.019  44.184  49.144  1.00  0.00    -0.128 NA
HETATM    5  C   UNL     1      26.115  44.661  49.983  1.00  0.00     0.164 A 
ENDROOT
BRANCH   5   6
HETATM    6  C   UNL     1      25.366  45.896  49.734  1.00  0.00     0.012 A 
HETATM    7  C   UNL     1      24.032  45.779  49.306  1.00  0.00     0.017 A 
HETATM    8  C   UNL     1      23.265  46.906  49.008  1.00  0.00     0.026 A 
HETATM    9  C   UNL     1      23.829  48.173  49.153  1.00  0.00     0.074 A 
HETATM   10  C   UNL     1      25.161  48.314  49.553  1.00  0.00     0.026 A 
HETATM   11  C   UNL     1      25.927  47.176  49.835  1.00  0.00     0.017 A 
BRANCH   9  12
HETATM   12  S   UNL     1      22.886  49.608  48.732  1.00  0.00     0.243 S 
HETATM   13  O   UNL     1      23.059  50.598  49.768  1.00  0.00    -0.206 OA
HETATM   14  O   UNL     1      23.106  49.939  47.340  1.00  0.00    -0.206 OA
BRANCH  12  15
HETATM   15  N   UNL     1      21.261  49.061  48.823  1.00  0.00    -0.203 NA
HETATM   16  C   UNL     1      20.451  49.162  47.568  1.00  0.00     0.135 C 
HETATM   17  C   UNL     1      19.945  50.593  47.287  1.00  0.00     0.250 C 
HETATM   18  N   UNL     1      19.239  51.181  48.507  1.00  0.00    -0.073 N 
HETATM   19  H   UNL     1      18.386  50.629  48.664  1.00  0.00     0.279 HD
HETATM   20  C   UNL     1      18.810  52.601  48.258  1.00  0.00     0.269 C 
HETATM   21  C   UNL     1      20.089  51.072  49.773  1.00  0.00     0.250 C 
HETATM   22  C   UNL     1      20.511  49.611  49.999  1.00  0.00     0.135 C 
ENDBRANCH  12  15
ENDBRANCH   9  12
ENDBRANCH   5   6
BRANCH   1  23
HETATM   23  C   UNL     1      25.095  43.844  52.168  1.00  0.00     0.128 C 
HETATM   24  C   UNL     1      25.637  44.792  53.226  1.00  0.00     0.027 C 
ENDBRANCH   1  23
BRANCH   2  25
HETATM   25  S   UNL     1      26.842  41.172  51.490  1.00  0.00    -0.081 SA
BRANCH  25  26
HETATM   26  C   UNL     1      28.459  41.292  52.304  1.00  0.00     0.185 C 
BRANCH  26  27
HETATM   27  C   UNL     1      28.506  42.070  53.613  1.00  0.00     0.231 C 
HETATM   28  N   UNL     1      29.666  42.783  53.835  1.00  0.00    -0.326 N 
HETATM   29  H   UNL     1      30.464  42.520  53.261  1.00  0.00     0.169 HD
HETATM   30  O   UNL     1      27.515  42.065  54.344  1.00  0.00    -0.272 OA
BRANCH  28  31
HETATM   31  C   UNL     1      29.959  43.634  54.921  1.00  0.00     0.037 A 
HETATM   32  C   UNL     1      30.878  43.326  55.926  1.00  0.00     0.066 A 
HETATM   33  C   UNL     1      31.101  44.234  56.962  1.00  0.00     0.067 A 
HETATM   34  C   UNL     1      30.422  45.444  57.015  1.00  0.00     0.036 A 
HETATM   35  C   UNL     1      29.498  45.754  56.022  1.00  0.00     0.005 A 
HETATM   36  C   UNL     1      29.266  44.851  54.981  1.00  0.00     0.029 A 
BRANCH  33  37
HETATM   37  O   UNL     1      31.993  43.964  57.959  1.00  0.00    -0.361 OA
HETATM   38  H   UNL     1      31.847  43.052  58.260  1.00  0.00     0.217 HD
ENDBRANCH  33  37
ENDBRANCH  28  31
ENDBRANCH  26  27
ENDBRANCH  25  26
ENDBRANCH   2  25
TORSDOF 9
ENDMDL
MODEL 2
REMARK VINA RESULT:      -8.8      1.391      1.843
REMARK  9 active torsions:
REMARK  status: ('A' for Active; 'I' for Inactive)
REMARK    1  A    between atoms: C_2  and  N_3 
REMARK    2  A    between atoms: C_4  and  S_5 
REMARK    3  A    between atoms: S_5  and  C_6 
REMARK    4  A    between atoms: C_6  and  C_7 
REMARK       I    between atoms: C_7  and  N_8 
REMARK    5  A    between atoms: N_8  and  C_9 
REMARK    6  A    between atoms: C_11  and  O_12 
REMARK    7  A    between atoms: C_19  and  C_20 
REMARK    8  A    between atoms: C_23  and  S_24 
REMARK    9  A    between atoms: S_24  and  N_25 
ROOT
HETATM    1  N   UNL     1      25.130  44.040  50.441  1.00  0.00    -0.308 N 
HETATM    2  C   UNL     1      26.348  43.414  50.391  1.00  0.00     0.192 A 
HETATM    3  N   UNL     1      27.238  44.198  49.842  1.00  0.00    -0.122 NA
HETATM    4  N   UNL     1      26.589  45.329  49.437  1.00  0.00    -0.128 NA
HETATM    5  C   UNL     1      25.312  45.237  49.770  1.00  0.00     0.164 A 
ENDROOT
BRANCH   5   6
HETATM    6  C   UNL     1      24.306  46.220  49.362  1.00  0.00     0.012 A 
HETATM    7  C   UNL     1      24.489  47.553  49.770  1.00  0.00     0.017 A 
HETATM    8  C   UNL     1      23.554  48.541  49.456  1.00  0.00     0.026 A 
HETATM    9  C   UNL     1      22.425  48.201  48.712  1.00  0.00     0.074 A 
HETATM   10  C   UNL     1      22.209  46.878  48.317  1.00  0.00     0.026 A 
HETATM   11  C   UNL     1      23.145  45.890  48.650  1.00  0.00     0.017 A 
BRANCH   9  12
HETATM   12  S   UNL     1      21.208  49.431  48.350  1.00  0.00     0.243 S 
HETATM   13  O   UNL     1      21.878  50.674  48.050  1.00  0.00    -0.206 OA
HETATM   14  O   UNL     1      20.219  48.881  47.447  1.00  0.00    -0.206 OA
BRANCH  12  15
HETATM   15  N   UNL     1      20.394  49.645  49.847  1.00  0.00    -0.203 NA
HETATM   16  C   UNL     1      19.136  48.856  50.042  1.00  0.00     0.135 C 
HETATM   17  C   UNL     1      17.922  49.461  49.306  1.00  0.00     0.250 C 
HETATM   18  N   UNL     1      17.758  50.944  49.631  1.00  0.00    -0.073 N 
HETATM   19  H   UNL     1      17.520  51.015  50.628  1.00  0.00     0.279 HD
HETATM   20  C   UNL     1      16.620  51.550  48.857  1.00  0.00     0.269 C 
HETATM   21  C   UNL     1      19.053  51.727  49.416  1.00  0.00     0.250 C 
HETATM   22  C   UNL     1      20.197  51.084  50.219  1.00  0.00     0.135 C 
ENDBRANCH  12  15
ENDBRANCH   9  12
ENDBRANCH   5   6
BRANCH   1  23
HETATM   23  C   UNL     1      23.908  43.511  51.007  1.00  0.00     0.128 C 
HETATM   24  C   UNL     1      23.127  42.664  50.015  1.00  0.00     0.027 C 
ENDBRANCH   1  23
BRANCH   2  25
HETATM   25  S   UNL     1      26.689  41.806  50.915  1.00  0.00    -0.081 SA
BRANCH  25  26
HETATM   26  C   UNL     1      28.406  41.966  51.479  1.00  0.00     0.185 C 
BRANCH  26  27
HETATM   27  C   UNL     1      28.612  42.266  52.958  1.00  0.00     0.231 C 
HETATM   28  N   UNL     1      29.492  43.291  53.236  1.00  0.00    -0.326 N 
HETATM   29  H   UNL     1      30.110  43.564  52.475  1.00  0.00     0.169 HD
HETATM   30  O   UNL     1      27.957  41.637  53.790  1.00  0.00    -0.272 OA
BRANCH  28  31
HETATM   31  C   UNL     1      29.824  43.822  54.500  1.00  0.00     0.037 A 
HETATM   32  C   UNL     1      30.789  43.272  55.347  1.00  0.00     0.066 A 
HETATM   33  C   UNL     1      31.047  43.869  56.581  1.00  0.00     0.067 A 
HETATM   34  C   UNL     1      30.361  45.006  56.988  1.00  0.00     0.036 A 
HETATM   35  C   UNL     1      29.392  45.555  56.153  1.00  0.00     0.005 A 
HETATM   36  C   UNL     1      29.123  44.963  54.916  1.00  0.00     0.029 A 
BRANCH  33  37
HETATM   37  O   UNL     1      31.984  43.357  57.432  1.00  0.00    -0.361 OA
HETATM   38  H   UNL     1      32.865  43.574  57.082  1.00  0.00     0.217 HD
ENDBRANCH  33  37
ENDBRANCH  28  31
ENDBRANCH  26  27
ENDBRANCH  25  26
ENDBRANCH   2  25
TORSDOF 9
ENDMDL
MODEL 3
REMARK VINA RESULT:      -8.7      2.050      2.868
REMARK  9 active torsions:
REMARK  status: ('A' for Active; 'I' for Inactive)
REMARK    1  A    between atoms: C_2  and  N_3 
REMARK    2  A    between atoms: C_4  and  S_5 
REMARK    3  A    between atoms: S_5  and  C_6 
REMARK    4  A    between atoms: C_6  and  C_7 
REMARK       I    between atoms: C_7  and  N_8 
REMARK    5  A    between atoms: N_8  and  C_9 
REMARK    6  A    between atoms: C_11  and  O_12 
REMARK    7  A    between atoms: C_19  and  C_20 
REMARK    8  A    between atoms: C_23  and  S_24 
REMARK    9  A    between atoms: S_24  and  N_25 
ROOT
HETATM    1  N   UNL     1      25.402  44.014  50.455  1.00  0.00    -0.308 N 
HETATM    2  C   UNL     1      26.627  43.423  50.291  1.00  0.00     0.192 A 
HETATM    3  N   UNL     1      27.460  44.256  49.726  1.00  0.00    -0.122 NA
HETATM    4  N   UNL     1      26.760  45.389  49.424  1.00  0.00    -0.128 NA
HETATM    5  C   UNL     1      25.511  45.247  49.836  1.00  0.00     0.164 A 
ENDROOT
BRANCH   5   6
HETATM    6  C   UNL     1      24.458  46.224  49.547  1.00  0.00     0.012 A 
HETATM    7  C   UNL     1      23.360  45.797  48.779  1.00  0.00     0.017 A 
HETATM    8  C   UNL     1      22.336  46.677  48.426  1.00  0.00     0.026 A 
HETATM    9  C   UNL     1      22.397  48.002  48.857  1.00  0.00     0.074 A 
HETATM   10  C   UNL     1      23.491  48.456  49.599  1.00  0.00     0.026 A 
HETATM   11  C   UNL     1      24.521  47.568  49.935  1.00  0.00     0.017 A 
BRANCH   9  12
HETATM   12  S   UNL     1      21.133  49.141  48.376  1.00  0.00     0.243 S 
HETATM   13  O   UNL     1      21.755  50.323  47.829  1.00  0.00    -0.206 OA
HETATM   14  O   UNL     1      20.101  48.436  47.647  1.00  0.00    -0.206 OA
BRANCH  12  15
HETATM   15  N   UNL     1      20.413  49.594  49.868  1.00  0.00    -0.203 NA
HETATM   16  C   UNL     1      19.085  48.978  50.184  1.00  0.00     0.135 C 
HETATM   17  C   UNL     1      17.915  49.642  49.427  1.00  0.00     0.250 C 
HETATM   18  N   UNL     1      17.930  51.159  49.602  1.00  0.00    -0.073 N 
HETATM   19  H   UNL     1      17.745  51.356  50.593  1.00  0.00     0.279 HD
HETATM   20  C   UNL     1      16.833  51.811  48.805  1.00  0.00     0.269 C 
HETATM   21  C   UNL     1      19.294  51.763  49.266  1.00  0.00     0.250 C 
HETATM   22  C   UNL     1      20.392  51.076  50.095  1.00  0.00     0.135 C 
ENDBRANCH  12  15
ENDBRANCH   9  12
ENDBRANCH   5   6
BRANCH   1  23
HETATM   23  C   UNL     1      24.233  43.426  51.072  1.00  0.00     0.128 C 
HETATM   24  C   UNL     1      23.416  42.594  50.096  1.00  0.00     0.027 C 
ENDBRANCH   1  23
BRANCH   2  25
HETATM   25  S   UNL     1      27.038  41.800  50.707  1.00  0.00    -0.081 SA
BRANCH  25  26
HETATM   26  C   UNL     1      28.139  42.058  52.126  1.00  0.00     0.185 C 
BRANCH  26  27
HETATM   27  C   UNL     1      27.659  43.035  53.191  1.00  0.00     0.231 C 
HETATM   28  N   UNL     1      27.982  44.358  52.969  1.00  0.00    -0.326 N 
HETATM   29  H   UNL     1      28.715  44.526  52.285  1.00  0.00     0.169 HD
HETATM   30  O   UNL     1      26.982  42.609  54.128  1.00  0.00    -0.272 OA
BRANCH  28  31
HETATM   31  C   UNL     1      27.616  45.476  53.748  1.00  0.00     0.037 A 
HETATM   32  C   UNL     1      26.547  46.322  53.443  1.00  0.00     0.066 A 
HETATM   33  C   UNL     1      26.263  47.404  54.275  1.00  0.00     0.067 A 
HETATM   34  C   UNL     1      27.025  47.661  55.407  1.00  0.00     0.036 A 
HETATM   35  C   UNL     1      28.097  46.828  55.712  1.00  0.00     0.005 A 
HETATM   36  C   UNL     1      28.393  45.741  54.884  1.00  0.00     0.029 A 
BRANCH  33  37
HETATM   37  O   UNL     1      25.225  48.249  54.007  1.00  0.00    -0.361 OA
HETATM   38  H   UNL     1      25.578  49.152  53.933  1.00  0.00     0.217 HD
ENDBRANCH  33  37
ENDBRANCH  28  31
ENDBRANCH  26  27
ENDBRANCH  25  26
ENDBRANCH   2  25
TORSDOF 9
ENDMDL
MODEL 4
REMARK VINA RESULT:      -8.5      2.807      4.374
REMARK  9 active torsions:
REMARK  status: ('A' for Active; 'I' for Inactive)
REMARK    1  A    between atoms: C_2  and  N_3 
REMARK    2  A    between atoms: C_4  and  S_5 
REMARK    3  A    between atoms: S_5  and  C_6 
REMARK    4  A    between atoms: C_6  and  C_7 
REMARK       I    between atoms: C_7  and  N_8 
REMARK    5  A    between atoms: N_8  and  C_9 
REMARK    6  A    between atoms: C_11  and  O_12 
REMARK    7  A    between atoms: C_19  and  C_20 
REMARK    8  A    between atoms: C_23  and  S_24 
REMARK    9  A    between atoms: S_24  and  N_25 
ROOT
HETATM    1  N   UNL     1      23.480  46.657  49.323  1.00  0.00    -0.308 N 
HETATM    2  C   UNL     1      24.771  46.466  49.740  1.00  0.00     0.192 A 
HETATM    3  N   UNL     1      25.268  47.583  50.203  1.00  0.00    -0.122 NA
HETATM    4  N   UNL     1      24.329  48.557  50.010  1.00  0.00    -0.128 NA
HETATM    5  C   UNL     1      23.255  48.016  49.458  1.00  0.00     0.164 A 
ENDROOT
BRANCH   5   6
HETATM    6  C   UNL     1      22.112  48.806  48.993  1.00  0.00     0.012 A 
HETATM    7  C   UNL     1      22.370  50.080  48.456  1.00  0.00     0.017 A 
HETATM    8  C   UNL     1      21.332  50.910  48.030  1.00  0.00     0.026 A 
HETATM    9  C   UNL     1      20.015  50.460  48.125  1.00  0.00     0.074 A 
HETATM   10  C   UNL     1      19.732  49.208  48.678  1.00  0.00     0.026 A 
HETATM   11  C   UNL     1      20.780  48.389  49.118  1.00  0.00     0.017 A 
BRANCH   9  12
HETATM   12  S   UNL     1      18.687  51.519  47.635  1.00  0.00     0.243 S 
HETATM   13  O   UNL     1      18.924  52.840  48.168  1.00  0.00    -0.206 OA
HETATM   14  O   UNL     1      18.407  51.322  46.229  1.00  0.00    -0.206 OA
BRANCH  12  15
HETATM   15  N   UNL     1      17.331  50.875  48.468  1.00  0.00    -0.203 NA
HETATM   16  C   UNL     1      16.032  50.865  47.723  1.00  0.00     0.135 C 
HETATM   17  C   UNL     1      15.344  52.246  47.688  1.00  0.00     0.250 C 
HETATM   18  N   UNL     1      15.229  52.845  49.088  1.00  0.00    -0.073 N 
HETATM   19  H   UNL     1      14.588  52.248  49.626  1.00  0.00     0.279 HD
HETATM   20  C   UNL     1      14.624  54.221  49.045  1.00  0.00     0.269 C 
HETATM   21  C   UNL     1      16.569  52.850  49.824  1.00  0.00     0.250 C 
HETATM   22  C   UNL     1      17.160  51.431  49.850  1.00  0.00     0.135 C 
ENDBRANCH  12  15
ENDBRANCH   9  12
ENDBRANCH   5   6
BRANCH   1  23
HETATM   23  C   UNL     1      22.588  45.654  48.784  1.00  0.00     0.128 C 
HETATM   24  C   UNL     1      22.586  45.635  47.263  1.00  0.00     0.027 C 
ENDBRANCH   1  23
BRANCH   2  25
HETATM   25  S   UNL     1      25.668  44.996  49.638  1.00  0.00    -0.081 SA
BRANCH  25  26
HETATM   26  C   UNL     1      24.939  44.033  50.991  1.00  0.00     0.185 C 
BRANCH  26  27
HETATM   27  C   UNL     1      25.707  44.019  52.307  1.00  0.00     0.231 C 
HETATM   28  N   UNL     1      27.081  44.035  52.189  1.00  0.00    -0.326 N 
HETATM   29  H   UNL     1      27.451  43.788  51.274  1.00  0.00     0.169 HD
HETATM   30  O   UNL     1      25.076  44.053  53.364  1.00  0.00    -0.272 OA
BRANCH  28  31
HETATM   31  C   UNL     1      28.034  44.089  53.229  1.00  0.00     0.037 A 
HETATM   32  C   UNL     1      28.040  45.065  54.228  1.00  0.00     0.066 A 
HETATM   33  C   UNL     1      29.024  45.036  55.216  1.00  0.00     0.067 A 
HETATM   34  C   UNL     1      30.005  44.053  55.226  1.00  0.00     0.036 A 
HETATM   35  C   UNL     1      30.010  43.083  54.228  1.00  0.00     0.005 A 
HETATM   36  C   UNL     1      29.030  43.103  53.232  1.00  0.00     0.029 A 
BRANCH  33  37
HETATM   37  O   UNL     1      29.059  45.974  56.208  1.00  0.00    -0.361 OA
HETATM   38  H   UNL     1      28.678  45.582  57.011  1.00  0.00     0.217 HD
ENDBRANCH  33  37
ENDBRANCH  28  31
ENDBRANCH  26  27
ENDBRANCH  25  26
ENDBRANCH   2  25
TORSDOF 9
ENDMDL
MODEL 5
REMARK VINA RESULT:      -8.2     12.898     14.194
REMARK  9 active torsions:
REMARK  status: ('A' for Active; 'I' for Inactive)
REMARK    1  A    between atoms: C_2  and  N_3 
REMARK    2  A    between atoms: C_4  and  S_5 
REMARK    3  A    between atoms: S_5  and  C_6 
REMARK    4  A    between atoms: C_6  and  C_7 
REMARK       I    between atoms: C_7  and  N_8 
REMARK    5  A    between atoms: N_8  and  C_9 
REMARK    6  A    between atoms: C_11  and  O_12 
REMARK    7  A    between atoms: C_19  and  C_20 
REMARK    8  A    between atoms: C_23  and  S_24 
REMARK    9  A    between atoms: S_24  and  N_25 
ROOT
HETATM    1  N   UNL     1      35.335  51.406  42.180  1.00  0.00    -0.308 N 
HETATM    2  C   UNL     1      36.263  52.153  42.857  1.00  0.00     0.192 A 
HETATM    3  N   UNL     1      35.756  52.599  43.976  1.00  0.00    -0.122 NA
HETATM    4  N   UNL     1      34.444  52.223  44.007  1.00  0.00    -0.128 NA
HETATM    5  C   UNL     1      34.170  51.523  42.917  1.00  0.00     0.164 A 
ENDROOT
BRANCH   5   6
HETATM    6  C   UNL     1      32.817  51.082  42.569  1.00  0.00     0.012 A 
HETATM    7  C   UNL     1      32.515  49.716  42.713  1.00  0.00     0.017 A 
HETATM    8  C   UNL     1      31.262  49.210  42.364  1.00  0.00     0.026 A 
HETATM    9  C   UNL     1      30.287  50.080  41.876  1.00  0.00     0.074 A 
HETATM   10  C   UNL     1      30.571  51.437  41.701  1.00  0.00     0.026 A 
HETATM   11  C   UNL     1      31.837  51.932  42.040  1.00  0.00     0.017 A 
BRANCH   9  12
HETATM   12  S   UNL     1      28.711  49.447  41.384  1.00  0.00     0.243 S 
HETATM   13  O   UNL     1      28.682  48.026  41.635  1.00  0.00    -0.206 OA
HETATM   14  O   UNL     1      27.665  50.314  41.882  1.00  0.00    -0.206 OA
BRANCH  12  15
HETATM   15  N   UNL     1      28.709  49.658  39.679  1.00  0.00    -0.203 NA
HETATM   16  C   UNL     1      27.579  49.024  38.929  1.00  0.00     0.135 C 
HETATM   17  C   UNL     1      27.761  47.503  38.732  1.00  0.00     0.250 C 
HETATM   18  N   UNL     1      29.131  47.181  38.140  1.00  0.00    -0.073 N 
HETATM   19  H   UNL     1      29.156  47.571  37.190  1.00  0.00     0.279 HD
HETATM   20  C   UNL     1      29.336  45.696  38.016  1.00  0.00     0.269 C 
HETATM   21  C   UNL     1      30.267  47.833  38.928  1.00  0.00     0.250 C 
HETATM   22  C   UNL     1      30.029  49.349  39.038  1.00  0.00     0.135 C 
ENDBRANCH  12  15
ENDBRANCH   9  12
ENDBRANCH   5   6
BRANCH   1  23
HETATM   23  C   UNL     1      35.529  50.717  40.922  1.00  0.00     0.128 C 
HETATM   24  C   UNL     1      35.119  51.563  39.727  1.00  0.00     0.027 C 
ENDBRANCH   1  23
BRANCH   2  25
HETATM   25  S   UNL     1      37.861  52.521  42.321  1.00  0.00    -0.081 SA
BRANCH  25  26
HETATM   26  C   UNL     1      38.818  51.188  43.095  1.00  0.00     0.185 C 
BRANCH  26  27
HETATM   27  C   UNL     1      39.260  51.415  44.536  1.00  0.00     0.231 C 
HETATM   28  N   UNL     1      39.072  52.693  45.017  1.00  0.00    -0.326 N 
HETATM   29  H   UNL     1      38.916  53.413  44.315  1.00  0.00     0.169 HD
HETATM   30  O   UNL     1      39.689  50.459  45.183  1.00  0.00    -0.272 OA
BRANCH  28  31
HETATM   31  C   UNL     1      39.328  53.169  46.321  1.00  0.00     0.037 A 
HETATM   32  C   UNL     1      40.600  53.498  46.793  1.00  0.00     0.066 A 
HETATM   33  C   UNL     1      40.754  53.961  48.100  1.00  0.00     0.067 A 
HETATM   34  C   UNL     1      39.662  54.100  48.947  1.00  0.00     0.036 A 
HETATM   35  C   UNL     1      38.392  53.765  48.486  1.00  0.00     0.005 A 
HETATM   36  C   UNL     1      38.227  53.299  47.179  1.00  0.00     0.029 A 
BRANCH  33  37
HETATM   37  O   UNL     1      41.983  54.293  48.593  1.00  0.00    -0.361 OA
HETATM   38  H   UNL     1      42.136  53.779  49.403  1.00  0.00     0.217 HD
ENDBRANCH  33  37
ENDBRANCH  28  31
ENDBRANCH  26  27
ENDBRANCH  25  26
ENDBRANCH   2  25
TORSDOF 9
ENDMDL
MODEL 6
REMARK VINA RESULT:      -8.2      2.849      4.450
REMARK  9 active torsions:
REMARK  status: ('A' for Active; 'I' for Inactive)
REMARK    1  A    between atoms: C_2  and  N_3 
REMARK    2  A    between atoms: C_4  and  S_5 
REMARK    3  A    between atoms: S_5  and  C_6 
REMARK    4  A    between atoms: C_6  and  C_7 
REMARK       I    between atoms: C_7  and  N_8 
REMARK    5  A    between atoms: N_8  and  C_9 
REMARK    6  A    between atoms: C_11  and  O_12 
REMARK    7  A    between atoms: C_19  and  C_20 
REMARK    8  A    between atoms: C_23  and  S_24 
REMARK    9  A    between atoms: S_24  and  N_25 
ROOT
HETATM    1  N   UNL     1      23.681  47.143  49.289  1.00  0.00    -0.308 N 
HETATM    2  C   UNL     1      24.017  45.822  49.160  1.00  0.00     0.192 A 
HETATM    3  N   UNL     1      23.119  45.193  48.449  1.00  0.00    -0.122 NA
HETATM    4  N   UNL     1      22.121  46.084  48.174  1.00  0.00    -0.128 NA
HETATM    5  C   UNL     1      22.436  47.259  48.696  1.00  0.00     0.164 A 
ENDROOT
BRANCH   5   6
HETATM    6  C   UNL     1      21.520  48.402  48.702  1.00  0.00     0.012 A 
HETATM    7  C   UNL     1      20.254  48.225  49.286  1.00  0.00     0.017 A 
HETATM    8  C   UNL     1      19.309  49.253  49.295  1.00  0.00     0.026 A 
HETATM    9  C   UNL     1      19.636  50.484  48.726  1.00  0.00     0.074 A 
HETATM   10  C   UNL     1      20.879  50.676  48.118  1.00  0.00     0.026 A 
HETATM   11  C   UNL     1      21.814  49.633  48.101  1.00  0.00     0.017 A 
BRANCH   9  12
HETATM   12  S   UNL     1      18.433  51.779  48.686  1.00  0.00     0.243 S 
HETATM   13  O   UNL     1      18.292  52.324  50.015  1.00  0.00    -0.206 OA
HETATM   14  O   UNL     1      18.690  52.640  47.551  1.00  0.00    -0.206 OA
BRANCH  12  15
HETATM   15  N   UNL     1      16.971  50.958  48.318  1.00  0.00    -0.203 NA
HETATM   16  C   UNL     1      16.704  50.685  46.870  1.00  0.00     0.135 C 
HETATM   17  C   UNL     1      16.191  51.923  46.105  1.00  0.00     0.250 C 
HETATM   18  N   UNL     1      15.008  52.568  46.822  1.00  0.00    -0.073 N 
HETATM   19  H   UNL     1      14.227  51.901  46.790  1.00  0.00     0.279 HD
HETATM   20  C   UNL     1      14.555  53.816  46.115  1.00  0.00     0.269 C 
HETATM   21  C   UNL     1      15.308  52.844  48.296  1.00  0.00     0.250 C 
HETATM   22  C   UNL     1      15.768  51.551  48.990  1.00  0.00     0.135 C 
ENDBRANCH  12  15
ENDBRANCH   9  12
ENDBRANCH   5   6
BRANCH   1  23
HETATM   23  C   UNL     1      24.441  48.166  49.974  1.00  0.00     0.128 C 
HETATM   24  C   UNL     1      25.563  48.731  49.116  1.00  0.00     0.027 C 
ENDBRANCH   1  23
BRANCH   2  25
HETATM   25  S   UNL     1      25.389  45.046  49.862  1.00  0.00    -0.081 SA
BRANCH  25  26
HETATM   26  C   UNL     1      24.642  44.216  51.293  1.00  0.00     0.185 C 
BRANCH  26  27
HETATM   27  C   UNL     1      25.514  44.085  52.535  1.00  0.00     0.231 C 
HETATM   28  N   UNL     1      26.874  44.135  52.311  1.00  0.00    -0.326 N 
HETATM   29  H   UNL     1      27.171  43.986  51.350  1.00  0.00     0.169 HD
HETATM   30  O   UNL     1      24.970  44.004  53.637  1.00  0.00    -0.272 OA
BRANCH  28  31
HETATM   31  C   UNL     1      27.906  44.103  53.272  1.00  0.00     0.037 A 
HETATM   32  C   UNL     1      28.051  45.047  54.291  1.00  0.00     0.066 A 
HETATM   33  C   UNL     1      29.107  44.931  55.196  1.00  0.00     0.067 A 
HETATM   34  C   UNL     1      30.022  43.891  55.104  1.00  0.00     0.036 A 
HETATM   35  C   UNL     1      29.889  42.951  54.085  1.00  0.00     0.005 A 
HETATM   36  C   UNL     1      28.837  43.059  53.172  1.00  0.00     0.029 A 
BRANCH  33  37
HETATM   37  O   UNL     1      29.276  45.836  56.204  1.00  0.00    -0.361 OA
HETATM   38  H   UNL     1      30.079  45.595  56.697  1.00  0.00     0.217 HD
ENDBRANCH  33  37
ENDBRANCH  28  31
ENDBRANCH  26  27
ENDBRANCH  25  26
ENDBRANCH   2  25
TORSDOF 9
ENDMDL
MODEL 7
REMARK VINA RESULT:      -8.1      7.539     14.905
REMARK  9 active torsions:
REMARK  status: ('A' for Active; 'I' for Inactive)
REMARK    1  A    between atoms: C_2  and  N_3 
REMARK    2  A    between atoms: C_4  and  S_5 
REMARK    3  A    between atoms: S_5  and  C_6 
REMARK    4  A    between atoms: C_6  and  C_7 
REMARK       I    between atoms: C_7  and  N_8 
REMARK    5  A    between atoms: N_8  and  C_9 
REMARK    6  A    between atoms: C_11  and  O_12 
REMARK    7  A    between atoms: C_19  and  C_20 
REMARK    8  A    between atoms: C_23  and  S_24 
REMARK    9  A    between atoms: S_24  and  N_25 
ROOT
HETATM    1  N   UNL     1      13.967  54.236  48.803  1.00  0.00    -0.308 N 
HETATM    2  C   UNL     1      12.866  54.490  49.578  1.00  0.00     0.192 A 
HETATM    3  N   UNL     1      12.949  53.841  50.709  1.00  0.00    -0.122 NA
HETATM    4  N   UNL     1      14.075  53.071  50.655  1.00  0.00    -0.128 NA
HETATM    5  C   UNL     1      14.686  53.281  49.500  1.00  0.00     0.164 A 
ENDROOT
BRANCH   5   6
HETATM    6  C   UNL     1      15.853  52.512  49.061  1.00  0.00     0.012 A 
HETATM    7  C   UNL     1      15.638  51.445  48.170  1.00  0.00     0.017 A 
HETATM    8  C   UNL     1      16.692  50.639  47.738  1.00  0.00     0.026 A 
HETATM    9  C   UNL     1      17.985  50.907  48.187  1.00  0.00     0.074 A 
HETATM   10  C   UNL     1      18.220  51.946  49.091  1.00  0.00     0.026 A 
HETATM   11  C   UNL     1      17.153  52.740  49.532  1.00  0.00     0.017 A 
BRANCH   9  12
HETATM   12  S   UNL     1      19.323  49.865  47.686  1.00  0.00     0.243 S 
HETATM   13  O   UNL     1      18.792  48.761  46.922  1.00  0.00    -0.206 OA
HETATM   14  O   UNL     1      20.401  50.679  47.169  1.00  0.00    -0.206 OA
BRANCH  12  15
HETATM   15  N   UNL     1      19.905  49.219  49.167  1.00  0.00    -0.203 NA
HETATM   16  C   UNL     1      21.379  49.323  49.407  1.00  0.00     0.135 C 
HETATM   17  C   UNL     1      22.194  48.263  48.635  1.00  0.00     0.250 C 
HETATM   18  N   UNL     1      21.643  46.858  48.873  1.00  0.00    -0.073 N 
HETATM   19  H   UNL     1      21.794  46.632  49.864  1.00  0.00     0.279 HD
HETATM   20  C   UNL     1      22.391  45.835  48.063  1.00  0.00     0.269 C 
HETATM   21  C   UNL     1      20.138  46.778  48.614  1.00  0.00     0.250 C 
HETATM   22  C   UNL     1      19.403  47.836  49.454  1.00  0.00     0.135 C 
ENDBRANCH  12  15
ENDBRANCH   9  12
ENDBRANCH   5   6
BRANCH   1  23
HETATM   23  C   UNL     1      14.256  54.796  47.500  1.00  0.00     0.128 C 
HETATM   24  C   UNL     1      13.546  54.054  46.378  1.00  0.00     0.027 C 
ENDBRANCH   1  23
BRANCH   2  25
HETATM   25  S   UNL     1      11.518  55.474  49.142  1.00  0.00    -0.081 SA
BRANCH  25  26
HETATM   26  C   UNL     1      12.050  57.102  49.741  1.00  0.00     0.185 C 
BRANCH  26  27
HETATM   27  C   UNL     1      12.595  57.159  51.162  1.00  0.00     0.231 C 
HETATM   28  N   UNL     1      13.954  57.377  51.265  1.00  0.00    -0.326 N 
HETATM   29  H   UNL     1      14.494  57.214  50.419  1.00  0.00     0.169 HD
HETATM   30  O   UNL     1      11.808  57.071  52.105  1.00  0.00    -0.272 OA
BRANCH  28  31
HETATM   31  C   UNL     1      14.713  57.538  52.443  1.00  0.00     0.037 A 
HETATM   32  C   UNL     1      15.391  56.497  53.081  1.00  0.00     0.066 A 
HETATM   33  C   UNL     1      16.117  56.754  54.244  1.00  0.00     0.067 A 
HETATM   34  C   UNL     1      16.179  58.031  54.785  1.00  0.00     0.036 A 
HETATM   35  C   UNL     1      15.498  59.072  54.160  1.00  0.00     0.005 A 
HETATM   36  C   UNL     1      14.766  58.825  52.996  1.00  0.00     0.029 A 
BRANCH  33  37
HETATM   37  O   UNL     1      16.792  55.759  54.890  1.00  0.00    -0.361 OA
HETATM   38  H   UNL     1      17.660  56.104  55.159  1.00  0.00     0.217 HD
ENDBRANCH  33  37
ENDBRANCH  28  31
ENDBRANCH  26  27
ENDBRANCH  25  26
ENDBRANCH   2  25
TORSDOF 9
ENDMDL
MODEL 8
REMARK VINA RESULT:      -8.0      3.582     10.810
REMARK  9 active torsions:
REMARK  status: ('A' for Active; 'I' for Inactive)
REMARK    1  A    between atoms: C_2  and  N_3 
REMARK    2  A    between atoms: C_4  and  S_5 
REMARK    3  A    between atoms: S_5  and  C_6 
REMARK    4  A    between atoms: C_6  and  C_7 
REMARK       I    between atoms: C_7  and  N_8 
REMARK    5  A    between atoms: N_8  and  C_9 
REMARK    6  A    between atoms: C_11  and  O_12 
REMARK    7  A    between atoms: C_19  and  C_20 
REMARK    8  A    between atoms: C_23  and  S_24 
REMARK    9  A    between atoms: S_24  and  N_25 
ROOT
HETATM    1  N   UNL     1      20.491  44.715  46.773  1.00  0.00    -0.308 N 
HETATM    2  C   UNL     1      19.139  44.780  46.980  1.00  0.00     0.192 A 
HETATM    3  N   UNL     1      18.880  44.868  48.259  1.00  0.00    -0.122 NA
HETATM    4  N   UNL     1      20.070  44.768  48.922  1.00  0.00    -0.128 NA
HETATM    5  C   UNL     1      21.048  44.651  48.038  1.00  0.00     0.164 A 
ENDROOT
BRANCH   5   6
HETATM    6  C   UNL     1      22.439  44.388  48.415  1.00  0.00     0.012 A 
HETATM    7  C   UNL     1      22.871  43.050  48.436  1.00  0.00     0.017 A 
HETATM    8  C   UNL     1      24.168  42.712  48.823  1.00  0.00     0.026 A 
HETATM    9  C   UNL     1      25.057  43.725  49.184  1.00  0.00     0.074 A 
HETATM   10  C   UNL     1      24.644  45.060  49.196  1.00  0.00     0.026 A 
HETATM   11  C   UNL     1      23.335  45.386  48.819  1.00  0.00     0.017 A 
BRANCH   9  12
HETATM   12  S   UNL     1      26.689  43.310  49.725  1.00  0.00     0.243 S 
HETATM   13  O   UNL     1      27.210  42.268  48.873  1.00  0.00    -0.206 OA
HETATM   14  O   UNL     1      27.441  44.523  49.964  1.00  0.00    -0.206 OA
BRANCH  12  15
HETATM   15  N   UNL     1      26.434  42.615  51.274  1.00  0.00    -0.203 NA
HETATM   16  C   UNL     1      26.575  43.533  52.449  1.00  0.00     0.135 C 
HETATM   17  C   UNL     1      28.046  43.811  52.825  1.00  0.00     0.250 C 
HETATM   18  N   UNL     1      28.835  42.513  52.978  1.00  0.00    -0.073 N 
HETATM   19  H   UNL     1      28.450  42.012  53.788  1.00  0.00     0.279 HD
HETATM   20  C   UNL     1      30.285  42.787  53.273  1.00  0.00     0.269 C 
HETATM   21  C   UNL     1      28.680  41.598  51.763  1.00  0.00     0.250 C 
HETATM   22  C   UNL     1      27.190  41.338  51.487  1.00  0.00     0.135 C 
ENDBRANCH  12  15
ENDBRANCH   9  12
ENDBRANCH   5   6
BRANCH   1  23
HETATM   23  C   UNL     1      21.168  44.646  45.496  1.00  0.00     0.128 C 
HETATM   24  C   UNL     1      21.410  43.214  45.042  1.00  0.00     0.027 C 
ENDBRANCH   1  23
BRANCH   2  25
HETATM   25  S   UNL     1      17.917  44.707  45.765  1.00  0.00    -0.081 SA
BRANCH  25  26
HETATM   26  C   UNL     1      17.656  46.466  45.408  1.00  0.00     0.185 C 
BRANCH  26  27
HETATM   27  C   UNL     1      17.513  47.391  46.610  1.00  0.00     0.231 C 
HETATM   28  N   UNL     1      18.695  47.889  47.116  1.00  0.00    -0.326 N 
HETATM   29  H   UNL     1      19.541  47.402  46.829  1.00  0.00     0.169 HD
HETATM   30  O   UNL     1      16.383  47.678  47.009  1.00  0.00    -0.272 OA
BRANCH  28  31
HETATM   31  C   UNL     1      18.859  48.808  48.174  1.00  0.00     0.037 A 
HETATM   32  C   UNL     1      18.757  48.467  49.525  1.00  0.00     0.066 A 
HETATM   33  C   UNL     1      18.935  49.447  50.501  1.00  0.00     0.067 A 
HETATM   34  C   UNL     1      19.214  50.764  50.156  1.00  0.00     0.036 A 
HETATM   35  C   UNL     1      19.309  51.112  48.812  1.00  0.00     0.005 A 
HETATM   36  C   UNL     1      19.129  50.139  47.826  1.00  0.00     0.029 A 
BRANCH  33  37
HETATM   37  O   UNL     1      18.843  49.147  51.829  1.00  0.00    -0.361 OA
HETATM   38  H   UNL     1      19.683  48.747  52.111  1.00  0.00     0.217 HD
ENDBRANCH  33  37
ENDBRANCH  28  31
ENDBRANCH  26  27
ENDBRANCH  25  26
ENDBRANCH   2  25
TORSDOF 9
ENDMDL
MODEL 9
REMARK VINA RESULT:      -8.0      3.261      4.078
REMARK  9 active torsions:
REMARK  status: ('A' for Active; 'I' for Inactive)
REMARK    1  A    between atoms: C_2  and  N_3 
REMARK    2  A    between atoms: C_4  and  S_5 
REMARK    3  A    between atoms: S_5  and  C_6 
REMARK    4  A    between atoms: C_6  and  C_7 
REMARK       I    between atoms: C_7  and  N_8 
REMARK    5  A    between atoms: N_8  and  C_9 
REMARK    6  A    between atoms: C_11  and  O_12 
REMARK    7  A    between atoms: C_19  and  C_20 
REMARK    8  A    between atoms: C_23  and  S_24 
REMARK    9  A    between atoms: S_24  and  N_25 
ROOT
HETATM    1  N   UNL     1      24.321  45.798  50.403  1.00  0.00    -0.308 N 
HETATM    2  C   UNL     1      25.450  46.203  51.064  1.00  0.00     0.192 A 
HETATM    3  N   UNL     1      25.607  47.495  50.942  1.00  0.00    -0.122 NA
HETATM    4  N   UNL     1      24.621  47.948  50.113  1.00  0.00    -0.128 NA
HETATM    5  C   UNL     1      23.852  46.931  49.761  1.00  0.00     0.164 A 
ENDROOT
BRANCH   5   6
HETATM    6  C   UNL     1      22.780  47.044  48.768  1.00  0.00     0.012 A 
HETATM    7  C   UNL     1      21.958  48.183  48.818  1.00  0.00     0.017 A 
HETATM    8  C   UNL     1      20.890  48.346  47.935  1.00  0.00     0.026 A 
HETATM    9  C   UNL     1      20.644  47.365  46.974  1.00  0.00     0.074 A 
HETATM   10  C   UNL     1      21.432  46.212  46.920  1.00  0.00     0.026 A 
HETATM   11  C   UNL     1      22.493  46.051  47.822  1.00  0.00     0.017 A 
BRANCH   9  12
HETATM   12  S   UNL     1      19.266  47.533  45.879  1.00  0.00     0.243 S 
HETATM   13  O   UNL     1      18.725  48.864  46.014  1.00  0.00    -0.206 OA
HETATM   14  O   UNL     1      19.613  46.997  44.580  1.00  0.00    -0.206 OA
BRANCH  12  15
HETATM   15  N   UNL     1      18.104  46.448  46.528  1.00  0.00    -0.203 NA
HETATM   16  C   UNL     1      17.104  45.886  45.565  1.00  0.00     0.135 C 
HETATM   17  C   UNL     1      15.972  46.879  45.221  1.00  0.00     0.250 C 
HETATM   18  N   UNL     1      15.334  47.453  46.483  1.00  0.00    -0.073 N 
HETATM   19  H   UNL     1      14.863  46.679  46.969  1.00  0.00     0.279 HD
HETATM   20  C   UNL     1      14.282  48.473  46.147  1.00  0.00     0.269 C 
HETATM   21  C   UNL     1      16.375  48.026  47.445  1.00  0.00     0.250 C 
HETATM   22  C   UNL     1      17.436  46.960  47.769  1.00  0.00     0.135 C 
ENDBRANCH  12  15
ENDBRANCH   9  12
ENDBRANCH   5   6
BRANCH   1  23
HETATM   23  C   UNL     1      23.793  44.452  50.336  1.00  0.00     0.128 C 
HETATM   24  C   UNL     1      24.543  43.583  49.338  1.00  0.00     0.027 C 
ENDBRANCH   1  23
BRANCH   2  25
HETATM   25  S   UNL     1      26.561  45.184  51.902  1.00  0.00    -0.081 SA
BRANCH  25  26
HETATM   26  C   UNL     1      26.724  46.053  53.486  1.00  0.00     0.185 C 
BRANCH  26  27
HETATM   27  C   UNL     1      27.463  45.315  54.595  1.00  0.00     0.231 C 
HETATM   28  N   UNL     1      28.648  45.893  55.001  1.00  0.00    -0.326 N 
HETATM   29  H   UNL     1      29.047  46.580  54.366  1.00  0.00     0.169 HD
HETATM   30  O   UNL     1      26.947  44.312  55.089  1.00  0.00    -0.272 OA
BRANCH  28  31
HETATM   31  C   UNL     1      29.502  45.467  56.041  1.00  0.00     0.037 A 
HETATM   32  C   UNL     1      30.457  44.458  55.899  1.00  0.00     0.066 A 
HETATM   33  C   UNL     1      31.257  44.105  56.987  1.00  0.00     0.067 A 
HETATM   34  C   UNL     1      31.121  44.739  58.215  1.00  0.00     0.036 A 
HETATM   35  C   UNL     1      30.165  45.739  58.366  1.00  0.00     0.005 A 
HETATM   36  C   UNL     1      29.357  46.099  57.283  1.00  0.00     0.029 A 
BRANCH  33  37
HETATM   37  O   UNL     1      32.201  43.124  56.882  1.00  0.00    -0.361 OA
HETATM   38  H   UNL     1      32.172  42.586  57.691  1.00  0.00     0.217 HD
ENDBRANCH  33  37
ENDBRANCH  28  31
ENDBRANCH  26  27
ENDBRANCH  25  26
ENDBRANCH   2  25
TORSDOF 9
ENDMDL
MODEL 10
REMARK VINA RESULT:      -7.9      2.649      3.920
REMARK  9 active torsions:
REMARK  status: ('A' for Active; 'I' for Inactive)
REMARK    1  A    between atoms: C_2  and  N_3 
REMARK    2  A    between atoms: C_4  and  S_5 
REMARK    3  A    between atoms: S_5  and  C_6 
REMARK    4  A    between atoms: C_6  and  C_7 
REMARK       I    between atoms: C_7  and  N_8 
REMARK    5  A    between atoms: N_8  and  C_9 
REMARK    6  A    between atoms: C_11  and  O_12 
REMARK    7  A    between atoms: C_19  and  C_20 
REMARK    8  A    between atoms: C_23  and  S_24 
REMARK    9  A    between atoms: S_24  and  N_25 
ROOT
HETATM    1  N   UNL     1      23.229  43.347  48.395  1.00  0.00    -0.308 N 
HETATM    2  C   UNL     1      23.853  42.502  49.274  1.00  0.00     0.192 A 
HETATM    3  N   UNL     1      23.395  42.686  50.484  1.00  0.00    -0.122 NA
HETATM    4  N   UNL     1      22.517  43.732  50.431  1.00  0.00    -0.128 NA
HETATM    5  C   UNL     1      22.426  44.156  49.181  1.00  0.00     0.164 A 
ENDROOT
BRANCH   5   6
HETATM    6  C   UNL     1      21.673  45.352  48.796  1.00  0.00     0.012 A 
HETATM    7  C   UNL     1      22.395  46.538  48.576  1.00  0.00     0.017 A 
HETATM    8  C   UNL     1      21.748  47.730  48.246  1.00  0.00     0.026 A 
HETATM    9  C   UNL     1      20.359  47.740  48.119  1.00  0.00     0.074 A 
HETATM   10  C   UNL     1      19.618  46.579  48.357  1.00  0.00     0.026 A 
HETATM   11  C   UNL     1      20.276  45.392  48.703  1.00  0.00     0.017 A 
BRANCH   9  12
HETATM   12  S   UNL     1      19.522  49.252  47.750  1.00  0.00     0.243 S 
HETATM   13  O   UNL     1      20.073  49.806  46.536  1.00  0.00    -0.206 OA
HETATM   14  O   UNL     1      18.095  49.063  47.902  1.00  0.00    -0.206 OA
BRANCH  12  15
HETATM   15  N   UNL     1      19.986  50.292  49.035  1.00  0.00    -0.203 NA
HETATM   16  C   UNL     1      19.184  50.195  50.296  1.00  0.00     0.135 C 
HETATM   17  C   UNL     1      17.827  50.925  50.207  1.00  0.00     0.250 C 
HETATM   18  N   UNL     1      17.999  52.360  49.714  1.00  0.00    -0.073 N 
HETATM   19  H   UNL     1      18.524  52.872  50.433  1.00  0.00     0.279 HD
HETATM   20  C   UNL     1      16.670  53.047  49.558  1.00  0.00     0.269 C 
HETATM   21  C   UNL     1      18.814  52.430  48.422  1.00  0.00     0.250 C 
HETATM   22  C   UNL     1      20.165  51.720  48.613  1.00  0.00     0.135 C 
ENDBRANCH  12  15
ENDBRANCH   9  12
ENDBRANCH   5   6
BRANCH   1  23
HETATM   23  C   UNL     1      23.438  43.419  46.965  1.00  0.00     0.128 C 
HETATM   24  C   UNL     1      22.309  42.772  46.179  1.00  0.00     0.027 C 
ENDBRANCH   1  23
BRANCH   2  25
HETATM   25  S   UNL     1      25.106  41.379  48.891  1.00  0.00    -0.081 SA
BRANCH  25  26
HETATM   26  C   UNL     1      25.785  41.021  50.534  1.00  0.00     0.185 C 
BRANCH  26  27
HETATM   27  C   UNL     1      26.722  42.067  51.126  1.00  0.00     0.231 C 
HETATM   28  N   UNL     1      26.927  41.973  52.487  1.00  0.00    -0.326 N 
HETATM   29  H   UNL     1      26.253  41.411  53.000  1.00  0.00     0.169 HD
HETATM   30  O   UNL     1      27.269  42.871  50.371  1.00  0.00    -0.272 OA
BRANCH  28  31
HETATM   31  C   UNL     1      27.785  42.760  53.285  1.00  0.00     0.037 A 
HETATM   32  C   UNL     1      27.475  44.051  53.721  1.00  0.00     0.066 A 
HETATM   33  C   UNL     1      28.389  44.752  54.508  1.00  0.00     0.067 A 
HETATM   34  C   UNL     1      29.608  44.192  54.867  1.00  0.00     0.036 A 
HETATM   35  C   UNL     1      29.927  42.910  54.428  1.00  0.00     0.005 A 
HETATM   36  C   UNL     1      29.020  42.199  53.638  1.00  0.00     0.029 A 
BRANCH  33  37
HETATM   37  O   UNL     1      28.117  46.014  54.952  1.00  0.00    -0.361 OA
HETATM   38  H   UNL     1      27.553  46.454  54.293  1.00  0.00     0.217 HD
ENDBRANCH  33  37
ENDBRANCH  28  31
ENDBRANCH  26  27
ENDBRANCH  25  26
ENDBRANCH   2  25
TORSDOF 9
ENDMDL
