MODEL 1
REMARK VINA RESULT:     -10.0      0.000      0.000
REMARK  9 active torsions:
REMARK  status: ('A' for Active; 'I' for Inactive)
REMARK    1  A    between atoms: N_2  and  C_4 
REMARK    2  A    between atoms: C_4  and  C_5 
REMARK    3  A    between atoms: C_6  and  O_7 
REMARK    4  A    between atoms: O_7  and  C_8 
REMARK    5  A    between atoms: C_8  and  C_9 
REMARK       I    between atoms: C_9  and  N_10 
REMARK    6  A    between atoms: N_10  and  C_11 
REMARK    7  A    between atoms: C_11  and  C_12 
REMARK    8  A    between atoms: C_12  and  C_13 
REMARK    9  A    between atoms: C_27  and  C_28 
ROOT
HETATM    1  C   UNL     1      26.167  44.934  51.609  1.00  0.00     0.002 A 
HETATM    2  C   UNL     1      25.379  46.094  51.652  1.00  0.00     0.077 A 
HETATM    3  C   UNL     1      25.547  46.997  52.704  1.00  0.00     0.038 A 
HETATM    4  C   UNL     1      26.504  46.763  53.701  1.00  0.00     0.017 A 
HETATM    5  C   UNL     1      27.315  45.623  53.670  1.00  0.00     0.000 A 
HETATM    6  C   UNL     1      27.129  44.715  52.615  1.00  0.00     0.026 A 
ENDROOT
BRANCH   2   7
HETATM    7  O   UNL     1      24.453  46.231  50.646  1.00  0.00    -0.342 OA
BRANCH   7   8
HETATM    8  C   UNL     1      24.440  47.503  49.991  1.00  0.00     0.278 C 
BRANCH   8   9
HETATM    9  C   UNL     1      23.262  47.676  49.033  1.00  0.00     0.241 C 
HETATM   10  N   UNL     1      22.423  46.589  48.922  1.00  0.00    -0.359 N 
HETATM   11  H   UNL     1      22.785  45.684  49.185  1.00  0.00     0.162 HD
HETATM   12  O   UNL     1      23.068  48.732  48.437  1.00  0.00    -0.271 OA
BRANCH  10  13
HETATM   13  C   UNL     1      21.280  46.616  48.024  1.00  0.00     0.130 C 
BRANCH  13  14
HETATM   14  C   UNL     1      19.947  46.675  48.770  1.00  0.00     0.098 C 
BRANCH  14  15
HETATM   15  C   UNL     1      19.383  48.061  48.835  1.00  0.00     0.106 A 
HETATM   16  N   UNL     1      18.255  48.466  49.394  1.00  0.00    -0.233 NA
HETATM   17  C   UNL     1      18.258  49.839  49.265  1.00  0.00     0.087 A 
HETATM   18  C   UNL     1      19.384  50.272  48.573  1.00  0.00     0.062 A 
HETATM   19  C   UNL     1      17.335  50.789  49.723  1.00  0.00     0.057 A 
HETATM   20  N   UNL     1      20.070  49.122  48.292  1.00  0.00    -0.343 N 
HETATM   21  C   UNL     1      19.654  51.615  48.298  1.00  0.00     0.034 A 
HETATM   22  H   UNL     1      20.956  49.066  47.806  1.00  0.00     0.167 HD
HETATM   23  C   UNL     1      18.723  52.549  48.763  1.00  0.00     0.026 A 
HETATM   24  C   UNL     1      17.587  52.140  49.462  1.00  0.00     0.036 A 
HETATM   25 CL   UNL     1      16.464  53.318  50.025  1.00  0.00    -0.084 Cl
ENDBRANCH  14  15
ENDBRANCH  13  14
ENDBRANCH  10  13
ENDBRANCH   8   9
ENDBRANCH   7   8
ENDBRANCH   2   7
BRANCH   1  26
HETATM   26  C   UNL     1      25.975  43.903  50.528  1.00  0.00     0.275 C 
BRANCH  26  27
HETATM   27  N   UNL     1      25.306  42.645  51.038  1.00  0.00    -0.075 N 
HETATM   28  C   UNL     1      26.196  41.438  50.979  1.00  0.00     0.269 C 
HETATM   29  H   UNL     1      25.105  42.828  52.031  1.00  0.00     0.279 HD
HETATM   30  C   UNL     1      23.991  42.407  50.365  1.00  0.00     0.269 C 
ENDBRANCH  26  27
ENDBRANCH   1  26
BRANCH   5  31
HETATM   31  C   UNL     1      28.324  45.312  54.701  1.00  0.00     0.109 A 
HETATM   32  S   UNL     1      28.532  46.297  56.095  1.00  0.00    -0.068 SA
HETATM   33  C   UNL     1      29.812  45.286  56.635  1.00  0.00     0.035 A 
HETATM   34  C   UNL     1      29.999  44.259  55.710  1.00  0.00     0.075 A 
HETATM   35  C   UNL     1      30.597  45.393  57.795  1.00  0.00     0.021 A 
HETATM   36  N   UNL     1      29.151  44.289  54.612  1.00  0.00    -0.240 NA
HETATM   37  C   UNL     1      31.004  43.302  55.953  1.00  0.00     0.033 A 
HETATM   38  C   UNL     1      31.792  43.398  57.104  1.00  0.00     0.002 A 
HETATM   39  C   UNL     1      31.590  44.432  58.013  1.00  0.00     0.002 A 
ENDBRANCH   5  31
TORSDOF 9
ENDMDL
MODEL 2
REMARK VINA RESULT:      -9.9      1.817      3.190
REMARK  9 active torsions:
REMARK  status: ('A' for Active; 'I' for Inactive)
REMARK    1  A    between atoms: N_2  and  C_4 
REMARK    2  A    between atoms: C_4  and  C_5 
REMARK    3  A    between atoms: C_6  and  O_7 
REMARK    4  A    between atoms: O_7  and  C_8 
REMARK    5  A    between atoms: C_8  and  C_9 
REMARK       I    between atoms: C_9  and  N_10 
REMARK    6  A    between atoms: N_10  and  C_11 
REMARK    7  A    between atoms: C_11  and  C_12 
REMARK    8  A    between atoms: C_12  and  C_13 
REMARK    9  A    between atoms: C_27  and  C_28 
ROOT
HETATM    1  C   UNL     1      26.085  45.143  51.453  1.00  0.00     0.002 A 
HETATM    2  C   UNL     1      26.297  44.168  50.466  1.00  0.00     0.077 A 
HETATM    3  C   UNL     1      27.328  43.240  50.630  1.00  0.00     0.038 A 
HETATM    4  C   UNL     1      28.137  43.265  51.774  1.00  0.00     0.017 A 
HETATM    5  C   UNL     1      27.934  44.215  52.782  1.00  0.00     0.000 A 
HETATM    6  C   UNL     1      26.902  45.151  52.600  1.00  0.00     0.026 A 
ENDROOT
BRANCH   2   7
HETATM    7  O   UNL     1      25.471  44.232  49.369  1.00  0.00    -0.342 OA
BRANCH   7   8
HETATM    8  C   UNL     1      24.822  43.007  49.016  1.00  0.00     0.278 C 
BRANCH   8   9
HETATM    9  C   UNL     1      23.298  43.083  49.116  1.00  0.00     0.241 C 
HETATM   10  N   UNL     1      22.763  44.351  49.081  1.00  0.00    -0.359 N 
HETATM   11  H   UNL     1      23.365  45.125  49.324  1.00  0.00     0.162 HD
HETATM   12  O   UNL     1      22.609  42.068  49.183  1.00  0.00    -0.271 OA
BRANCH  10  13
HETATM   13  C   UNL     1      21.329  44.561  49.193  1.00  0.00     0.130 C 
BRANCH  13  14
HETATM   14  C   UNL     1      20.750  45.317  47.998  1.00  0.00     0.098 C 
BRANCH  14  15
HETATM   15  C   UNL     1      20.396  46.734  48.327  1.00  0.00     0.106 A 
HETATM   16  N   UNL     1      20.579  47.821  47.597  1.00  0.00    -0.233 NA
HETATM   17  C   UNL     1      19.986  48.842  48.309  1.00  0.00     0.087 A 
HETATM   18  C   UNL     1      19.476  48.377  49.515  1.00  0.00     0.062 A 
HETATM   19  C   UNL     1      19.835  50.197  47.984  1.00  0.00     0.057 A 
HETATM   20  N   UNL     1      19.768  47.040  49.513  1.00  0.00    -0.343 N 
HETATM   21  C   UNL     1      18.815  49.189  50.441  1.00  0.00     0.034 A 
HETATM   22  H   UNL     1      19.523  46.381  50.240  1.00  0.00     0.167 HD
HETATM   23  C   UNL     1      18.673  50.539  50.100  1.00  0.00     0.026 A 
HETATM   24  C   UNL     1      19.174  51.029  48.894  1.00  0.00     0.036 A 
HETATM   25 CL   UNL     1      18.977  52.695  48.505  1.00  0.00    -0.084 Cl
ENDBRANCH  14  15
ENDBRANCH  13  14
ENDBRANCH  10  13
ENDBRANCH   8   9
ENDBRANCH   7   8
ENDBRANCH   2   7
BRANCH   1  26
HETATM   26  C   UNL     1      25.027  46.201  51.287  1.00  0.00     0.275 C 
BRANCH  26  27
HETATM   27  N   UNL     1      25.190  46.989  50.006  1.00  0.00    -0.075 N 
HETATM   28  C   UNL     1      26.381  47.903  50.021  1.00  0.00     0.269 C 
HETATM   29  H   UNL     1      25.355  46.285  49.273  1.00  0.00     0.279 HD
HETATM   30  C   UNL     1      23.933  47.712  49.638  1.00  0.00     0.269 C 
ENDBRANCH  26  27
ENDBRANCH   1  26
BRANCH   5  31
HETATM   31  C   UNL     1      28.764  44.304  53.998  1.00  0.00     0.109 A 
HETATM   32  S   UNL     1      29.996  43.155  54.343  1.00  0.00    -0.068 SA
HETATM   33  C   UNL     1      30.355  43.962  55.817  1.00  0.00     0.035 A 
HETATM   34  C   UNL     1      29.505  45.060  55.950  1.00  0.00     0.075 A 
HETATM   35  C   UNL     1      31.320  43.646  56.788  1.00  0.00     0.021 A 
HETATM   36  N   UNL     1      28.602  45.239  54.913  1.00  0.00    -0.240 NA
HETATM   37  C   UNL     1      29.624  45.874  57.094  1.00  0.00     0.033 A 
HETATM   38  C   UNL     1      30.581  45.570  58.067  1.00  0.00     0.002 A 
HETATM   39  C   UNL     1      31.417  44.469  57.915  1.00  0.00     0.002 A 
ENDBRANCH   5  31
TORSDOF 9
ENDMDL
MODEL 3
REMARK VINA RESULT:      -9.4      1.587      1.984
REMARK  9 active torsions:
REMARK  status: ('A' for Active; 'I' for Inactive)
REMARK    1  A    between atoms: N_2  and  C_4 
REMARK    2  A    between atoms: C_4  and  C_5 
REMARK    3  A    between atoms: C_6  and  O_7 
REMARK    4  A    between atoms: O_7  and  C_8 
REMARK    5  A    between atoms: C_8  and  C_9 
REMARK       I    between atoms: C_9  and  N_10 
REMARK    6  A    between atoms: N_10  and  C_11 
REMARK    7  A    between atoms: C_11  and  C_12 
REMARK    8  A    between atoms: C_12  and  C_13 
REMARK    9  A    between atoms: C_27  and  C_28 
ROOT
HETATM    1  C   UNL     1      27.031  43.422  50.807  1.00  0.00     0.002 A 
HETATM    2  C   UNL     1      25.999  44.369  50.717  1.00  0.00     0.077 A 
HETATM    3  C   UNL     1      25.840  45.307  51.740  1.00  0.00     0.038 A 
HETATM    4  C   UNL     1      26.708  45.320  52.840  1.00  0.00     0.017 A 
HETATM    5  C   UNL     1      27.757  44.399  52.943  1.00  0.00     0.000 A 
HETATM    6  C   UNL     1      27.900  43.452  51.915  1.00  0.00     0.026 A 
ENDROOT
BRANCH   2   7
HETATM    7  O   UNL     1      25.184  44.268  49.616  1.00  0.00    -0.342 OA
BRANCH   7   8
HETATM    8  C   UNL     1      23.800  44.034  49.895  1.00  0.00     0.278 C 
BRANCH   8   9
HETATM    9  C   UNL     1      22.866  44.994  49.157  1.00  0.00     0.241 C 
HETATM   10  N   UNL     1      21.776  44.411  48.549  1.00  0.00    -0.359 N 
HETATM   11  H   UNL     1      21.825  43.425  48.337  1.00  0.00     0.162 HD
HETATM   12  O   UNL     1      23.067  46.206  49.149  1.00  0.00    -0.271 OA
BRANCH  10  13
HETATM   13  C   UNL     1      20.825  45.211  47.794  1.00  0.00     0.130 C 
BRANCH  13  14
HETATM   14  C   UNL     1      19.564  45.536  48.594  1.00  0.00     0.098 C 
BRANCH  14  15
HETATM   15  C   UNL     1      19.373  47.007  48.797  1.00  0.00     0.106 A 
HETATM   16  N   UNL     1      18.255  47.710  48.728  1.00  0.00    -0.233 NA
HETATM   17  C   UNL     1      18.608  48.991  49.098  1.00  0.00     0.087 A 
HETATM   18  C   UNL     1      19.971  49.079  49.350  1.00  0.00     0.062 A 
HETATM   19  C   UNL     1      17.812  50.135  49.251  1.00  0.00     0.057 A 
HETATM   20  N   UNL     1      20.438  47.812  49.131  1.00  0.00    -0.343 N 
HETATM   21  C   UNL     1      20.610  50.256  49.749  1.00  0.00     0.034 A 
HETATM   22  H   UNL     1      21.397  47.508  49.240  1.00  0.00     0.167 HD
HETATM   23  C   UNL     1      19.802  51.388  49.897  1.00  0.00     0.026 A 
HETATM   24  C   UNL     1      18.430  51.325  49.652  1.00  0.00     0.036 A 
HETATM   25 CL   UNL     1      17.464  52.737  49.850  1.00  0.00    -0.084 Cl
ENDBRANCH  14  15
ENDBRANCH  13  14
ENDBRANCH  10  13
ENDBRANCH   8   9
ENDBRANCH   7   8
ENDBRANCH   2   7
BRANCH   1  26
HETATM   26  C   UNL     1      27.200  42.354  49.760  1.00  0.00     0.275 C 
BRANCH  26  27
HETATM   27  N   UNL     1      26.038  41.385  49.726  1.00  0.00    -0.075 N 
HETATM   28  C   UNL     1      26.276  40.148  50.541  1.00  0.00     0.269 C 
HETATM   29  H   UNL     1      25.251  41.889  50.158  1.00  0.00     0.279 HD
HETATM   30  C   UNL     1      25.627  41.063  48.323  1.00  0.00     0.269 C 
ENDBRANCH  26  27
ENDBRANCH   1  26
BRANCH   5  31
HETATM   31  C   UNL     1      28.689  44.350  54.085  1.00  0.00     0.109 A 
HETATM   32  S   UNL     1      29.882  43.120  54.231  1.00  0.00    -0.068 SA
HETATM   33  C   UNL     1      30.405  43.786  55.727  1.00  0.00     0.035 A 
HETATM   34  C   UNL     1      29.629  44.907  56.019  1.00  0.00     0.075 A 
HETATM   35  C   UNL     1      31.429  43.348  56.582  1.00  0.00     0.021 A 
HETATM   36  N   UNL     1      28.653  45.213  55.081  1.00  0.00    -0.240 NA
HETATM   37  C   UNL     1      29.886  45.619  57.208  1.00  0.00     0.033 A 
HETATM   38  C   UNL     1      30.904  45.192  58.067  1.00  0.00     0.002 A 
HETATM   39  C   UNL     1      31.664  44.069  57.757  1.00  0.00     0.002 A 
ENDBRANCH   5  31
TORSDOF 9
ENDMDL
MODEL 4
REMARK VINA RESULT:      -9.0      2.338      3.122
REMARK  9 active torsions:
REMARK  status: ('A' for Active; 'I' for Inactive)
REMARK    1  A    between atoms: N_2  and  C_4 
REMARK    2  A    between atoms: C_4  and  C_5 
REMARK    3  A    between atoms: C_6  and  O_7 
REMARK    4  A    between atoms: O_7  and  C_8 
REMARK    5  A    between atoms: C_8  and  C_9 
REMARK       I    between atoms: C_9  and  N_10 
REMARK    6  A    between atoms: N_10  and  C_11 
REMARK    7  A    between atoms: C_11  and  C_12 
REMARK    8  A    between atoms: C_12  and  C_13 
REMARK    9  A    between atoms: C_27  and  C_28 
ROOT
HETATM    1  C   UNL     1      26.118  41.953  50.400  1.00  0.00     0.002 A 
HETATM    2  C   UNL     1      24.911  42.631  50.172  1.00  0.00     0.077 A 
HETATM    3  C   UNL     1      24.570  43.714  50.986  1.00  0.00     0.038 A 
HETATM    4  C   UNL     1      25.427  44.136  52.012  1.00  0.00     0.017 A 
HETATM    5  C   UNL     1      26.645  43.488  52.247  1.00  0.00     0.000 A 
HETATM    6  C   UNL     1      26.972  42.392  51.431  1.00  0.00     0.026 A 
ENDROOT
BRANCH   2   7
HETATM    7  O   UNL     1      24.124  42.136  49.161  1.00  0.00    -0.342 OA
BRANCH   7   8
HETATM    8  C   UNL     1      23.925  43.016  48.049  1.00  0.00     0.278 C 
BRANCH   8   9
HETATM    9  C   UNL     1      22.456  43.164  47.654  1.00  0.00     0.241 C 
HETATM   10  N   UNL     1      22.024  44.457  47.453  1.00  0.00    -0.359 N 
HETATM   11  H   UNL     1      22.553  45.204  47.879  1.00  0.00     0.162 HD
HETATM   12  O   UNL     1      21.732  42.185  47.493  1.00  0.00    -0.271 OA
BRANCH  10  13
HETATM   13  C   UNL     1      20.642  44.736  47.098  1.00  0.00     0.130 C 
BRANCH  13  14
HETATM   14  C   UNL     1      19.782  45.086  48.313  1.00  0.00     0.098 C 
BRANCH  14  15
HETATM   15  C   UNL     1      19.684  46.563  48.544  1.00  0.00     0.106 A 
HETATM   16  N   UNL     1      19.848  47.545  47.674  1.00  0.00    -0.233 NA
HETATM   17  C   UNL     1      19.547  48.699  48.369  1.00  0.00     0.087 A 
HETATM   18  C   UNL     1      19.242  48.417  49.695  1.00  0.00     0.062 A 
HETATM   19  C   UNL     1      19.503  50.029  47.929  1.00  0.00     0.057 A 
HETATM   20  N   UNL     1      19.357  47.056  49.786  1.00  0.00    -0.343 N 
HETATM   21  C   UNL     1      18.893  49.392  50.633  1.00  0.00     0.034 A 
HETATM   22  H   UNL     1      19.187  46.503  50.616  1.00  0.00     0.167 HD
HETATM   23  C   UNL     1      18.854  50.714  50.177  1.00  0.00     0.026 A 
HETATM   24  C   UNL     1      19.154  51.022  48.850  1.00  0.00     0.036 A 
HETATM   25 CL   UNL     1      19.091  52.660  48.322  1.00  0.00    -0.084 Cl
ENDBRANCH  14  15
ENDBRANCH  13  14
ENDBRANCH  10  13
ENDBRANCH   8   9
ENDBRANCH   7   8
ENDBRANCH   2   7
BRANCH   1  26
HETATM   26  C   UNL     1      26.495  40.742  49.589  1.00  0.00     0.275 C 
BRANCH  26  27
HETATM   27  N   UNL     1      27.990  40.616  49.394  1.00  0.00    -0.075 N 
HETATM   28  C   UNL     1      28.404  40.666  47.952  1.00  0.00     0.269 C 
HETATM   29  H   UNL     1      28.395  41.441  49.857  1.00  0.00     0.279 HD
HETATM   30  C   UNL     1      28.539  39.413  50.094  1.00  0.00     0.269 C 
ENDBRANCH  26  27
ENDBRANCH   1  26
BRANCH   5  31
HETATM   31  C   UNL     1      27.578  43.872  53.323  1.00  0.00     0.109 A 
HETATM   32  S   UNL     1      27.402  45.342  54.197  1.00  0.00    -0.068 SA
HETATM   33  C   UNL     1      28.812  44.984  55.112  1.00  0.00     0.035 A 
HETATM   34  C   UNL     1      29.328  43.760  54.687  1.00  0.00     0.075 A 
HETATM   35  C   UNL     1      29.419  45.732  56.134  1.00  0.00     0.021 A 
HETATM   36  N   UNL     1      28.621  43.142  53.665  1.00  0.00    -0.240 NA
HETATM   37  C   UNL     1      30.492  43.264  55.306  1.00  0.00     0.033 A 
HETATM   38  C   UNL     1      31.106  44.000  56.325  1.00  0.00     0.002 A 
HETATM   39  C   UNL     1      30.574  45.219  56.731  1.00  0.00     0.002 A 
ENDBRANCH   5  31
TORSDOF 9
ENDMDL
MODEL 5
REMARK VINA RESULT:      -9.0      3.951     11.071
REMARK  9 active torsions:
REMARK  status: ('A' for Active; 'I' for Inactive)
REMARK    1  A    between atoms: N_2  and  C_4 
REMARK    2  A    between atoms: C_4  and  C_5 
REMARK    3  A    between atoms: C_6  and  O_7 
REMARK    4  A    between atoms: O_7  and  C_8 
REMARK    5  A    between atoms: C_8  and  C_9 
REMARK       I    between atoms: C_9  and  N_10 
REMARK    6  A    between atoms: N_10  and  C_11 
REMARK    7  A    between atoms: C_11  and  C_12 
REMARK    8  A    between atoms: C_12  and  C_13 
REMARK    9  A    between atoms: C_27  and  C_28 
ROOT
HETATM    1  C   UNL     1      24.104  45.690  49.277  1.00  0.00     0.002 A 
HETATM    2  C   UNL     1      23.585  44.408  49.040  1.00  0.00     0.077 A 
HETATM    3  C   UNL     1      22.270  44.275  48.588  1.00  0.00     0.038 A 
HETATM    4  C   UNL     1      21.476  45.406  48.354  1.00  0.00     0.017 A 
HETATM    5  C   UNL     1      21.976  46.696  48.565  1.00  0.00     0.000 A 
HETATM    6  C   UNL     1      23.296  46.818  49.032  1.00  0.00     0.026 A 
ENDROOT
BRANCH   2   7
HETATM    7  O   UNL     1      24.426  43.357  49.316  1.00  0.00    -0.342 OA
BRANCH   7   8
HETATM    8  C   UNL     1      24.479  42.333  48.318  1.00  0.00     0.278 C 
BRANCH   8   9
HETATM    9  C   UNL     1      25.639  41.358  48.516  1.00  0.00     0.241 C 
HETATM   10  N   UNL     1      26.773  41.894  49.086  1.00  0.00    -0.359 N 
HETATM   11  H   UNL     1      26.903  42.894  49.030  1.00  0.00     0.162 HD
HETATM   12  O   UNL     1      25.539  40.172  48.217  1.00  0.00    -0.271 OA
BRANCH  10  13
HETATM   13  C   UNL     1      27.957  41.078  49.304  1.00  0.00     0.130 C 
BRANCH  13  14
HETATM   14  C   UNL     1      28.052  40.552  50.736  1.00  0.00     0.098 C 
BRANCH  14  15
HETATM   15  C   UNL     1      28.360  41.630  51.728  1.00  0.00     0.106 A 
HETATM   16  N   UNL     1      27.649  42.705  52.024  1.00  0.00    -0.233 NA
HETATM   17  C   UNL     1      28.320  43.309  53.067  1.00  0.00     0.087 A 
HETATM   18  C   UNL     1      29.484  42.616  53.379  1.00  0.00     0.062 A 
HETATM   19  C   UNL     1      27.989  44.451  53.810  1.00  0.00     0.057 A 
HETATM   20  N   UNL     1      29.498  41.567  52.499  1.00  0.00    -0.343 N 
HETATM   21  C   UNL     1      30.361  42.995  54.398  1.00  0.00     0.034 A 
HETATM   22  H   UNL     1      30.203  40.843  52.455  1.00  0.00     0.167 HD
HETATM   23  C   UNL     1      30.016  44.137  55.128  1.00  0.00     0.026 A 
HETATM   24  C   UNL     1      28.851  44.848  54.837  1.00  0.00     0.036 A 
HETATM   25 CL   UNL     1      28.454  46.246  55.761  1.00  0.00    -0.084 Cl
ENDBRANCH  14  15
ENDBRANCH  13  14
ENDBRANCH  10  13
ENDBRANCH   8   9
ENDBRANCH   7   8
ENDBRANCH   2   7
BRANCH   1  26
HETATM   26  C   UNL     1      25.494  45.878  49.824  1.00  0.00     0.275 C 
BRANCH  26  27
HETATM   27  N   UNL     1      25.676  47.219  50.500  1.00  0.00    -0.075 N 
HETATM   28  C   UNL     1      26.689  48.091  49.819  1.00  0.00     0.269 C 
HETATM   29  H   UNL     1      24.764  47.690  50.420  1.00  0.00     0.279 HD
HETATM   30  C   UNL     1      25.958  47.067  51.963  1.00  0.00     0.269 C 
ENDBRANCH  26  27
ENDBRANCH   1  26
BRANCH   5  31
HETATM   31  C   UNL     1      21.183  47.922  48.357  1.00  0.00     0.109 A 
HETATM   32  S   UNL     1      20.004  48.041  47.111  1.00  0.00    -0.068 SA
HETATM   33  C   UNL     1      19.666  49.663  47.568  1.00  0.00     0.035 A 
HETATM   34  C   UNL     1      20.481  50.009  48.645  1.00  0.00     0.075 A 
HETATM   35  C   UNL     1      18.745  50.566  47.012  1.00  0.00     0.021 A 
HETATM   36  N   UNL     1      21.343  49.013  49.080  1.00  0.00    -0.240 NA
HETATM   37  C   UNL     1      20.371  51.305  49.189  1.00  0.00     0.033 A 
HETATM   38  C   UNL     1      19.457  52.212  48.645  1.00  0.00     0.002 A 
HETATM   39  C   UNL     1      18.656  51.846  47.569  1.00  0.00     0.002 A 
ENDBRANCH   5  31
TORSDOF 9
ENDMDL
MODEL 6
REMARK VINA RESULT:      -9.0      2.179      2.738
REMARK  9 active torsions:
REMARK  status: ('A' for Active; 'I' for Inactive)
REMARK    1  A    between atoms: N_2  and  C_4 
REMARK    2  A    between atoms: C_4  and  C_5 
REMARK    3  A    between atoms: C_6  and  O_7 
REMARK    4  A    between atoms: O_7  and  C_8 
REMARK    5  A    between atoms: C_8  and  C_9 
REMARK       I    between atoms: C_9  and  N_10 
REMARK    6  A    between atoms: N_10  and  C_11 
REMARK    7  A    between atoms: C_11  and  C_12 
REMARK    8  A    between atoms: C_12  and  C_13 
REMARK    9  A    between atoms: C_27  and  C_28 
ROOT
HETATM    1  C   UNL     1      25.918  45.129  51.318  1.00  0.00     0.002 A 
HETATM    2  C   UNL     1      25.204  46.330  51.453  1.00  0.00     0.077 A 
HETATM    3  C   UNL     1      25.474  47.168  52.537  1.00  0.00     0.038 A 
HETATM    4  C   UNL     1      26.458  46.830  53.476  1.00  0.00     0.017 A 
HETATM    5  C   UNL     1      27.197  45.647  53.353  1.00  0.00     0.000 A 
HETATM    6  C   UNL     1      26.909  44.805  52.266  1.00  0.00     0.026 A 
ENDROOT
BRANCH   2   7
HETATM    7  O   UNL     1      24.245  46.570  50.500  1.00  0.00    -0.342 OA
BRANCH   7   8
HETATM    8  C   UNL     1      24.539  47.630  49.585  1.00  0.00     0.278 C 
BRANCH   8   9
HETATM    9  C   UNL     1      23.289  48.261  48.971  1.00  0.00     0.241 C 
HETATM   10  N   UNL     1      22.759  49.325  49.665  1.00  0.00    -0.359 N 
HETATM   11  H   UNL     1      22.991  49.413  50.645  1.00  0.00     0.162 HD
HETATM   12  O   UNL     1      22.823  47.858  47.908  1.00  0.00    -0.271 OA
BRANCH  10  13
HETATM   13  C   UNL     1      21.556  49.996  49.201  1.00  0.00     0.130 C 
BRANCH  13  14
HETATM   14  C   UNL     1      20.295  49.499  49.908  1.00  0.00     0.098 C 
BRANCH  14  15
HETATM   15  C   UNL     1      19.175  49.213  48.956  1.00  0.00     0.106 A 
HETATM   16  N   UNL     1      19.211  48.536  47.821  1.00  0.00    -0.233 NA
HETATM   17  C   UNL     1      17.901  48.477  47.392  1.00  0.00     0.087 A 
HETATM   18  C   UNL     1      17.062  49.171  48.255  1.00  0.00     0.062 A 
HETATM   19  C   UNL     1      17.348  47.837  46.274  1.00  0.00     0.057 A 
HETATM   20  N   UNL     1      17.898  49.647  49.228  1.00  0.00    -0.343 N 
HETATM   21  C   UNL     1      15.681  49.277  48.073  1.00  0.00     0.034 A 
HETATM   22  H   UNL     1      17.617  50.189  50.035  1.00  0.00     0.167 HD
HETATM   23  C   UNL     1      15.146  48.632  46.953  1.00  0.00     0.026 A 
HETATM   24  C   UNL     1      15.967  47.927  46.073  1.00  0.00     0.036 A 
HETATM   25 CL   UNL     1      15.273  47.142  44.706  1.00  0.00    -0.084 Cl
ENDBRANCH  14  15
ENDBRANCH  13  14
ENDBRANCH  10  13
ENDBRANCH   8   9
ENDBRANCH   7   8
ENDBRANCH   2   7
BRANCH   1  26
HETATM   26  C   UNL     1      25.616  44.166  50.202  1.00  0.00     0.275 C 
BRANCH  26  27
HETATM   27  N   UNL     1      24.870  42.939  50.679  1.00  0.00    -0.075 N 
HETATM   28  C   UNL     1      25.577  41.655  50.355  1.00  0.00     0.269 C 
HETATM   29  H   UNL     1      24.841  43.021  51.704  1.00  0.00     0.279 HD
HETATM   30  C   UNL     1      23.451  42.934  50.203  1.00  0.00     0.269 C 
ENDBRANCH  26  27
ENDBRANCH   1  26
BRANCH   5  31
HETATM   31  C   UNL     1      28.230  45.227  54.319  1.00  0.00     0.109 A 
HETATM   32  S   UNL     1      29.178  43.813  54.077  1.00  0.00    -0.068 SA
HETATM   33  C   UNL     1      29.987  44.084  55.569  1.00  0.00     0.035 A 
HETATM   34  C   UNL     1      29.477  45.241  56.157  1.00  0.00     0.075 A 
HETATM   35  C   UNL     1      31.002  43.327  56.176  1.00  0.00     0.021 A 
HETATM   36  N   UNL     1      28.474  45.877  55.440  1.00  0.00    -0.240 NA
HETATM   37  C   UNL     1      30.000  45.659  57.397  1.00  0.00     0.033 A 
HETATM   38  C   UNL     1      31.011  44.913  58.011  1.00  0.00     0.002 A 
HETATM   39  C   UNL     1      31.504  43.761  57.407  1.00  0.00     0.002 A 
ENDBRANCH   5  31
TORSDOF 9
ENDMDL
MODEL 7
REMARK VINA RESULT:      -8.9      4.658     12.665
REMARK  9 active torsions:
REMARK  status: ('A' for Active; 'I' for Inactive)
REMARK    1  A    between atoms: N_2  and  C_4 
REMARK    2  A    between atoms: C_4  and  C_5 
REMARK    3  A    between atoms: C_6  and  O_7 
REMARK    4  A    between atoms: O_7  and  C_8 
REMARK    5  A    between atoms: C_8  and  C_9 
REMARK       I    between atoms: C_9  and  N_10 
REMARK    6  A    between atoms: N_10  and  C_11 
REMARK    7  A    between atoms: C_11  and  C_12 
REMARK    8  A    between atoms: C_12  and  C_13 
REMARK    9  A    between atoms: C_27  and  C_28 
ROOT
HETATM    1  C   UNL     1      19.619  48.846  49.180  1.00  0.00     0.002 A 
HETATM    2  C   UNL     1      20.881  49.445  49.318  1.00  0.00     0.077 A 
HETATM    3  C   UNL     1      20.972  50.836  49.409  1.00  0.00     0.038 A 
HETATM    4  C   UNL     1      19.819  51.631  49.380  1.00  0.00     0.017 A 
HETATM    5  C   UNL     1      18.548  51.057  49.262  1.00  0.00     0.000 A 
HETATM    6  C   UNL     1      18.469  49.658  49.158  1.00  0.00     0.026 A 
ENDROOT
BRANCH   2   7
HETATM    7  O   UNL     1      21.957  48.590  49.316  1.00  0.00    -0.342 OA
BRANCH   7   8
HETATM    8  C   UNL     1      23.103  49.047  48.590  1.00  0.00     0.278 C 
BRANCH   8   9
HETATM    9  C   UNL     1      24.424  48.540  49.169  1.00  0.00     0.241 C 
HETATM   10  N   UNL     1      24.350  47.355  49.867  1.00  0.00    -0.359 N 
HETATM   11  H   UNL     1      23.451  47.077  50.233  1.00  0.00     0.162 HD
HETATM   12  O   UNL     1      25.478  49.142  48.984  1.00  0.00    -0.271 OA
BRANCH  10  13
HETATM   13  C   UNL     1      25.531  46.779  50.489  1.00  0.00     0.130 C 
BRANCH  13  14
HETATM   14  C   UNL     1      25.216  46.075  51.809  1.00  0.00     0.098 C 
BRANCH  14  15
HETATM   15  C   UNL     1      26.425  45.446  52.430  1.00  0.00     0.106 A 
HETATM   16  N   UNL     1      26.948  45.668  53.624  1.00  0.00    -0.233 NA
HETATM   17  C   UNL     1      27.981  44.762  53.742  1.00  0.00     0.087 A 
HETATM   18  C   UNL     1      28.120  44.010  52.582  1.00  0.00     0.062 A 
HETATM   19  C   UNL     1      28.844  44.516  54.819  1.00  0.00     0.057 A 
HETATM   20  N   UNL     1      27.134  44.478  51.756  1.00  0.00    -0.343 N 
HETATM   21  C   UNL     1      29.083  43.011  52.417  1.00  0.00     0.034 A 
HETATM   22  H   UNL     1      26.933  44.139  50.824  1.00  0.00     0.167 HD
HETATM   23  C   UNL     1      29.935  42.778  53.502  1.00  0.00     0.026 A 
HETATM   24  C   UNL     1      29.815  43.518  54.678  1.00  0.00     0.036 A 
HETATM   25 CL   UNL     1      30.878  43.201  55.996  1.00  0.00    -0.084 Cl
ENDBRANCH  14  15
ENDBRANCH  13  14
ENDBRANCH  10  13
ENDBRANCH   8   9
ENDBRANCH   7   8
ENDBRANCH   2   7
BRANCH   1  26
HETATM   26  C   UNL     1      19.480  47.356  49.014  1.00  0.00     0.275 C 
BRANCH  26  27
HETATM   27  N   UNL     1      18.806  46.976  47.714  1.00  0.00    -0.075 N 
HETATM   28  C   UNL     1      18.128  45.639  47.769  1.00  0.00     0.269 C 
HETATM   29  H   UNL     1      18.073  47.685  47.571  1.00  0.00     0.279 HD
HETATM   30  C   UNL     1      19.744  47.083  46.553  1.00  0.00     0.269 C 
ENDBRANCH  26  27
ENDBRANCH   1  26
BRANCH   5  31
HETATM   31  C   UNL     1      17.300  51.842  49.205  1.00  0.00     0.109 A 
HETATM   32  S   UNL     1      16.472  52.125  47.726  1.00  0.00    -0.068 SA
HETATM   33  C   UNL     1      15.288  53.059  48.551  1.00  0.00     0.035 A 
HETATM   34  C   UNL     1      15.606  53.095  49.908  1.00  0.00     0.075 A 
HETATM   35  C   UNL     1      14.158  53.714  48.034  1.00  0.00     0.021 A 
HETATM   36  N   UNL     1      16.756  52.405  50.266  1.00  0.00    -0.240 NA
HETATM   37  C   UNL     1      14.764  53.810  50.783  1.00  0.00     0.033 A 
HETATM   38  C   UNL     1      13.636  54.466  50.280  1.00  0.00     0.002 A 
HETATM   39  C   UNL     1      13.339  54.418  48.922  1.00  0.00     0.002 A 
ENDBRANCH   5  31
TORSDOF 9
ENDMDL
MODEL 8
REMARK VINA RESULT:      -8.7      3.112      4.278
REMARK  9 active torsions:
REMARK  status: ('A' for Active; 'I' for Inactive)
REMARK    1  A    between atoms: N_2  and  C_4 
REMARK    2  A    between atoms: C_4  and  C_5 
REMARK    3  A    between atoms: C_6  and  O_7 
REMARK    4  A    between atoms: O_7  and  C_8 
REMARK    5  A    between atoms: C_8  and  C_9 
REMARK       I    between atoms: C_9  and  N_10 
REMARK    6  A    between atoms: N_10  and  C_11 
REMARK    7  A    between atoms: C_11  and  C_12 
REMARK    8  A    between atoms: C_12  and  C_13 
REMARK    9  A    between atoms: C_27  and  C_28 
ROOT
HETATM    1  C   UNL     1      25.288  45.836  51.206  1.00  0.00     0.002 A 
HETATM    2  C   UNL     1      24.848  44.711  50.491  1.00  0.00     0.077 A 
HETATM    3  C   UNL     1      25.425  43.466  50.752  1.00  0.00     0.038 A 
HETATM    4  C   UNL     1      26.420  43.329  51.729  1.00  0.00     0.017 A 
HETATM    5  C   UNL     1      26.862  44.431  52.469  1.00  0.00     0.000 A 
HETATM    6  C   UNL     1      26.285  45.682  52.189  1.00  0.00     0.026 A 
ENDROOT
BRANCH   2   7
HETATM    7  O   UNL     1      23.886  44.942  49.538  1.00  0.00    -0.342 OA
BRANCH   7   8
HETATM    8  C   UNL     1      22.701  44.149  49.656  1.00  0.00     0.278 C 
BRANCH   8   9
HETATM    9  C   UNL     1      22.500  43.188  48.484  1.00  0.00     0.241 C 
HETATM   10  N   UNL     1      22.248  43.781  47.267  1.00  0.00    -0.359 N 
HETATM   11  H   UNL     1      21.890  44.726  47.267  1.00  0.00     0.162 HD
HETATM   12  O   UNL     1      22.597  41.972  48.628  1.00  0.00    -0.271 OA
BRANCH  10  13
HETATM   13  C   UNL     1      22.013  42.977  46.079  1.00  0.00     0.130 C 
BRANCH  13  14
HETATM   14  C   UNL     1      20.548  42.566  45.927  1.00  0.00     0.098 C 
BRANCH  14  15
HETATM   15  C   UNL     1      19.601  43.696  46.186  1.00  0.00     0.106 A 
HETATM   16  N   UNL     1      18.957  43.993  47.302  1.00  0.00    -0.233 NA
HETATM   17  C   UNL     1      18.303  45.179  47.040  1.00  0.00     0.087 A 
HETATM   18  C   UNL     1      18.514  45.585  45.728  1.00  0.00     0.062 A 
HETATM   19  C   UNL     1      17.514  45.977  47.880  1.00  0.00     0.057 A 
HETATM   20  N   UNL     1      19.323  44.615  45.200  1.00  0.00    -0.343 N 
HETATM   21  C   UNL     1      17.977  46.754  45.183  1.00  0.00     0.034 A 
HETATM   22  H   UNL     1      19.691  44.601  44.258  1.00  0.00     0.167 HD
HETATM   23  C   UNL     1      17.193  47.539  46.036  1.00  0.00     0.026 A 
HETATM   24  C   UNL     1      16.969  47.154  47.357  1.00  0.00     0.036 A 
HETATM   25 CL   UNL     1      16.002  48.147  48.381  1.00  0.00    -0.084 Cl
ENDBRANCH  14  15
ENDBRANCH  13  14
ENDBRANCH  10  13
ENDBRANCH   8   9
ENDBRANCH   7   8
ENDBRANCH   2   7
BRANCH   1  26
HETATM   26  C   UNL     1      24.741  47.207  50.912  1.00  0.00     0.275 C 
BRANCH  26  27
HETATM   27  N   UNL     1      25.171  47.726  49.558  1.00  0.00    -0.075 N 
HETATM   28  C   UNL     1      26.580  48.241  49.542  1.00  0.00     0.269 C 
HETATM   29  H   UNL     1      25.136  46.910  48.931  1.00  0.00     0.279 HD
HETATM   30  C   UNL     1      24.201  48.729  49.017  1.00  0.00     0.269 C 
ENDBRANCH  26  27
ENDBRANCH   1  26
BRANCH   5  31
HETATM   31  C   UNL     1      27.919  44.354  53.495  1.00  0.00     0.109 A 
HETATM   32  S   UNL     1      29.025  43.039  53.562  1.00  0.00    -0.068 SA
HETATM   33  C   UNL     1      29.774  43.722  54.950  1.00  0.00     0.035 A 
HETATM   34  C   UNL     1      29.126  44.914  55.273  1.00  0.00     0.075 A 
HETATM   35  C   UNL     1      30.858  43.238  55.700  1.00  0.00     0.021 A 
HETATM   36  N   UNL     1      28.069  45.258  54.443  1.00  0.00    -0.240 NA
HETATM   37  C   UNL     1      29.578  45.651  56.386  1.00  0.00     0.033 A 
HETATM   38  C   UNL     1      30.657  45.179  57.141  1.00  0.00     0.002 A 
HETATM   39  C   UNL     1      31.287  43.986  56.801  1.00  0.00     0.002 A 
ENDBRANCH   5  31
TORSDOF 9
ENDMDL
MODEL 9
REMARK VINA RESULT:      -8.4      3.873      9.461
REMARK  9 active torsions:
REMARK  status: ('A' for Active; 'I' for Inactive)
REMARK    1  A    between atoms: N_2  and  C_4 
REMARK    2  A    between atoms: C_4  and  C_5 
REMARK    3  A    between atoms: C_6  and  O_7 
REMARK    4  A    between atoms: O_7  and  C_8 
REMARK    5  A    between atoms: C_8  and  C_9 
REMARK       I    between atoms: C_9  and  N_10 
REMARK    6  A    between atoms: N_10  and  C_11 
REMARK    7  A    between atoms: C_11  and  C_12 
REMARK    8  A    between atoms: C_12  and  C_13 
REMARK    9  A    between atoms: C_27  and  C_28 
ROOT
HETATM    1  C   UNL     1      26.234  45.720  52.565  1.00  0.00     0.002 A 
HETATM    2  C   UNL     1      27.016  44.816  51.830  1.00  0.00     0.077 A 
HETATM    3  C   UNL     1      26.859  44.745  50.443  1.00  0.00     0.038 A 
HETATM    4  C   UNL     1      25.944  45.576  49.784  1.00  0.00     0.017 A 
HETATM    5  C   UNL     1      25.166  46.499  50.492  1.00  0.00     0.000 A 
HETATM    6  C   UNL     1      25.323  46.553  51.887  1.00  0.00     0.026 A 
ENDROOT
BRANCH   2   7
HETATM    7  O   UNL     1      27.871  44.026  52.560  1.00  0.00    -0.342 OA
BRANCH   7   8
HETATM    8  C   UNL     1      27.388  42.713  52.862  1.00  0.00     0.278 C 
BRANCH   8   9
HETATM    9  C   UNL     1      28.169  41.607  52.153  1.00  0.00     0.241 C 
HETATM   10  N   UNL     1      27.681  41.233  50.920  1.00  0.00    -0.359 N 
HETATM   11  H   UNL     1      26.715  41.440  50.712  1.00  0.00     0.162 HD
HETATM   12  O   UNL     1      29.183  41.120  52.646  1.00  0.00    -0.271 OA
BRANCH  10  13
HETATM   13  C   UNL     1      28.318  40.173  50.154  1.00  0.00     0.130 C 
BRANCH  13  14
HETATM   14  C   UNL     1      27.307  39.258  49.464  1.00  0.00     0.098 C 
BRANCH  14  15
HETATM   15  C   UNL     1      26.191  40.017  48.815  1.00  0.00     0.106 A 
HETATM   16  N   UNL     1      25.253  40.753  49.386  1.00  0.00    -0.233 NA
HETATM   17  C   UNL     1      24.543  41.311  48.344  1.00  0.00     0.087 A 
HETATM   18  C   UNL     1      25.027  40.868  47.118  1.00  0.00     0.062 A 
HETATM   19  C   UNL     1      23.474  42.217  48.366  1.00  0.00     0.057 A 
HETATM   20  N   UNL     1      26.058  40.030  47.445  1.00  0.00    -0.343 N 
HETATM   21  C   UNL     1      24.502  41.272  45.888  1.00  0.00     0.034 A 
HETATM   22  H   UNL     1      26.651  39.539  46.789  1.00  0.00     0.167 HD
HETATM   23  C   UNL     1      23.436  42.176  45.928  1.00  0.00     0.026 A 
HETATM   24  C   UNL     1      22.935  42.638  47.145  1.00  0.00     0.036 A 
HETATM   25 CL   UNL     1      21.624  43.755  47.157  1.00  0.00    -0.084 Cl
ENDBRANCH  14  15
ENDBRANCH  13  14
ENDBRANCH  10  13
ENDBRANCH   8   9
ENDBRANCH   7   8
ENDBRANCH   2   7
BRANCH   1  26
HETATM   26  C   UNL     1      26.325  45.784  54.066  1.00  0.00     0.275 C 
BRANCH  26  27
HETATM   27  N   UNL     1      27.587  46.470  54.542  1.00  0.00    -0.075 N 
HETATM   28  C   UNL     1      28.366  45.653  55.531  1.00  0.00     0.269 C 
HETATM   29  H   UNL     1      28.173  46.575  53.702  1.00  0.00     0.279 HD
HETATM   30  C   UNL     1      27.308  47.850  55.051  1.00  0.00     0.269 C 
ENDBRANCH  26  27
ENDBRANCH   1  26
BRANCH   5  31
HETATM   31  C   UNL     1      24.172  47.385  49.857  1.00  0.00     0.109 A 
HETATM   32  S   UNL     1      22.920  46.772  48.850  1.00  0.00    -0.068 SA
HETATM   33  C   UNL     1      22.347  48.367  48.568  1.00  0.00     0.035 A 
HETATM   34  C   UNL     1      23.154  49.267  49.263  1.00  0.00     0.075 A 
HETATM   35  C   UNL     1      21.260  48.793  47.787  1.00  0.00     0.021 A 
HETATM   36  N   UNL     1      24.191  48.697  49.986  1.00  0.00    -0.240 NA
HETATM   37  C   UNL     1      22.865  50.644  49.177  1.00  0.00     0.033 A 
HETATM   38  C   UNL     1      21.785  51.080  48.402  1.00  0.00     0.002 A 
HETATM   39  C   UNL     1      20.994  50.164  47.716  1.00  0.00     0.002 A 
ENDBRANCH   5  31
TORSDOF 9
ENDMDL
MODEL 10
REMARK VINA RESULT:      -8.3      2.476      4.156
REMARK  9 active torsions:
REMARK  status: ('A' for Active; 'I' for Inactive)
REMARK    1  A    between atoms: N_2  and  C_4 
REMARK    2  A    between atoms: C_4  and  C_5 
REMARK    3  A    between atoms: C_6  and  O_7 
REMARK    4  A    between atoms: O_7  and  C_8 
REMARK    5  A    between atoms: C_8  and  C_9 
REMARK       I    between atoms: C_9  and  N_10 
REMARK    6  A    between atoms: N_10  and  C_11 
REMARK    7  A    between atoms: C_11  and  C_12 
REMARK    8  A    between atoms: C_12  and  C_13 
REMARK    9  A    between atoms: C_27  and  C_28 
ROOT
HETATM    1  C   UNL     1      23.818  46.971  49.571  1.00  0.00     0.002 A 
HETATM    2  C   UNL     1      23.178  45.782  49.187  1.00  0.00     0.077 A 
HETATM    3  C   UNL     1      23.448  44.603  49.886  1.00  0.00     0.038 A 
HETATM    4  C   UNL     1      24.335  44.601  50.971  1.00  0.00     0.017 A 
HETATM    5  C   UNL     1      24.971  45.777  51.386  1.00  0.00     0.000 A 
HETATM    6  C   UNL     1      24.702  46.955  50.668  1.00  0.00     0.026 A 
ENDROOT
BRANCH   2   7
HETATM    7  O   UNL     1      22.342  45.872  48.100  1.00  0.00    -0.342 OA
BRANCH   7   8
HETATM    8  C   UNL     1      20.977  45.524  48.344  1.00  0.00     0.278 C 
BRANCH   8   9
HETATM    9  C   UNL     1      20.243  45.049  47.090  1.00  0.00     0.241 C 
HETATM   10  N   UNL     1      18.870  45.000  47.189  1.00  0.00    -0.359 N 
HETATM   11  H   UNL     1      18.464  44.948  48.112  1.00  0.00     0.162 HD
HETATM   12  O   UNL     1      20.849  44.769  46.059  1.00  0.00    -0.271 OA
BRANCH  10  13
HETATM   13  C   UNL     1      18.056  44.541  46.075  1.00  0.00     0.130 C 
BRANCH  13  14
HETATM   14  C   UNL     1      17.128  45.630  45.536  1.00  0.00     0.098 C 
BRANCH  14  15
HETATM   15  C   UNL     1      17.363  46.960  46.182  1.00  0.00     0.106 A 
HETATM   16  N   UNL     1      16.964  47.381  47.370  1.00  0.00    -0.233 NA
HETATM   17  C   UNL     1      17.529  48.630  47.522  1.00  0.00     0.087 A 
HETATM   18  C   UNL     1      18.245  48.994  46.387  1.00  0.00     0.062 A 
HETATM   19  C   UNL     1      17.483  49.513  48.609  1.00  0.00     0.057 A 
HETATM   20  N   UNL     1      18.106  47.926  45.543  1.00  0.00    -0.343 N 
HETATM   21  C   UNL     1      18.928  50.206  46.260  1.00  0.00     0.034 A 
HETATM   22  H   UNL     1      18.517  47.844  44.622  1.00  0.00     0.167 HD
HETATM   23  C   UNL     1      18.872  51.075  47.354  1.00  0.00     0.026 A 
HETATM   24  C   UNL     1      18.163  50.731  48.505  1.00  0.00     0.036 A 
HETATM   25 CL   UNL     1      18.119  51.823  49.837  1.00  0.00    -0.084 Cl
ENDBRANCH  14  15
ENDBRANCH  13  14
ENDBRANCH  10  13
ENDBRANCH   8   9
ENDBRANCH   7   8
ENDBRANCH   2   7
BRANCH   1  26
HETATM   26  C   UNL     1      23.606  48.250  48.807  1.00  0.00     0.275 C 
BRANCH  26  27
HETATM   27  N   UNL     1      22.699  49.218  49.535  1.00  0.00    -0.075 N 
HETATM   28  C   UNL     1      21.242  48.974  49.271  1.00  0.00     0.269 C 
HETATM   29  H   UNL     1      22.862  49.042  50.536  1.00  0.00     0.279 HD
HETATM   30  C   UNL     1      23.086  50.640  49.276  1.00  0.00     0.269 C 
ENDBRANCH  26  27
ENDBRANCH   1  26
BRANCH   5  31
HETATM   31  C   UNL     1      25.929  45.834  52.506  1.00  0.00     0.109 A 
HETATM   32  S   UNL     1      25.973  47.162  53.597  1.00  0.00    -0.068 SA
HETATM   33  C   UNL     1      27.284  46.443  54.442  1.00  0.00     0.035 A 
HETATM   34  C   UNL     1      27.606  45.231  53.832  1.00  0.00     0.075 A 
HETATM   35  C   UNL     1      27.981  46.917  55.566  1.00  0.00     0.021 A 
HETATM   36  N   UNL     1      26.833  44.900  52.728  1.00  0.00    -0.240 NA
HETATM   37  C   UNL     1      28.661  44.462  54.363  1.00  0.00     0.033 A 
HETATM   38  C   UNL     1      29.361  44.924  55.482  1.00  0.00     0.002 A 
HETATM   39  C   UNL     1      29.024  46.137  56.074  1.00  0.00     0.002 A 
ENDBRANCH   5  31
TORSDOF 9
ENDMDL
