MODEL 1
REMARK VINA RESULT:      -8.8      0.000      0.000
REMARK  4 active torsions:
REMARK  status: ('A' for Active; 'I' for Inactive)
REMARK    1  A    between atoms: O_2  and  C_3 
REMARK    2  A    between atoms: C_5  and  N_6 
REMARK    3  A    between atoms: C_10  and  C_11 
REMARK    4  A    between atoms: C_22  and  O_23 
ROOT
HETATM    1  N   UNL     1      25.549  46.558  50.145  1.00  0.00    -0.315 N 
HETATM    2  C   UNL     1      25.352  45.232  49.735  1.00  0.00     0.225 C 
HETATM    3  O   UNL     1      24.735  44.808  48.769  1.00  0.00    -0.273 OA
HETATM    4  C   UNL     1      26.100  44.337  50.697  1.00  0.00     0.117 C 
HETATM    5  C   UNL     1      26.184  45.222  51.930  1.00  0.00     0.082 C 
HETATM    6  C   UNL     1      26.397  46.599  51.318  1.00  0.00     0.145 C 
ENDROOT
BRANCH   1   7
HETATM    7  C   UNL     1      24.975  47.724  49.561  1.00  0.00     0.073 A 
HETATM    8  C   UNL     1      23.598  47.971  49.716  1.00  0.00     0.069 A 
HETATM    9  C   UNL     1      23.009  49.147  49.239  1.00  0.00     0.070 A 
HETATM   10  C   UNL     1      23.789  50.075  48.554  1.00  0.00     0.039 A 
HETATM   11  C   UNL     1      25.149  49.846  48.366  1.00  0.00     0.042 A 
HETATM   12  C   UNL     1      25.742  48.674  48.852  1.00  0.00     0.095 A 
BRANCH   9  13
HETATM   13  O   UNL     1      21.697  49.501  49.390  1.00  0.00    -0.356 OA
HETATM   14  C   UNL     1      21.449  50.847  49.781  1.00  0.00     0.210 C 
ENDBRANCH   9  13
BRANCH  12  15
HETATM   15  O   UNL     1      27.083  48.460  48.657  1.00  0.00    -0.354 OA
HETATM   16  C   UNL     1      27.900  49.533  49.123  1.00  0.00     0.210 C 
ENDBRANCH  12  15
ENDBRANCH   1   7
BRANCH   5  17
HETATM   17  C   UNL     1      27.233  44.819  52.899  1.00  0.00     0.111 A 
HETATM   18  N   UNL     1      28.014  43.762  52.836  1.00  0.00    -0.233 NA
HETATM   19  C   UNL     1      28.883  43.876  53.895  1.00  0.00     0.085 A 
HETATM   20  C   UNL     1      28.607  45.017  54.640  1.00  0.00     0.062 A 
HETATM   21  C   UNL     1      29.946  43.049  54.280  1.00  0.00     0.034 A 
HETATM   22  N   UNL     1      27.538  45.586  53.999  1.00  0.00    -0.342 N 
HETATM   23  C   UNL     1      29.339  45.395  55.766  1.00  0.00     0.032 A 
HETATM   24  H   UNL     1      27.082  46.446  54.267  1.00  0.00     0.167 HD
HETATM   25  C   UNL     1      30.402  44.561  56.132  1.00  0.00     0.002 A 
HETATM   26  C   UNL     1      30.704  43.407  55.403  1.00  0.00     0.002 A 
ENDBRANCH   5  17
TORSDOF 4
ENDMDL
MODEL 2
REMARK VINA RESULT:      -8.5      1.696      3.278
REMARK  4 active torsions:
REMARK  status: ('A' for Active; 'I' for Inactive)
REMARK    1  A    between atoms: O_2  and  C_3 
REMARK    2  A    between atoms: C_5  and  N_6 
REMARK    3  A    between atoms: C_10  and  C_11 
REMARK    4  A    between atoms: C_22  and  O_23 
ROOT
HETATM    1  N   UNL     1      26.555  45.438  51.132  1.00  0.00    -0.315 N 
HETATM    2  C   UNL     1      27.217  44.299  50.649  1.00  0.00     0.225 C 
HETATM    3  O   UNL     1      27.111  43.749  49.564  1.00  0.00    -0.273 OA
HETATM    4  C   UNL     1      28.182  43.841  51.719  1.00  0.00     0.117 C 
HETATM    5  C   UNL     1      27.555  44.436  52.968  1.00  0.00     0.082 C 
HETATM    6  C   UNL     1      27.035  45.772  52.456  1.00  0.00     0.145 C 
ENDROOT
BRANCH   1   7
HETATM    7  C   UNL     1      25.518  46.161  50.477  1.00  0.00     0.073 A 
HETATM    8  C   UNL     1      25.763  47.472  50.026  1.00  0.00     0.069 A 
HETATM    9  C   UNL     1      24.805  48.185  49.298  1.00  0.00     0.070 A 
HETATM   10  C   UNL     1      23.562  47.608  49.052  1.00  0.00     0.039 A 
HETATM   11  C   UNL     1      23.283  46.321  49.504  1.00  0.00     0.042 A 
HETATM   12  C   UNL     1      24.246  45.602  50.224  1.00  0.00     0.095 A 
BRANCH   9  13
HETATM   13  O   UNL     1      24.970  49.437  48.772  1.00  0.00    -0.356 OA
HETATM   14  C   UNL     1      26.290  49.779  48.363  1.00  0.00     0.210 C 
ENDBRANCH   9  13
BRANCH  12  15
HETATM   15  O   UNL     1      23.957  44.336  50.668  1.00  0.00    -0.354 OA
HETATM   16  C   UNL     1      23.170  43.581  49.747  1.00  0.00     0.210 C 
ENDBRANCH  12  15
ENDBRANCH   1   7
BRANCH   5  17
HETATM   17  C   UNL     1      28.480  44.546  54.123  1.00  0.00     0.111 A 
HETATM   18  N   UNL     1      28.469  45.458  55.071  1.00  0.00    -0.233 NA
HETATM   19  C   UNL     1      29.444  45.082  55.963  1.00  0.00     0.085 A 
HETATM   20  C   UNL     1      30.086  43.926  55.535  1.00  0.00     0.062 A 
HETATM   21  C   UNL     1      29.833  45.671  57.174  1.00  0.00     0.034 A 
HETATM   22  N   UNL     1      29.470  43.619  54.350  1.00  0.00    -0.342 N 
HETATM   23  C   UNL     1      31.111  43.305  56.251  1.00  0.00     0.032 A 
HETATM   24  H   UNL     1      29.682  42.821  53.767  1.00  0.00     0.167 HD
HETATM   25  C   UNL     1      31.481  43.903  57.461  1.00  0.00     0.002 A 
HETATM   26  C   UNL     1      30.854  45.066  57.918  1.00  0.00     0.002 A 
ENDBRANCH   5  17
TORSDOF 4
ENDMDL
MODEL 3
REMARK VINA RESULT:      -8.5      2.832      8.288
REMARK  4 active torsions:
REMARK  status: ('A' for Active; 'I' for Inactive)
REMARK    1  A    between atoms: O_2  and  C_3 
REMARK    2  A    between atoms: C_5  and  N_6 
REMARK    3  A    between atoms: C_10  and  C_11 
REMARK    4  A    between atoms: C_22  and  O_23 
ROOT
HETATM    1  N   UNL     1      27.226  45.001  53.635  1.00  0.00    -0.315 N 
HETATM    2  C   UNL     1      25.951  44.470  53.876  1.00  0.00     0.225 C 
HETATM    3  O   UNL     1      25.590  43.705  54.757  1.00  0.00    -0.273 OA
HETATM    4  C   UNL     1      25.008  45.053  52.848  1.00  0.00     0.117 C 
HETATM    5  C   UNL     1      25.970  45.429  51.734  1.00  0.00     0.082 C 
HETATM    6  C   UNL     1      27.184  45.916  52.513  1.00  0.00     0.145 C 
ENDROOT
BRANCH   1   7
HETATM    7  C   UNL     1      28.428  44.677  54.327  1.00  0.00     0.073 A 
HETATM    8  C   UNL     1      28.836  45.469  55.417  1.00  0.00     0.069 A 
HETATM    9  C   UNL     1      29.958  45.135  56.182  1.00  0.00     0.070 A 
HETATM   10  C   UNL     1      30.720  44.024  55.833  1.00  0.00     0.039 A 
HETATM   11  C   UNL     1      30.355  43.236  54.745  1.00  0.00     0.042 A 
HETATM   12  C   UNL     1      29.224  43.562  53.985  1.00  0.00     0.095 A 
BRANCH   9  13
HETATM   13  O   UNL     1      30.398  45.807  57.290  1.00  0.00    -0.356 OA
HETATM   14  C   UNL     1      31.010  45.017  58.304  1.00  0.00     0.210 C 
ENDBRANCH   9  13
BRANCH  12  15
HETATM   15  O   UNL     1      28.877  42.779  52.913  1.00  0.00    -0.354 OA
HETATM   16  C   UNL     1      28.336  41.514  53.291  1.00  0.00     0.210 C 
ENDBRANCH  12  15
ENDBRANCH   1   7
BRANCH   5  17
HETATM   17  C   UNL     1      25.429  46.420  50.770  1.00  0.00     0.111 A 
HETATM   18  N   UNL     1      24.196  46.503  50.319  1.00  0.00    -0.233 NA
HETATM   19  C   UNL     1      24.159  47.635  49.539  1.00  0.00     0.085 A 
HETATM   20  C   UNL     1      25.409  48.242  49.491  1.00  0.00     0.062 A 
HETATM   21  C   UNL     1      23.089  48.218  48.849  1.00  0.00     0.034 A 
HETATM   22  N   UNL     1      26.204  47.436  50.263  1.00  0.00    -0.342 N 
HETATM   23  C   UNL     1      25.665  49.418  48.785  1.00  0.00     0.032 A 
HETATM   24  H   UNL     1      27.183  47.591  50.458  1.00  0.00     0.167 HD
HETATM   25  C   UNL     1      24.582  49.990  48.107  1.00  0.00     0.002 A 
HETATM   26  C   UNL     1      23.314  49.403  48.136  1.00  0.00     0.002 A 
ENDBRANCH   5  17
TORSDOF 4
ENDMDL
MODEL 4
REMARK VINA RESULT:      -8.5      2.335      3.841
REMARK  4 active torsions:
REMARK  status: ('A' for Active; 'I' for Inactive)
REMARK    1  A    between atoms: O_2  and  C_3 
REMARK    2  A    between atoms: C_5  and  N_6 
REMARK    3  A    between atoms: C_10  and  C_11 
REMARK    4  A    between atoms: C_22  and  O_23 
ROOT
HETATM    1  N   UNL     1      25.928  46.199  52.903  1.00  0.00    -0.315 N 
HETATM    2  C   UNL     1      25.778  47.270  53.796  1.00  0.00     0.225 C 
HETATM    3  O   UNL     1      24.951  48.169  53.789  1.00  0.00    -0.273 OA
HETATM    4  C   UNL     1      26.831  47.122  54.872  1.00  0.00     0.117 C 
HETATM    5  C   UNL     1      27.875  46.278  54.159  1.00  0.00     0.082 C 
HETATM    6  C   UNL     1      27.011  45.338  53.330  1.00  0.00     0.145 C 
ENDROOT
BRANCH   1   7
HETATM    7  C   UNL     1      25.185  45.977  51.709  1.00  0.00     0.073 A 
HETATM    8  C   UNL     1      24.363  44.839  51.603  1.00  0.00     0.069 A 
HETATM    9  C   UNL     1      23.547  44.628  50.488  1.00  0.00     0.070 A 
HETATM   10  C   UNL     1      23.580  45.536  49.433  1.00  0.00     0.039 A 
HETATM   11  C   UNL     1      24.400  46.659  49.499  1.00  0.00     0.042 A 
HETATM   12  C   UNL     1      25.210  46.877  50.621  1.00  0.00     0.095 A 
BRANCH   9  13
HETATM   13  O   UNL     1      22.676  43.586  50.320  1.00  0.00    -0.356 OA
HETATM   14  C   UNL     1      23.123  42.520  49.490  1.00  0.00     0.210 C 
ENDBRANCH   9  13
BRANCH  12  15
HETATM   15  O   UNL     1      26.017  47.986  50.672  1.00  0.00    -0.354 OA
HETATM   16  C   UNL     1      26.541  48.361  49.399  1.00  0.00     0.210 C 
ENDBRANCH  12  15
ENDBRANCH   1   7
BRANCH   5  17
HETATM   17  C   UNL     1      28.825  45.589  55.067  1.00  0.00     0.111 A 
HETATM   18  N   UNL     1      29.479  44.471  54.838  1.00  0.00    -0.233 NA
HETATM   19  C   UNL     1      30.306  44.293  55.922  1.00  0.00     0.085 A 
HETATM   20  C   UNL     1      30.134  45.315  56.848  1.00  0.00     0.062 A 
HETATM   21  C   UNL     1      31.247  43.288  56.180  1.00  0.00     0.034 A 
HETATM   22  N   UNL     1      29.169  46.113  56.291  1.00  0.00    -0.342 N 
HETATM   23  C   UNL     1      30.854  45.402  58.040  1.00  0.00     0.032 A 
HETATM   24  H   UNL     1      28.806  46.965  56.696  1.00  0.00     0.167 HD
HETATM   25  C   UNL     1      31.795  44.393  58.278  1.00  0.00     0.002 A 
HETATM   26  C   UNL     1      31.991  43.353  57.367  1.00  0.00     0.002 A 
ENDBRANCH   5  17
TORSDOF 4
ENDMDL
MODEL 5
REMARK VINA RESULT:      -8.3      3.076      8.912
REMARK  4 active torsions:
REMARK  status: ('A' for Active; 'I' for Inactive)
REMARK    1  A    between atoms: O_2  and  C_3 
REMARK    2  A    between atoms: C_5  and  N_6 
REMARK    3  A    between atoms: C_10  and  C_11 
REMARK    4  A    between atoms: C_22  and  O_23 
ROOT
HETATM    1  N   UNL     1      25.210  47.706  49.601  1.00  0.00    -0.315 N 
HETATM    2  C   UNL     1      25.950  48.784  49.094  1.00  0.00     0.225 C 
HETATM    3  O   UNL     1      27.162  48.923  49.029  1.00  0.00    -0.273 OA
HETATM    4  C   UNL     1      24.969  49.804  48.560  1.00  0.00     0.117 C 
HETATM    5  C   UNL     1      23.717  49.462  49.349  1.00  0.00     0.082 C 
HETATM    6  C   UNL     1      23.793  47.943  49.423  1.00  0.00     0.145 C 
ENDROOT
BRANCH   1   7
HETATM    7  C   UNL     1      25.727  46.551  50.255  1.00  0.00     0.073 A 
HETATM    8  C   UNL     1      26.147  45.448  49.488  1.00  0.00     0.069 A 
HETATM    9  C   UNL     1      26.745  44.332  50.080  1.00  0.00     0.070 A 
HETATM   10  C   UNL     1      26.888  44.284  51.465  1.00  0.00     0.039 A 
HETATM   11  C   UNL     1      26.461  45.350  52.251  1.00  0.00     0.042 A 
HETATM   12  C   UNL     1      25.872  46.474  51.658  1.00  0.00     0.095 A 
BRANCH   9  13
HETATM   13  O   UNL     1      27.234  43.241  49.416  1.00  0.00    -0.356 OA
HETATM   14  C   UNL     1      27.005  41.976  50.028  1.00  0.00     0.210 C 
ENDBRANCH   9  13
BRANCH  12  15
HETATM   15  O   UNL     1      25.452  47.517  52.445  1.00  0.00    -0.354 OA
HETATM   16  C   UNL     1      25.848  47.389  53.810  1.00  0.00     0.210 C 
ENDBRANCH  12  15
ENDBRANCH   1   7
BRANCH   5  17
HETATM   17  C   UNL     1      22.461  49.980  48.753  1.00  0.00     0.111 A 
HETATM   18  N   UNL     1      21.797  49.481  47.733  1.00  0.00    -0.233 NA
HETATM   19  C   UNL     1      20.655  50.239  47.624  1.00  0.00     0.085 A 
HETATM   20  C   UNL     1      20.634  51.242  48.585  1.00  0.00     0.062 A 
HETATM   21  C   UNL     1      19.578  50.121  46.734  1.00  0.00     0.034 A 
HETATM   22  N   UNL     1      21.805  51.070  49.275  1.00  0.00    -0.342 N 
HETATM   23  C   UNL     1      19.587  52.155  48.721  1.00  0.00     0.032 A 
HETATM   24  H   UNL     1      22.111  51.626  50.062  1.00  0.00     0.167 HD
HETATM   25  C   UNL     1      18.517  52.018  47.829  1.00  0.00     0.002 A 
HETATM   26  C   UNL     1      18.509  51.020  46.852  1.00  0.00     0.002 A 
ENDBRANCH   5  17
TORSDOF 4
ENDMDL
MODEL 6
REMARK VINA RESULT:      -8.0      2.244      4.395
REMARK  4 active torsions:
REMARK  status: ('A' for Active; 'I' for Inactive)
REMARK    1  A    between atoms: O_2  and  C_3 
REMARK    2  A    between atoms: C_5  and  N_6 
REMARK    3  A    between atoms: C_10  and  C_11 
REMARK    4  A    between atoms: C_22  and  O_23 
ROOT
HETATM    1  N   UNL     1      23.363  49.175  48.822  1.00  0.00    -0.315 N 
HETATM    2  C   UNL     1      24.595  49.551  48.267  1.00  0.00     0.225 C 
HETATM    3  O   UNL     1      24.822  50.323  47.348  1.00  0.00    -0.273 OA
HETATM    4  C   UNL     1      25.685  48.853  49.050  1.00  0.00     0.117 C 
HETATM    5  C   UNL     1      24.930  47.667  49.626  1.00  0.00     0.082 C 
HETATM    6  C   UNL     1      23.571  48.277  49.939  1.00  0.00     0.145 C 
ENDROOT
BRANCH   1   7
HETATM    7  C   UNL     1      22.070  49.550  48.357  1.00  0.00     0.073 A 
HETATM    8  C   UNL     1      21.533  50.796  48.731  1.00  0.00     0.069 A 
HETATM    9  C   UNL     1      20.309  51.244  48.225  1.00  0.00     0.070 A 
HETATM   10  C   UNL     1      19.578  50.423  47.370  1.00  0.00     0.039 A 
HETATM   11  C   UNL     1      20.074  49.175  47.001  1.00  0.00     0.042 A 
HETATM   12  C   UNL     1      21.306  48.730  47.499  1.00  0.00     0.095 A 
BRANCH   9  13
HETATM   13  O   UNL     1      19.733  52.458  48.483  1.00  0.00    -0.356 OA
HETATM   14  C   UNL     1      18.367  52.434  48.884  1.00  0.00     0.210 C 
ENDBRANCH   9  13
BRANCH  12  15
HETATM   15  O   UNL     1      21.782  47.497  47.130  1.00  0.00    -0.354 OA
HETATM   16  C   UNL     1      20.978  46.417  47.604  1.00  0.00     0.210 C 
ENDBRANCH  12  15
ENDBRANCH   1   7
BRANCH   5  17
HETATM   17  C   UNL     1      25.593  47.031  50.791  1.00  0.00     0.111 A 
HETATM   18  N   UNL     1      25.666  47.496  52.020  1.00  0.00    -0.233 NA
HETATM   19  C   UNL     1      26.282  46.511  52.756  1.00  0.00     0.085 A 
HETATM   20  C   UNL     1      26.616  45.429  51.951  1.00  0.00     0.062 A 
HETATM   21  C   UNL     1      26.577  46.463  54.125  1.00  0.00     0.034 A 
HETATM   22  N   UNL     1      26.189  45.795  50.702  1.00  0.00    -0.342 N 
HETATM   23  C   UNL     1      27.240  44.277  52.432  1.00  0.00     0.032 A 
HETATM   24  H   UNL     1      26.263  45.230  49.867  1.00  0.00     0.167 HD
HETATM   25  C   UNL     1      27.521  44.243  53.803  1.00  0.00     0.002 A 
HETATM   26  C   UNL     1      27.197  45.315  54.638  1.00  0.00     0.002 A 
ENDBRANCH   5  17
TORSDOF 4
ENDMDL
MODEL 7
REMARK VINA RESULT:      -7.9      4.995      8.094
REMARK  4 active torsions:
REMARK  status: ('A' for Active; 'I' for Inactive)
REMARK    1  A    between atoms: O_2  and  C_3 
REMARK    2  A    between atoms: C_5  and  N_6 
REMARK    3  A    between atoms: C_10  and  C_11 
REMARK    4  A    between atoms: C_22  and  O_23 
ROOT
HETATM    1  N   UNL     1      19.704  49.786  48.297  1.00  0.00    -0.315 N 
HETATM    2  C   UNL     1      19.954  51.159  48.430  1.00  0.00     0.225 C 
HETATM    3  O   UNL     1      19.159  52.082  48.516  1.00  0.00    -0.273 OA
HETATM    4  C   UNL     1      21.453  51.348  48.502  1.00  0.00     0.117 C 
HETATM    5  C   UNL     1      21.950  50.090  47.811  1.00  0.00     0.082 C 
HETATM    6  C   UNL     1      20.950  49.048  48.291  1.00  0.00     0.145 C 
ENDROOT
BRANCH   1   7
HETATM    7  C   UNL     1      18.433  49.164  48.133  1.00  0.00     0.073 A 
HETATM    8  C   UNL     1      17.639  49.493  47.019  1.00  0.00     0.069 A 
HETATM    9  C   UNL     1      16.427  48.841  46.768  1.00  0.00     0.070 A 
HETATM   10  C   UNL     1      15.968  47.879  47.664  1.00  0.00     0.039 A 
HETATM   11  C   UNL     1      16.721  47.550  48.787  1.00  0.00     0.042 A 
HETATM   12  C   UNL     1      17.940  48.194  49.034  1.00  0.00     0.095 A 
BRANCH   9  13
HETATM   13  O   UNL     1      15.616  49.050  45.687  1.00  0.00    -0.356 OA
HETATM   14  C   UNL     1      14.219  48.886  45.906  1.00  0.00     0.210 C 
ENDBRANCH   9  13
BRANCH  12  15
HETATM   15  O   UNL     1      18.672  47.862  50.146  1.00  0.00    -0.354 OA
HETATM   16  C   UNL     1      18.507  48.782  51.224  1.00  0.00     0.210 C 
ENDBRANCH  12  15
ENDBRANCH   1   7
BRANCH   5  17
HETATM   17  C   UNL     1      23.366  49.753  48.103  1.00  0.00     0.111 A 
HETATM   18  N   UNL     1      24.437  50.430  47.747  1.00  0.00    -0.233 NA
HETATM   19  C   UNL     1      25.499  49.784  48.335  1.00  0.00     0.085 A 
HETATM   20  C   UNL     1      25.067  48.670  49.046  1.00  0.00     0.062 A 
HETATM   21  C   UNL     1      26.864  50.099  48.320  1.00  0.00     0.034 A 
HETATM   22  N   UNL     1      23.710  48.659  48.862  1.00  0.00    -0.342 N 
HETATM   23  C   UNL     1      25.928  47.832  49.757  1.00  0.00     0.032 A 
HETATM   24  H   UNL     1      23.069  47.985  49.256  1.00  0.00     0.167 HD
HETATM   25  C   UNL     1      27.287  48.166  49.737  1.00  0.00     0.002 A 
HETATM   26  C   UNL     1      27.751  49.280  49.031  1.00  0.00     0.002 A 
ENDBRANCH   5  17
TORSDOF 4
ENDMDL
MODEL 8
REMARK VINA RESULT:      -7.9      5.148      7.004
REMARK  4 active torsions:
REMARK  status: ('A' for Active; 'I' for Inactive)
REMARK    1  A    between atoms: O_2  and  C_3 
REMARK    2  A    between atoms: C_5  and  N_6 
REMARK    3  A    between atoms: C_10  and  C_11 
REMARK    4  A    between atoms: C_22  and  O_23 
ROOT
HETATM    1  N   UNL     1      27.655  41.783  50.963  1.00  0.00    -0.315 N 
HETATM    2  C   UNL     1      26.459  42.384  51.384  1.00  0.00     0.225 C 
HETATM    3  O   UNL     1      25.337  42.275  50.915  1.00  0.00    -0.273 OA
HETATM    4  C   UNL     1      26.767  43.208  52.614  1.00  0.00     0.117 C 
HETATM    5  C   UNL     1      28.254  43.466  52.441  1.00  0.00     0.082 C 
HETATM    6  C   UNL     1      28.739  42.149  51.851  1.00  0.00     0.145 C 
ENDROOT
BRANCH   1   7
HETATM    7  C   UNL     1      27.839  40.970  49.808  1.00  0.00     0.073 A 
HETATM    8  C   UNL     1      27.379  41.427  48.559  1.00  0.00     0.069 A 
HETATM    9  C   UNL     1      27.619  40.705  47.385  1.00  0.00     0.070 A 
HETATM   10  C   UNL     1      28.284  39.484  47.454  1.00  0.00     0.039 A 
HETATM   11  C   UNL     1      28.730  38.997  48.679  1.00  0.00     0.042 A 
HETATM   12  C   UNL     1      28.501  39.723  49.855  1.00  0.00     0.095 A 
BRANCH   9  13
HETATM   13  O   UNL     1      27.263  41.093  46.122  1.00  0.00    -0.356 OA
HETATM   14  C   UNL     1      28.193  40.797  45.086  1.00  0.00     0.210 C 
ENDBRANCH   9  13
BRANCH  12  15
HETATM   15  O   UNL     1      28.942  39.230  51.056  1.00  0.00    -0.354 OA
HETATM   16  C   UNL     1      29.822  38.115  50.919  1.00  0.00     0.210 C 
ENDBRANCH  12  15
ENDBRANCH   1   7
BRANCH   5  17
HETATM   17  C   UNL     1      28.952  43.868  53.687  1.00  0.00     0.111 A 
HETATM   18  N   UNL     1      28.735  44.944  54.412  1.00  0.00    -0.233 NA
HETATM   19  C   UNL     1      29.548  44.822  55.514  1.00  0.00     0.085 A 
HETATM   20  C   UNL     1      30.300  43.655  55.447  1.00  0.00     0.062 A 
HETATM   21  C   UNL     1      29.690  45.663  56.626  1.00  0.00     0.034 A 
HETATM   22  N   UNL     1      29.920  43.078  54.263  1.00  0.00    -0.342 N 
HETATM   23  C   UNL     1      31.202  43.263  56.437  1.00  0.00     0.032 A 
HETATM   24  H   UNL     1      30.263  42.200  53.901  1.00  0.00     0.167 HD
HETATM   25  C   UNL     1      31.325  44.112  57.543  1.00  0.00     0.002 A 
HETATM   26  C   UNL     1      30.583  45.292  57.640  1.00  0.00     0.002 A 
ENDBRANCH   5  17
TORSDOF 4
ENDMDL
MODEL 9
REMARK VINA RESULT:      -7.9      2.909      8.770
REMARK  4 active torsions:
REMARK  status: ('A' for Active; 'I' for Inactive)
REMARK    1  A    between atoms: O_2  and  C_3 
REMARK    2  A    between atoms: C_5  and  N_6 
REMARK    3  A    between atoms: C_10  and  C_11 
REMARK    4  A    between atoms: C_22  and  O_23 
ROOT
HETATM    1  N   UNL     1      25.204  47.884  49.882  1.00  0.00    -0.315 N 
HETATM    2  C   UNL     1      25.941  48.760  49.072  1.00  0.00     0.225 C 
HETATM    3  O   UNL     1      27.147  48.804  48.885  1.00  0.00    -0.273 OA
HETATM    4  C   UNL     1      24.961  49.679  48.378  1.00  0.00     0.117 C 
HETATM    5  C   UNL     1      23.769  49.616  49.318  1.00  0.00     0.082 C 
HETATM    6  C   UNL     1      23.787  48.158  49.756  1.00  0.00     0.145 C 
ENDROOT
BRANCH   1   7
HETATM    7  C   UNL     1      25.727  46.891  50.759  1.00  0.00     0.073 A 
HETATM    8  C   UNL     1      25.999  47.224  52.099  1.00  0.00     0.069 A 
HETATM    9  C   UNL     1      26.426  46.260  53.018  1.00  0.00     0.070 A 
HETATM   10  C   UNL     1      26.635  44.951  52.592  1.00  0.00     0.039 A 
HETATM   11  C   UNL     1      26.396  44.598  51.267  1.00  0.00     0.042 A 
HETATM   12  C   UNL     1      25.958  45.560  50.348  1.00  0.00     0.095 A 
BRANCH   9  13
HETATM   13  O   UNL     1      26.661  46.474  54.349  1.00  0.00    -0.356 OA
HETATM   14  C   UNL     1      26.332  47.766  54.847  1.00  0.00     0.210 C 
ENDBRANCH   9  13
BRANCH  12  15
HETATM   15  O   UNL     1      25.729  45.200  49.044  1.00  0.00    -0.354 OA
HETATM   16  C   UNL     1      24.534  44.440  48.869  1.00  0.00     0.210 C 
ENDBRANCH  12  15
ENDBRANCH   1   7
BRANCH   5  17
HETATM   17  C   UNL     1      22.489  50.052  48.708  1.00  0.00     0.111 A 
HETATM   18  N   UNL     1      21.800  49.435  47.772  1.00  0.00    -0.233 NA
HETATM   19  C   UNL     1      20.646  50.165  47.615  1.00  0.00     0.085 A 
HETATM   20  C   UNL     1      20.642  51.269  48.458  1.00  0.00     0.062 A 
HETATM   21  C   UNL     1      19.544  49.938  46.779  1.00  0.00     0.034 A 
HETATM   22  N   UNL     1      21.835  51.188  49.126  1.00  0.00    -0.342 N 
HETATM   23  C   UNL     1      19.587  52.182  48.524  1.00  0.00     0.032 A 
HETATM   24  H   UNL     1      22.157  51.831  49.835  1.00  0.00     0.167 HD
HETATM   25  C   UNL     1      18.492  51.935  47.688  1.00  0.00     0.002 A 
HETATM   26  C   UNL     1      18.468  50.834  46.829  1.00  0.00     0.002 A 
ENDBRANCH   5  17
TORSDOF 4
ENDMDL
MODEL 10
REMARK VINA RESULT:      -7.8      2.237      3.803
REMARK  4 active torsions:
REMARK  status: ('A' for Active; 'I' for Inactive)
REMARK    1  A    between atoms: O_2  and  C_3 
REMARK    2  A    between atoms: C_5  and  N_6 
REMARK    3  A    between atoms: C_10  and  C_11 
REMARK    4  A    between atoms: C_22  and  O_23 
ROOT
HETATM    1  N   UNL     1      25.867  46.460  53.027  1.00  0.00    -0.315 N 
HETATM    2  C   UNL     1      25.755  47.477  53.985  1.00  0.00     0.225 C 
HETATM    3  O   UNL     1      24.944  48.389  54.049  1.00  0.00    -0.273 OA
HETATM    4  C   UNL     1      26.824  47.246  55.030  1.00  0.00     0.117 C 
HETATM    5  C   UNL     1      27.839  46.429  54.247  1.00  0.00     0.082 C 
HETATM    6  C   UNL     1      26.942  45.556  53.380  1.00  0.00     0.145 C 
ENDROOT
BRANCH   1   7
HETATM    7  C   UNL     1      25.099  46.324  51.836  1.00  0.00     0.073 A 
HETATM    8  C   UNL     1      24.800  47.466  51.069  1.00  0.00     0.069 A 
HETATM    9  C   UNL     1      24.128  47.369  49.846  1.00  0.00     0.070 A 
HETATM   10  C   UNL     1      23.701  46.123  49.395  1.00  0.00     0.039 A 
HETATM   11  C   UNL     1      23.963  44.978  50.143  1.00  0.00     0.042 A 
HETATM   12  C   UNL     1      24.646  45.073  51.363  1.00  0.00     0.095 A 
BRANCH   9  13
HETATM   13  O   UNL     1      23.843  48.411  49.007  1.00  0.00    -0.356 OA
HETATM   14  C   UNL     1      22.505  48.897  49.038  1.00  0.00     0.210 C 
ENDBRANCH   9  13
BRANCH  12  15
HETATM   15  O   UNL     1      24.894  43.938  52.093  1.00  0.00    -0.354 OA
HETATM   16  C   UNL     1      25.088  42.778  51.284  1.00  0.00     0.210 C 
ENDBRANCH  12  15
ENDBRANCH   1   7
BRANCH   5  17
HETATM   17  C   UNL     1      28.792  45.669  55.094  1.00  0.00     0.111 A 
HETATM   18  N   UNL     1      29.448  44.575  54.772  1.00  0.00    -0.233 NA
HETATM   19  C   UNL     1      30.278  44.311  55.835  1.00  0.00     0.085 A 
HETATM   20  C   UNL     1      30.105  45.252  56.843  1.00  0.00     0.062 A 
HETATM   21  C   UNL     1      31.222  43.290  56.008  1.00  0.00     0.034 A 
HETATM   22  N   UNL     1      29.137  46.091  56.356  1.00  0.00    -0.342 N 
HETATM   23  C   UNL     1      30.827  45.242  58.037  1.00  0.00     0.032 A 
HETATM   24  H   UNL     1      28.773  46.906  56.830  1.00  0.00     0.167 HD
HETATM   25  C   UNL     1      31.771  44.219  58.189  1.00  0.00     0.002 A 
HETATM   26  C   UNL     1      31.968  43.258  57.194  1.00  0.00     0.002 A 
ENDBRANCH   5  17
TORSDOF 4
ENDMDL
