MODEL 1
REMARK VINA RESULT:      -9.0      0.000      0.000
REMARK  7 active torsions:
REMARK  status: ('A' for Active; 'I' for Inactive)
REMARK    1  A    between atoms: C_2  and  N_3 
REMARK    2  A    between atoms: C_2  and  C_17 
REMARK       I    between atoms: N_3  and  C_4 
REMARK    3  A    between atoms: C_4  and  C_5 
REMARK    4  A    between atoms: C_7  and  N_8 
REMARK    5  A    between atoms: C_17  and  O_18 
REMARK    6  A    between atoms: C_17  and  C_19 
REMARK    7  A    between atoms: C_22  and  O_23 
ROOT
HETATM    1  N   UNL     1      25.980  45.862  51.282  1.00  0.00    -0.349 N 
HETATM    2  C   UNL     1      26.667  46.092  50.111  1.00  0.00     0.270 C 
HETATM    3  O   UNL     1      27.342  45.247  49.534  1.00  0.00    -0.266 OA
HETATM    4  H   UNL     1      25.433  46.641  51.638  1.00  0.00     0.163 HD
ENDROOT
BRANCH   1   5
HETATM    5  C   UNL     1      25.976  44.594  52.007  1.00  0.00     0.114 C 
HETATM    6  C   UNL     1      24.808  43.720  51.538  1.00  0.00     0.035 C 
BRANCH   5   7
HETATM    7  C   UNL     1      26.000  44.740  53.559  1.00  0.00     0.173 C 
BRANCH   7   8
HETATM    8  O   UNL     1      25.097  43.801  54.160  1.00  0.00    -0.389 OA
HETATM    9  H   UNL     1      24.522  43.480  53.445  1.00  0.00     0.210 HD
ENDBRANCH   7   8
BRANCH   7  10
HETATM   10  C   UNL     1      27.381  44.501  54.145  1.00  0.00    -0.028 A 
HETATM   11  C   UNL     1      27.980  45.477  54.951  1.00  0.00     0.012 A 
HETATM   12  C   UNL     1      29.254  45.273  55.489  1.00  0.00     0.037 A 
HETATM   13  C   UNL     1      29.948  44.088  55.243  1.00  0.00     0.068 A 
HETATM   14  C   UNL     1      29.366  43.113  54.434  1.00  0.00     0.037 A 
HETATM   15  C   UNL     1      28.094  43.320  53.887  1.00  0.00     0.012 A 
BRANCH  13  16
HETATM   16  O   UNL     1      31.177  44.008  55.840  1.00  0.00    -0.356 OA
HETATM   17  C   UNL     1      31.250  43.263  57.049  1.00  0.00     0.210 C 
ENDBRANCH  13  16
ENDBRANCH   7  10
ENDBRANCH   5   7
ENDBRANCH   1   5
BRANCH   2  18
HETATM   18  C   UNL     1      26.513  47.479  49.563  1.00  0.00     0.126 A 
HETATM   19  N   UNL     1      25.237  47.890  49.315  1.00  0.00    -0.224 NA
HETATM   20  C   UNL     1      25.090  49.151  48.821  1.00  0.00     0.151 A 
HETATM   21  C   UNL     1      26.172  49.993  48.560  1.00  0.00     0.052 A 
HETATM   22  C   UNL     1      27.462  49.536  48.821  1.00  0.00     0.006 A 
HETATM   23  C   UNL     1      27.640  48.257  49.337  1.00  0.00     0.037 A 
BRANCH  20  24
HETATM   24  N   UNL     1      23.767  49.630  48.576  1.00  0.00    -0.227 N 
HETATM   25  N   UNL     1      22.864  48.936  47.829  1.00  0.00    -0.179 NA
HETATM   26  C   UNL     1      21.775  49.708  47.824  1.00  0.00     0.141 A 
HETATM   27  C   UNL     1      21.948  50.894  48.553  1.00  0.00     0.040 A 
HETATM   28  C   UNL     1      23.234  50.820  49.029  1.00  0.00     0.122 A 
ENDBRANCH  20  24
ENDBRANCH   2  18
TORSDOF 7
ENDMDL
MODEL 2
REMARK VINA RESULT:      -8.4      1.880      2.652
REMARK  7 active torsions:
REMARK  status: ('A' for Active; 'I' for Inactive)
REMARK    1  A    between atoms: C_2  and  N_3 
REMARK    2  A    between atoms: C_2  and  C_17 
REMARK       I    between atoms: N_3  and  C_4 
REMARK    3  A    between atoms: C_4  and  C_5 
REMARK    4  A    between atoms: C_7  and  N_8 
REMARK    5  A    between atoms: C_17  and  O_18 
REMARK    6  A    between atoms: C_17  and  C_19 
REMARK    7  A    between atoms: C_22  and  O_23 
ROOT
HETATM    1  N   UNL     1      24.999  46.889  50.544  1.00  0.00    -0.349 N 
HETATM    2  C   UNL     1      25.566  47.901  49.802  1.00  0.00     0.270 C 
HETATM    3  O   UNL     1      26.771  48.028  49.623  1.00  0.00    -0.266 OA
HETATM    4  H   UNL     1      23.984  46.882  50.587  1.00  0.00     0.163 HD
ENDROOT
BRANCH   1   5
HETATM    5  C   UNL     1      25.752  45.845  51.236  1.00  0.00     0.114 C 
HETATM    6  C   UNL     1      25.610  44.512  50.495  1.00  0.00     0.035 C 
BRANCH   5   7
HETATM    7  C   UNL     1      25.411  45.702  52.751  1.00  0.00     0.173 C 
BRANCH   7   8
HETATM    8  O   UNL     1      24.808  44.425  53.005  1.00  0.00    -0.389 OA
HETATM    9  H   UNL     1      24.881  43.920  52.178  1.00  0.00     0.210 HD
ENDBRANCH   7   8
BRANCH   7  10
HETATM   10  C   UNL     1      26.638  45.824  53.637  1.00  0.00    -0.028 A 
HETATM   11  C   UNL     1      27.450  44.706  53.869  1.00  0.00     0.012 A 
HETATM   12  C   UNL     1      28.577  44.803  54.690  1.00  0.00     0.037 A 
HETATM   13  C   UNL     1      28.922  46.017  55.285  1.00  0.00     0.068 A 
HETATM   14  C   UNL     1      28.116  47.134  55.069  1.00  0.00     0.037 A 
HETATM   15  C   UNL     1      26.982  47.036  54.254  1.00  0.00     0.012 A 
BRANCH  13  16
HETATM   16  O   UNL     1      30.055  45.978  56.051  1.00  0.00    -0.356 OA
HETATM   17  C   UNL     1      30.679  44.710  56.202  1.00  0.00     0.210 C 
ENDBRANCH  13  16
ENDBRANCH   7  10
ENDBRANCH   5   7
ENDBRANCH   1   5
BRANCH   2  18
HETATM   18  C   UNL     1      24.579  48.851  49.192  1.00  0.00     0.126 A 
HETATM   19  N   UNL     1      23.292  48.744  49.629  1.00  0.00    -0.224 NA
HETATM   20  C   UNL     1      22.392  49.607  49.083  1.00  0.00     0.151 A 
HETATM   21  C   UNL     1      22.738  50.551  48.114  1.00  0.00     0.052 A 
HETATM   22  C   UNL     1      24.062  50.627  47.689  1.00  0.00     0.006 A 
HETATM   23  C   UNL     1      25.005  49.766  48.240  1.00  0.00     0.037 A 
BRANCH  20  24
HETATM   24  N   UNL     1      21.038  49.547  49.535  1.00  0.00    -0.227 N 
HETATM   25  N   UNL     1      20.258  48.443  49.369  1.00  0.00    -0.179 NA
HETATM   26  C   UNL     1      19.083  48.783  49.902  1.00  0.00     0.141 A 
HETATM   27  C   UNL     1      19.078  50.089  50.414  1.00  0.00     0.040 A 
HETATM   28  C   UNL     1      20.345  50.559  50.169  1.00  0.00     0.122 A 
ENDBRANCH  20  24
ENDBRANCH   2  18
TORSDOF 7
ENDMDL
MODEL 3
REMARK VINA RESULT:      -8.2      2.965      8.445
REMARK  7 active torsions:
REMARK  status: ('A' for Active; 'I' for Inactive)
REMARK    1  A    between atoms: C_2  and  N_3 
REMARK    2  A    between atoms: C_2  and  C_17 
REMARK       I    between atoms: N_3  and  C_4 
REMARK    3  A    between atoms: C_4  and  C_5 
REMARK    4  A    between atoms: C_7  and  N_8 
REMARK    5  A    between atoms: C_17  and  O_18 
REMARK    6  A    between atoms: C_17  and  C_19 
REMARK    7  A    between atoms: C_22  and  O_23 
ROOT
HETATM    1  N   UNL     1      26.778  44.125  52.019  1.00  0.00    -0.349 N 
HETATM    2  C   UNL     1      26.194  44.504  53.207  1.00  0.00     0.270 C 
HETATM    3  O   UNL     1      25.054  44.199  53.538  1.00  0.00    -0.266 OA
HETATM    4  H   UNL     1      27.742  44.419  51.882  1.00  0.00     0.163 HD
ENDROOT
BRANCH   1   5
HETATM    5  C   UNL     1      26.119  43.331  50.984  1.00  0.00     0.114 C 
HETATM    6  C   UNL     1      26.686  41.908  50.969  1.00  0.00     0.035 C 
BRANCH   5   7
HETATM    7  C   UNL     1      26.142  43.976  49.566  1.00  0.00     0.173 C 
BRANCH   7   8
HETATM    8  O   UNL     1      25.321  43.221  48.663  1.00  0.00    -0.389 OA
HETATM    9  H   UNL     1      24.407  43.313  48.984  1.00  0.00     0.210 HD
ENDBRANCH   7   8
BRANCH   7  10
HETATM   10  C   UNL     1      25.636  45.408  49.570  1.00  0.00    -0.028 A 
HETATM   11  C   UNL     1      24.267  45.669  49.419  1.00  0.00     0.012 A 
HETATM   12  C   UNL     1      23.790  46.983  49.413  1.00  0.00     0.037 A 
HETATM   13  C   UNL     1      24.665  48.059  49.567  1.00  0.00     0.068 A 
HETATM   14  C   UNL     1      26.030  47.811  49.708  1.00  0.00     0.037 A 
HETATM   15  C   UNL     1      26.511  46.497  49.705  1.00  0.00     0.012 A 
BRANCH  13  16
HETATM   16  O   UNL     1      24.068  49.290  49.558  1.00  0.00    -0.356 OA
HETATM   17  C   UNL     1      23.135  49.537  48.513  1.00  0.00     0.210 C 
ENDBRANCH  13  16
ENDBRANCH   7  10
ENDBRANCH   5   7
ENDBRANCH   1   5
BRANCH   2  18
HETATM   18  C   UNL     1      27.079  45.318  54.102  1.00  0.00     0.126 A 
HETATM   19  N   UNL     1      28.071  44.642  54.746  1.00  0.00    -0.224 NA
HETATM   20  C   UNL     1      28.881  45.377  55.557  1.00  0.00     0.151 A 
HETATM   21  C   UNL     1      28.717  46.751  55.748  1.00  0.00     0.052 A 
HETATM   22  C   UNL     1      27.688  47.407  55.076  1.00  0.00     0.006 A 
HETATM   23  C   UNL     1      26.854  46.682  54.232  1.00  0.00     0.037 A 
BRANCH  20  24
HETATM   24  N   UNL     1      29.951  44.710  56.227  1.00  0.00    -0.227 N 
HETATM   25  N   UNL     1      30.418  45.112  57.442  1.00  0.00    -0.179 NA
HETATM   26  C   UNL     1      31.408  44.260  57.716  1.00  0.00     0.141 A 
HETATM   27  C   UNL     1      31.598  43.307  56.704  1.00  0.00     0.040 A 
HETATM   28  C   UNL     1      30.650  43.615  55.760  1.00  0.00     0.122 A 
ENDBRANCH  20  24
ENDBRANCH   2  18
TORSDOF 7
ENDMDL
MODEL 4
REMARK VINA RESULT:      -8.0      4.704     10.179
REMARK  7 active torsions:
REMARK  status: ('A' for Active; 'I' for Inactive)
REMARK    1  A    between atoms: C_2  and  N_3 
REMARK    2  A    between atoms: C_2  and  C_17 
REMARK       I    between atoms: N_3  and  C_4 
REMARK    3  A    between atoms: C_4  and  C_5 
REMARK    4  A    between atoms: C_7  and  N_8 
REMARK    5  A    between atoms: C_17  and  O_18 
REMARK    6  A    between atoms: C_17  and  C_19 
REMARK    7  A    between atoms: C_22  and  O_23 
ROOT
HETATM    1  N   UNL     1      21.758  49.522  49.576  1.00  0.00    -0.349 N 
HETATM    2  C   UNL     1      22.724  49.727  48.616  1.00  0.00     0.270 C 
HETATM    3  O   UNL     1      22.517  50.287  47.545  1.00  0.00    -0.266 OA
HETATM    4  H   UNL     1      22.070  49.072  50.433  1.00  0.00     0.163 HD
ENDROOT
BRANCH   1   5
HETATM    5  C   UNL     1      20.358  49.921  49.446  1.00  0.00     0.114 C 
HETATM    6  C   UNL     1      20.166  51.350  49.964  1.00  0.00     0.035 C 
BRANCH   5   7
HETATM    7  C   UNL     1      19.344  48.930  50.094  1.00  0.00     0.173 C 
BRANCH   7   8
HETATM    8  O   UNL     1      18.982  49.381  51.408  1.00  0.00    -0.389 OA
HETATM    9  H   UNL     1      18.265  48.796  51.708  1.00  0.00     0.210 HD
ENDBRANCH   7   8
BRANCH   7  10
HETATM   10  C   UNL     1      18.069  48.788  49.281  1.00  0.00    -0.028 A 
HETATM   11  C   UNL     1      17.616  47.517  48.903  1.00  0.00     0.012 A 
HETATM   12  C   UNL     1      16.449  47.373  48.148  1.00  0.00     0.037 A 
HETATM   13  C   UNL     1      15.707  48.491  47.766  1.00  0.00     0.068 A 
HETATM   14  C   UNL     1      16.153  49.761  48.128  1.00  0.00     0.037 A 
HETATM   15  C   UNL     1      17.326  49.907  48.877  1.00  0.00     0.012 A 
BRANCH  13  16
HETATM   16  O   UNL     1      14.579  48.210  47.042  1.00  0.00    -0.356 OA
HETATM   17  C   UNL     1      14.320  49.042  45.919  1.00  0.00     0.210 C 
ENDBRANCH  13  16
ENDBRANCH   7  10
ENDBRANCH   5   7
ENDBRANCH   1   5
BRANCH   2  18
HETATM   18  C   UNL     1      24.086  49.224  48.988  1.00  0.00     0.126 A 
HETATM   19  N   UNL     1      24.137  48.325  50.011  1.00  0.00    -0.224 NA
HETATM   20  C   UNL     1      25.371  47.861  50.351  1.00  0.00     0.151 A 
HETATM   21  C   UNL     1      26.541  48.278  49.711  1.00  0.00     0.052 A 
HETATM   22  C   UNL     1      26.448  49.202  48.673  1.00  0.00     0.006 A 
HETATM   23  C   UNL     1      25.199  49.683  48.297  1.00  0.00     0.037 A 
BRANCH  20  24
HETATM   24  N   UNL     1      25.465  46.895  51.399  1.00  0.00    -0.227 N 
HETATM   25  N   UNL     1      25.845  47.224  52.665  1.00  0.00    -0.179 NA
HETATM   26  C   UNL     1      25.822  46.066  53.329  1.00  0.00     0.141 A 
HETATM   27  C   UNL     1      25.434  44.986  52.522  1.00  0.00     0.040 A 
HETATM   28  C   UNL     1      25.208  45.544  51.287  1.00  0.00     0.122 A 
ENDBRANCH  20  24
ENDBRANCH   2  18
TORSDOF 7
ENDMDL
MODEL 5
REMARK VINA RESULT:      -8.0      1.995      2.712
REMARK  7 active torsions:
REMARK  status: ('A' for Active; 'I' for Inactive)
REMARK    1  A    between atoms: C_2  and  N_3 
REMARK    2  A    between atoms: C_2  and  C_17 
REMARK       I    between atoms: N_3  and  C_4 
REMARK    3  A    between atoms: C_4  and  C_5 
REMARK    4  A    between atoms: C_7  and  N_8 
REMARK    5  A    between atoms: C_17  and  O_18 
REMARK    6  A    between atoms: C_17  and  C_19 
REMARK    7  A    between atoms: C_22  and  O_23 
ROOT
HETATM    1  N   UNL     1      26.154  44.350  50.981  1.00  0.00    -0.349 N 
HETATM    2  C   UNL     1      25.769  45.671  51.032  1.00  0.00     0.270 C 
HETATM    3  O   UNL     1      26.327  46.523  51.714  1.00  0.00    -0.266 OA
HETATM    4  H   UNL     1      25.624  43.754  50.351  1.00  0.00     0.163 HD
ENDROOT
BRANCH   1   5
HETATM    5  C   UNL     1      27.262  43.778  51.745  1.00  0.00     0.114 C 
HETATM    6  C   UNL     1      27.805  42.534  51.035  1.00  0.00     0.035 C 
BRANCH   5   7
HETATM    7  C   UNL     1      26.931  43.491  53.241  1.00  0.00     0.173 C 
BRANCH   7   8
HETATM    8  O   UNL     1      26.965  42.078  53.494  1.00  0.00    -0.389 OA
HETATM    9  H   UNL     1      27.181  41.655  52.646  1.00  0.00     0.210 HD
ENDBRANCH   7   8
BRANCH   7  10
HETATM   10  C   UNL     1      27.910  44.159  54.191  1.00  0.00    -0.028 A 
HETATM   11  C   UNL     1      29.130  43.539  54.491  1.00  0.00     0.012 A 
HETATM   12  C   UNL     1      30.035  44.139  55.370  1.00  0.00     0.037 A 
HETATM   13  C   UNL     1      29.746  45.371  55.958  1.00  0.00     0.068 A 
HETATM   14  C   UNL     1      28.531  45.992  55.675  1.00  0.00     0.037 A 
HETATM   15  C   UNL     1      27.619  45.388  54.801  1.00  0.00     0.012 A 
BRANCH  13  16
HETATM   16  O   UNL     1      30.723  45.855  56.787  1.00  0.00    -0.356 OA
HETATM   17  C   UNL     1      30.365  46.041  58.150  1.00  0.00     0.210 C 
ENDBRANCH  13  16
ENDBRANCH   7  10
ENDBRANCH   5   7
ENDBRANCH   1   5
BRANCH   2  18
HETATM   18  C   UNL     1      24.600  46.010  50.156  1.00  0.00     0.126 A 
HETATM   19  N   UNL     1      24.276  47.331  50.069  1.00  0.00    -0.224 NA
HETATM   20  C   UNL     1      23.219  47.646  49.271  1.00  0.00     0.151 A 
HETATM   21  C   UNL     1      22.479  46.685  48.579  1.00  0.00     0.052 A 
HETATM   22  C   UNL     1      22.838  45.345  48.696  1.00  0.00     0.006 A 
HETATM   23  C   UNL     1      23.921  44.996  49.494  1.00  0.00     0.037 A 
BRANCH  20  24
HETATM   24  N   UNL     1      22.865  49.023  49.130  1.00  0.00    -0.227 N 
HETATM   25  N   UNL     1      23.780  50.027  49.226  1.00  0.00    -0.179 NA
HETATM   26  C   UNL     1      23.067  51.143  49.054  1.00  0.00     0.141 A 
HETATM   27  C   UNL     1      21.703  50.888  48.847  1.00  0.00     0.040 A 
HETATM   28  C   UNL     1      21.598  49.519  48.898  1.00  0.00     0.122 A 
ENDBRANCH  20  24
ENDBRANCH   2  18
TORSDOF 7
ENDMDL
MODEL 6
REMARK VINA RESULT:      -7.8      4.269      9.115
REMARK  7 active torsions:
REMARK  status: ('A' for Active; 'I' for Inactive)
REMARK    1  A    between atoms: C_2  and  N_3 
REMARK    2  A    between atoms: C_2  and  C_17 
REMARK       I    between atoms: N_3  and  C_4 
REMARK    3  A    between atoms: C_4  and  C_5 
REMARK    4  A    between atoms: C_7  and  N_8 
REMARK    5  A    between atoms: C_17  and  O_18 
REMARK    6  A    between atoms: C_17  and  C_19 
REMARK    7  A    between atoms: C_22  and  O_23 
ROOT
HETATM    1  N   UNL     1      22.085  49.495  49.300  1.00  0.00    -0.349 N 
HETATM    2  C   UNL     1      23.103  49.617  48.381  1.00  0.00     0.270 C 
HETATM    3  O   UNL     1      22.959  50.079  47.255  1.00  0.00    -0.266 OA
HETATM    4  H   UNL     1      22.347  49.124  50.209  1.00  0.00     0.163 HD
ENDROOT
BRANCH   1   5
HETATM    5  C   UNL     1      20.695  49.877  49.056  1.00  0.00     0.114 C 
HETATM    6  C   UNL     1      20.539  51.398  49.163  1.00  0.00     0.035 C 
BRANCH   5   7
HETATM    7  C   UNL     1      19.657  49.126  49.943  1.00  0.00     0.173 C 
BRANCH   7   8
HETATM    8  O   UNL     1      18.598  50.016  50.328  1.00  0.00    -0.389 OA
HETATM    9  H   UNL     1      18.983  50.635  50.971  1.00  0.00     0.210 HD
ENDBRANCH   7   8
BRANCH   7  10
HETATM   10  C   UNL     1      19.034  47.939  49.231  1.00  0.00    -0.028 A 
HETATM   11  C   UNL     1      19.847  46.903  48.750  1.00  0.00     0.012 A 
HETATM   12  C   UNL     1      19.286  45.809  48.085  1.00  0.00     0.037 A 
HETATM   13  C   UNL     1      17.907  45.721  47.897  1.00  0.00     0.068 A 
HETATM   14  C   UNL     1      17.089  46.750  48.363  1.00  0.00     0.037 A 
HETATM   15  C   UNL     1      17.649  47.851  49.021  1.00  0.00     0.012 A 
BRANCH  13  16
HETATM   16  O   UNL     1      17.488  44.593  47.246  1.00  0.00    -0.356 OA
HETATM   17  C   UNL     1      17.303  44.701  45.840  1.00  0.00     0.210 C 
ENDBRANCH  13  16
ENDBRANCH   7  10
ENDBRANCH   5   7
ENDBRANCH   1   5
BRANCH   2  18
HETATM   18  C   UNL     1      24.441  49.153  48.873  1.00  0.00     0.126 A 
HETATM   19  N   UNL     1      24.428  48.225  49.871  1.00  0.00    -0.224 NA
HETATM   20  C   UNL     1      25.640  47.796  50.318  1.00  0.00     0.151 A 
HETATM   21  C   UNL     1      26.849  48.275  49.809  1.00  0.00     0.052 A 
HETATM   22  C   UNL     1      26.822  49.226  48.792  1.00  0.00     0.006 A 
HETATM   23  C   UNL     1      25.598  49.673  48.308  1.00  0.00     0.037 A 
BRANCH  20  24
HETATM   24  N   UNL     1      25.668  46.803  51.344  1.00  0.00    -0.227 N 
HETATM   25  N   UNL     1      25.254  45.522  51.135  1.00  0.00    -0.179 NA
HETATM   26  C   UNL     1      25.421  44.922  52.316  1.00  0.00     0.141 A 
HETATM   27  C   UNL     1      25.937  45.785  53.294  1.00  0.00     0.040 A 
HETATM   28  C   UNL     1      26.090  46.987  52.646  1.00  0.00     0.122 A 
ENDBRANCH  20  24
ENDBRANCH   2  18
TORSDOF 7
ENDMDL
MODEL 7
REMARK VINA RESULT:      -7.8      4.589     10.410
REMARK  7 active torsions:
REMARK  status: ('A' for Active; 'I' for Inactive)
REMARK    1  A    between atoms: C_2  and  N_3 
REMARK    2  A    between atoms: C_2  and  C_17 
REMARK       I    between atoms: N_3  and  C_4 
REMARK    3  A    between atoms: C_4  and  C_5 
REMARK    4  A    between atoms: C_7  and  N_8 
REMARK    5  A    between atoms: C_17  and  O_18 
REMARK    6  A    between atoms: C_17  and  C_19 
REMARK    7  A    between atoms: C_22  and  O_23 
ROOT
HETATM    1  N   UNL     1      22.284  49.624  49.527  1.00  0.00    -0.349 N 
HETATM    2  C   UNL     1      22.976  48.949  48.547  1.00  0.00     0.270 C 
HETATM    3  O   UNL     1      22.470  48.538  47.510  1.00  0.00    -0.266 OA
HETATM    4  H   UNL     1      22.831  49.938  50.325  1.00  0.00     0.163 HD
ENDROOT
BRANCH   1   5
HETATM    5  C   UNL     1      20.854  49.923  49.478  1.00  0.00     0.114 C 
HETATM    6  C   UNL     1      20.051  48.635  49.269  1.00  0.00     0.035 C 
BRANCH   5   7
HETATM    7  C   UNL     1      20.461  51.022  48.444  1.00  0.00     0.173 C 
BRANCH   7   8
HETATM    8  O   UNL     1      20.591  50.514  47.108  1.00  0.00    -0.389 OA
HETATM    9  H   UNL     1      20.845  51.271  46.553  1.00  0.00     0.210 HD
ENDBRANCH   7   8
BRANCH   7  10
HETATM   10  C   UNL     1      19.033  51.505  48.623  1.00  0.00    -0.028 A 
HETATM   11  C   UNL     1      18.110  51.370  47.577  1.00  0.00     0.012 A 
HETATM   12  C   UNL     1      16.795  51.819  47.726  1.00  0.00     0.037 A 
HETATM   13  C   UNL     1      16.373  52.399  48.923  1.00  0.00     0.068 A 
HETATM   14  C   UNL     1      17.285  52.547  49.967  1.00  0.00     0.037 A 
HETATM   15  C   UNL     1      18.604  52.107  49.816  1.00  0.00     0.012 A 
BRANCH  13  16
HETATM   16  O   UNL     1      15.058  52.782  48.942  1.00  0.00    -0.356 OA
HETATM   17  C   UNL     1      14.460  52.938  50.223  1.00  0.00     0.210 C 
ENDBRANCH  13  16
ENDBRANCH   7  10
ENDBRANCH   5   7
ENDBRANCH   1   5
BRANCH   2  18
HETATM   18  C   UNL     1      24.436  48.765  48.834  1.00  0.00     0.126 A 
HETATM   19  N   UNL     1      24.784  47.614  49.475  1.00  0.00    -0.224 NA
HETATM   20  C   UNL     1      26.109  47.439  49.733  1.00  0.00     0.151 A 
HETATM   21  C   UNL     1      27.080  48.379  49.385  1.00  0.00     0.052 A 
HETATM   22  C   UNL     1      26.686  49.547  48.736  1.00  0.00     0.006 A 
HETATM   23  C   UNL     1      25.340  49.746  48.447  1.00  0.00     0.037 A 
BRANCH  20  24
HETATM   24  N   UNL     1      26.518  46.231  50.377  1.00  0.00    -0.227 N 
HETATM   25  N   UNL     1      27.267  45.283  49.748  1.00  0.00    -0.179 NA
HETATM   26  C   UNL     1      27.423  44.323  50.662  1.00  0.00     0.141 A 
HETATM   27  C   UNL     1      26.791  44.624  51.878  1.00  0.00     0.040 A 
HETATM   28  C   UNL     1      26.218  45.855  51.671  1.00  0.00     0.122 A 
ENDBRANCH  20  24
ENDBRANCH   2  18
TORSDOF 7
ENDMDL
MODEL 8
REMARK VINA RESULT:      -7.7      2.245      3.230
REMARK  7 active torsions:
REMARK  status: ('A' for Active; 'I' for Inactive)
REMARK    1  A    between atoms: C_2  and  N_3 
REMARK    2  A    between atoms: C_2  and  C_17 
REMARK       I    between atoms: N_3  and  C_4 
REMARK    3  A    between atoms: C_4  and  C_5 
REMARK    4  A    between atoms: C_7  and  N_8 
REMARK    5  A    between atoms: C_17  and  O_18 
REMARK    6  A    between atoms: C_17  and  C_19 
REMARK    7  A    between atoms: C_22  and  O_23 
ROOT
HETATM    1  N   UNL     1      24.523  46.011  50.282  1.00  0.00    -0.349 N 
HETATM    2  C   UNL     1      24.233  47.293  49.872  1.00  0.00     0.270 C 
HETATM    3  O   UNL     1      24.921  48.271  50.140  1.00  0.00    -0.266 OA
HETATM    4  H   UNL     1      23.885  45.286  49.964  1.00  0.00     0.163 HD
ENDROOT
BRANCH   1   5
HETATM    5  C   UNL     1      25.672  45.642  51.106  1.00  0.00     0.114 C 
HETATM    6  C   UNL     1      26.509  44.572  50.397  1.00  0.00     0.035 C 
BRANCH   5   7
HETATM    7  C   UNL     1      25.311  45.221  52.563  1.00  0.00     0.173 C 
BRANCH   7   8
HETATM    8  O   UNL     1      24.925  43.839  52.598  1.00  0.00    -0.389 OA
HETATM    9  H   UNL     1      25.501  43.379  51.963  1.00  0.00     0.210 HD
ENDBRANCH   7   8
BRANCH   7  10
HETATM   10  C   UNL     1      26.470  45.407  53.527  1.00  0.00    -0.028 A 
HETATM   11  C   UNL     1      26.776  46.683  54.018  1.00  0.00     0.012 A 
HETATM   12  C   UNL     1      27.844  46.869  54.899  1.00  0.00     0.037 A 
HETATM   13  C   UNL     1      28.620  45.786  55.315  1.00  0.00     0.068 A 
HETATM   14  C   UNL     1      28.330  44.513  54.825  1.00  0.00     0.037 A 
HETATM   15  C   UNL     1      27.266  44.327  53.936  1.00  0.00     0.012 A 
BRANCH  13  16
HETATM   16  O   UNL     1      29.625  46.103  56.189  1.00  0.00    -0.356 OA
HETATM   17  C   UNL     1      30.563  45.075  56.479  1.00  0.00     0.210 C 
ENDBRANCH  13  16
ENDBRANCH   7  10
ENDBRANCH   5   7
ENDBRANCH   1   5
BRANCH   2  18
HETATM   18  C   UNL     1      22.995  47.412  49.035  1.00  0.00     0.126 A 
HETATM   19  N   UNL     1      22.267  48.554  49.193  1.00  0.00    -0.224 NA
HETATM   20  C   UNL     1      21.145  48.669  48.432  1.00  0.00     0.151 A 
HETATM   21  C   UNL     1      20.728  47.679  47.540  1.00  0.00     0.052 A 
HETATM   22  C   UNL     1      21.495  46.524  47.409  1.00  0.00     0.006 A 
HETATM   23  C   UNL     1      22.654  46.385  48.165  1.00  0.00     0.037 A 
BRANCH  20  24
HETATM   24  N   UNL     1      20.371  49.864  48.547  1.00  0.00    -0.227 N 
HETATM   25  N   UNL     1      19.025  49.848  48.755  1.00  0.00    -0.179 NA
HETATM   26  C   UNL     1      18.678  51.136  48.790  1.00  0.00     0.141 A 
HETATM   27  C   UNL     1      19.772  51.996  48.608  1.00  0.00     0.040 A 
HETATM   28  C   UNL     1      20.848  51.156  48.457  1.00  0.00     0.122 A 
ENDBRANCH  20  24
ENDBRANCH   2  18
TORSDOF 7
ENDMDL
MODEL 9
REMARK VINA RESULT:      -7.7      3.602      9.758
REMARK  7 active torsions:
REMARK  status: ('A' for Active; 'I' for Inactive)
REMARK    1  A    between atoms: C_2  and  N_3 
REMARK    2  A    between atoms: C_2  and  C_17 
REMARK       I    between atoms: N_3  and  C_4 
REMARK    3  A    between atoms: C_4  and  C_5 
REMARK    4  A    between atoms: C_7  and  N_8 
REMARK    5  A    between atoms: C_17  and  O_18 
REMARK    6  A    between atoms: C_17  and  C_19 
REMARK    7  A    between atoms: C_22  and  O_23 
ROOT
HETATM    1  N   UNL     1      23.816  48.091  49.849  1.00  0.00    -0.349 N 
HETATM    2  C   UNL     1      23.794  46.728  49.659  1.00  0.00     0.270 C 
HETATM    3  O   UNL     1      23.256  46.177  48.705  1.00  0.00    -0.266 OA
HETATM    4  H   UNL     1      24.325  48.419  50.666  1.00  0.00     0.163 HD
ENDROOT
BRANCH   1   5
HETATM    5  C   UNL     1      23.187  49.065  48.960  1.00  0.00     0.114 C 
HETATM    6  C   UNL     1      24.257  49.850  48.193  1.00  0.00     0.035 C 
BRANCH   5   7
HETATM    7  C   UNL     1      22.168  50.013  49.662  1.00  0.00     0.173 C 
BRANCH   7   8
HETATM    8  O   UNL     1      22.818  51.226  50.070  1.00  0.00    -0.389 OA
HETATM    9  H   UNL     1      22.110  51.862  50.265  1.00  0.00     0.210 HD
ENDBRANCH   7   8
BRANCH   7  10
HETATM   10  C   UNL     1      21.005  50.388  48.760  1.00  0.00    -0.028 A 
HETATM   11  C   UNL     1      20.330  51.601  48.952  1.00  0.00     0.012 A 
HETATM   12  C   UNL     1      19.253  51.954  48.135  1.00  0.00     0.037 A 
HETATM   13  C   UNL     1      18.837  51.111  47.104  1.00  0.00     0.068 A 
HETATM   14  C   UNL     1      19.495  49.897  46.909  1.00  0.00     0.037 A 
HETATM   15  C   UNL     1      20.567  49.538  47.733  1.00  0.00     0.012 A 
BRANCH  13  16
HETATM   16  O   UNL     1      17.782  51.581  46.369  1.00  0.00    -0.356 OA
HETATM   17  C   UNL     1      17.817  51.329  44.970  1.00  0.00     0.210 C 
ENDBRANCH  13  16
ENDBRANCH   7  10
ENDBRANCH   5   7
ENDBRANCH   1   5
BRANCH   2  18
HETATM   18  C   UNL     1      24.512  45.942  50.714  1.00  0.00     0.126 A 
HETATM   19  N   UNL     1      25.054  46.661  51.737  1.00  0.00    -0.224 NA
HETATM   20  C   UNL     1      25.703  45.953  52.701  1.00  0.00     0.151 A 
HETATM   21  C   UNL     1      25.834  44.563  52.663  1.00  0.00     0.052 A 
HETATM   22  C   UNL     1      25.271  43.863  51.599  1.00  0.00     0.006 A 
HETATM   23  C   UNL     1      24.592  44.560  50.606  1.00  0.00     0.037 A 
BRANCH  20  24
HETATM   24  N   UNL     1      26.259  46.668  53.806  1.00  0.00    -0.227 N 
HETATM   25  N   UNL     1      25.717  47.824  54.278  1.00  0.00    -0.179 NA
HETATM   26  C   UNL     1      26.518  48.181  55.283  1.00  0.00     0.141 A 
HETATM   27  C   UNL     1      27.576  47.280  55.479  1.00  0.00     0.040 A 
HETATM   28  C   UNL     1      27.387  46.316  54.520  1.00  0.00     0.122 A 
ENDBRANCH  20  24
ENDBRANCH   2  18
TORSDOF 7
ENDMDL
MODEL 10
REMARK VINA RESULT:      -7.6      3.115      8.717
REMARK  7 active torsions:
REMARK  status: ('A' for Active; 'I' for Inactive)
REMARK    1  A    between atoms: C_2  and  N_3 
REMARK    2  A    between atoms: C_2  and  C_17 
REMARK       I    between atoms: N_3  and  C_4 
REMARK    3  A    between atoms: C_4  and  C_5 
REMARK    4  A    between atoms: C_7  and  N_8 
REMARK    5  A    between atoms: C_17  and  O_18 
REMARK    6  A    between atoms: C_17  and  C_19 
REMARK    7  A    between atoms: C_22  and  O_23 
ROOT
HETATM    1  N   UNL     1      25.745  43.867  51.236  1.00  0.00    -0.349 N 
HETATM    2  C   UNL     1      26.401  44.740  52.074  1.00  0.00     0.270 C 
HETATM    3  O   UNL     1      26.005  45.870  52.333  1.00  0.00    -0.266 OA
HETATM    4  H   UNL     1      26.165  42.947  51.131  1.00  0.00     0.163 HD
ENDROOT
BRANCH   1   5
HETATM    5  C   UNL     1      24.504  44.171  50.525  1.00  0.00     0.114 C 
HETATM    6  C   UNL     1      23.692  42.890  50.309  1.00  0.00     0.035 C 
BRANCH   5   7
HETATM    7  C   UNL     1      24.702  44.960  49.195  1.00  0.00     0.173 C 
BRANCH   7   8
HETATM    8  O   UNL     1      24.411  44.118  48.070  1.00  0.00    -0.389 OA
HETATM    9  H   UNL     1      23.462  43.912  48.122  1.00  0.00     0.210 HD
ENDBRANCH   7   8
BRANCH   7  10
HETATM   10  C   UNL     1      23.805  46.183  49.106  1.00  0.00    -0.028 A 
HETATM   11  C   UNL     1      24.263  47.424  49.571  1.00  0.00     0.012 A 
HETATM   12  C   UNL     1      23.445  48.555  49.503  1.00  0.00     0.037 A 
HETATM   13  C   UNL     1      22.162  48.473  48.960  1.00  0.00     0.068 A 
HETATM   14  C   UNL     1      21.693  47.242  48.504  1.00  0.00     0.037 A 
HETATM   15  C   UNL     1      22.507  46.107  48.580  1.00  0.00     0.012 A 
BRANCH  13  16
HETATM   16  O   UNL     1      21.472  49.655  48.939  1.00  0.00    -0.356 OA
HETATM   17  C   UNL     1      21.942  50.682  49.804  1.00  0.00     0.210 C 
ENDBRANCH  13  16
ENDBRANCH   7  10
ENDBRANCH   5   7
ENDBRANCH   1   5
BRANCH   2  18
HETATM   18  C   UNL     1      27.656  44.191  52.682  1.00  0.00     0.126 A 
HETATM   19  N   UNL     1      28.039  44.737  53.871  1.00  0.00    -0.224 NA
HETATM   20  C   UNL     1      29.176  44.239  54.430  1.00  0.00     0.151 A 
HETATM   21  C   UNL     1      29.937  43.233  53.833  1.00  0.00     0.052 A 
HETATM   22  C   UNL     1      29.517  42.703  52.615  1.00  0.00     0.006 A 
HETATM   23  C   UNL     1      28.352  43.184  52.027  1.00  0.00     0.037 A 
BRANCH  20  24
HETATM   24  N   UNL     1      29.595  44.765  55.691  1.00  0.00    -0.227 N 
HETATM   25  N   UNL     1      30.664  44.268  56.373  1.00  0.00    -0.179 NA
HETATM   26  C   UNL     1      30.719  45.002  57.486  1.00  0.00     0.141 A 
HETATM   27  C   UNL     1      29.706  45.971  57.546  1.00  0.00     0.040 A 
HETATM   28  C   UNL     1      28.998  45.800  56.381  1.00  0.00     0.122 A 
ENDBRANCH  20  24
ENDBRANCH   2  18
TORSDOF 7
ENDMDL
