MODEL 1
REMARK VINA RESULT:      -9.2      0.000      0.000
REMARK  7 active torsions:
REMARK  status: ('A' for Active; 'I' for Inactive)
REMARK    1  A    between atoms: N_2  and  C_4 
REMARK    2  A    between atoms: C_4  and  C_5 
REMARK    3  A    between atoms: C_5  and  O_6 
REMARK    4  A    between atoms: O_6  and  C_7 
REMARK    5  A    between atoms: C_10  and  N_11 
REMARK       I    between atoms: N_11  and  C_12 
REMARK    6  A    between atoms: C_12  and  C_13 
REMARK    7  A    between atoms: C_14  and  C_15 
ROOT
HETATM    1  N   UNL     1      25.862  45.575  51.485  1.00  0.00    -0.323 N 
HETATM    2  C   UNL     1      25.634  44.808  52.613  1.00  0.00     0.258 C 
HETATM    3  O   UNL     1      24.567  44.348  52.996  1.00  0.00    -0.267 OA
HETATM    4  H   UNL     1      26.814  45.860  51.282  1.00  0.00     0.169 HD
ENDROOT
BRANCH   2   5
HETATM    5  C   UNL     1      26.842  44.463  53.397  1.00  0.00     0.065 A 
HETATM    6  C   UNL     1      27.490  45.313  54.308  1.00  0.00     0.077 A 
HETATM    7  C   UNL     1      28.710  44.868  54.905  1.00  0.00     0.009 A 
HETATM    8  C   UNL     1      29.137  43.548  54.605  1.00  0.00     0.067 A 
HETATM    9  C   UNL     1      29.533  45.640  55.766  1.00  0.00     0.014 A 
HETATM   10  N   UNL     1      28.466  42.730  53.786  1.00  0.00    -0.259 NA
HETATM   11  C   UNL     1      30.304  43.057  55.171  1.00  0.00     0.032 A 
HETATM   12  C   UNL     1      27.342  43.189  53.199  1.00  0.00     0.135 A 
HETATM   13  C   UNL     1      31.092  43.827  56.024  1.00  0.00     0.002 A 
HETATM   14  C   UNL     1      30.707  45.123  56.318  1.00  0.00     0.001 A 
BRANCH   6  15
HETATM   15  C   UNL     1      26.877  46.656  54.603  1.00  0.00     0.419 C 
HETATM   16  F   UNL     1      25.516  46.625  54.654  1.00  0.00    -0.166 F 
HETATM   17  F   UNL     1      27.251  47.231  55.774  1.00  0.00    -0.166 F 
HETATM   18  F   UNL     1      27.189  47.558  53.627  1.00  0.00    -0.166 F 
ENDBRANCH   6  15
ENDBRANCH   2   5
BRANCH   1  19
HETATM   19  C   UNL     1      24.895  46.011  50.553  1.00  0.00     0.035 A 
HETATM   20  C   UNL     1      24.143  45.152  49.750  1.00  0.00     0.032 A 
HETATM   21  C   UNL     1      23.203  45.655  48.841  1.00  0.00     0.039 A 
HETATM   22  C   UNL     1      22.997  47.027  48.726  1.00  0.00     0.069 A 
HETATM   23  C   UNL     1      23.749  47.891  49.524  1.00  0.00     0.039 A 
HETATM   24  C   UNL     1      24.690  47.389  50.429  1.00  0.00     0.032 A 
BRANCH  22  25
HETATM   25  O   UNL     1      22.108  47.640  47.886  1.00  0.00    -0.349 OA
BRANCH  25  26
HETATM   26  C   UNL     1      21.432  48.787  48.396  1.00  0.00     0.203 C 
BRANCH  26  27
HETATM   27  C   UNL     1      20.143  48.305  49.068  1.00  0.00     0.260 C 
BRANCH  27  28
HETATM   28  N   UNL     1      19.876  49.009  50.389  1.00  0.00    -0.077 N 
HETATM   29  C   UNL     1      18.593  48.581  51.048  1.00  0.00     0.269 C 
HETATM   30  H   UNL     1      20.646  48.770  51.029  1.00  0.00     0.279 HD
HETATM   31  C   UNL     1      19.924  50.507  50.222  1.00  0.00     0.269 C 
ENDBRANCH  27  28
ENDBRANCH  26  27
ENDBRANCH  25  26
ENDBRANCH  22  25
ENDBRANCH   1  19
TORSDOF 7
ENDMDL
MODEL 2
REMARK VINA RESULT:      -9.0      1.857      2.361
REMARK  7 active torsions:
REMARK  status: ('A' for Active; 'I' for Inactive)
REMARK    1  A    between atoms: N_2  and  C_4 
REMARK    2  A    between atoms: C_4  and  C_5 
REMARK    3  A    between atoms: C_5  and  O_6 
REMARK    4  A    between atoms: O_6  and  C_7 
REMARK    5  A    between atoms: C_10  and  N_11 
REMARK       I    between atoms: N_11  and  C_12 
REMARK    6  A    between atoms: C_12  and  C_13 
REMARK    7  A    between atoms: C_14  and  C_15 
ROOT
HETATM    1  N   UNL     1      25.959  45.989  51.791  1.00  0.00    -0.323 N 
HETATM    2  C   UNL     1      25.830  45.212  52.927  1.00  0.00     0.258 C 
HETATM    3  O   UNL     1      24.866  44.532  53.257  1.00  0.00    -0.267 OA
HETATM    4  H   UNL     1      26.837  46.475  51.638  1.00  0.00     0.169 HD
ENDROOT
BRANCH   2   5
HETATM    5  C   UNL     1      27.027  45.159  53.796  1.00  0.00     0.065 A 
HETATM    6  C   UNL     1      28.055  44.205  53.705  1.00  0.00     0.077 A 
HETATM    7  C   UNL     1      29.091  44.226  54.690  1.00  0.00     0.009 A 
HETATM    8  C   UNL     1      29.060  45.275  55.644  1.00  0.00     0.067 A 
HETATM    9  C   UNL     1      30.142  43.278  54.797  1.00  0.00     0.014 A 
HETATM   10  N   UNL     1      28.107  46.214  55.669  1.00  0.00    -0.259 NA
HETATM   11  C   UNL     1      30.051  45.355  56.612  1.00  0.00     0.032 A 
HETATM   12  C   UNL     1      27.116  46.147  54.759  1.00  0.00     0.135 A 
HETATM   13  C   UNL     1      31.082  44.422  56.692  1.00  0.00     0.002 A 
HETATM   14  C   UNL     1      31.124  43.378  55.784  1.00  0.00     0.001 A 
BRANCH   6  15
HETATM   15  C   UNL     1      28.010  43.201  52.585  1.00  0.00     0.419 C 
HETATM   16  F   UNL     1      29.102  42.387  52.549  1.00  0.00    -0.166 F 
HETATM   17  F   UNL     1      26.950  42.351  52.597  1.00  0.00    -0.166 F 
HETATM   18  F   UNL     1      27.974  43.826  51.373  1.00  0.00    -0.166 F 
ENDBRANCH   6  15
ENDBRANCH   2   5
BRANCH   1  19
HETATM   19  C   UNL     1      24.985  46.181  50.785  1.00  0.00     0.035 A 
HETATM   20  C   UNL     1      24.369  45.142  50.088  1.00  0.00     0.032 A 
HETATM   21  C   UNL     1      23.415  45.406  49.097  1.00  0.00     0.039 A 
HETATM   22  C   UNL     1      23.057  46.717  48.794  1.00  0.00     0.069 A 
HETATM   23  C   UNL     1      23.673  47.761  49.486  1.00  0.00     0.039 A 
HETATM   24  C   UNL     1      24.629  47.497  50.473  1.00  0.00     0.032 A 
BRANCH  22  25
HETATM   25  O   UNL     1      22.138  47.104  47.858  1.00  0.00    -0.349 OA
BRANCH  25  26
HETATM   26  C   UNL     1      21.451  48.329  48.105  1.00  0.00     0.203 C 
BRANCH  26  27
HETATM   27  C   UNL     1      20.151  47.992  48.842  1.00  0.00     0.260 C 
BRANCH  27  28
HETATM   28  N   UNL     1      19.981  48.795  50.121  1.00  0.00    -0.077 N 
HETATM   29  C   UNL     1      18.655  48.575  50.796  1.00  0.00     0.269 C 
HETATM   30  H   UNL     1      20.715  48.493  50.777  1.00  0.00     0.279 HD
HETATM   31  C   UNL     1      20.224  50.263  49.874  1.00  0.00     0.269 C 
ENDBRANCH  27  28
ENDBRANCH  26  27
ENDBRANCH  25  26
ENDBRANCH  22  25
ENDBRANCH   1  19
TORSDOF 7
ENDMDL
MODEL 3
REMARK VINA RESULT:      -8.4      1.944      2.379
REMARK  7 active torsions:
REMARK  status: ('A' for Active; 'I' for Inactive)
REMARK    1  A    between atoms: N_2  and  C_4 
REMARK    2  A    between atoms: C_4  and  C_5 
REMARK    3  A    between atoms: C_5  and  O_6 
REMARK    4  A    between atoms: O_6  and  C_7 
REMARK    5  A    between atoms: C_10  and  N_11 
REMARK       I    between atoms: N_11  and  C_12 
REMARK    6  A    between atoms: C_12  and  C_13 
REMARK    7  A    between atoms: C_14  and  C_15 
ROOT
HETATM    1  N   UNL     1      25.976  43.449  52.056  1.00  0.00    -0.323 N 
HETATM    2  C   UNL     1      27.250  43.941  51.839  1.00  0.00     0.258 C 
HETATM    3  O   UNL     1      27.680  44.469  50.822  1.00  0.00    -0.267 OA
HETATM    4  H   UNL     1      25.759  43.064  52.969  1.00  0.00     0.169 HD
ENDROOT
BRANCH   2   5
HETATM    5  C   UNL     1      28.163  43.868  53.002  1.00  0.00     0.065 A 
HETATM    6  C   UNL     1      28.169  44.762  54.087  1.00  0.00     0.077 A 
HETATM    7  C   UNL     1      29.186  44.618  55.081  1.00  0.00     0.009 A 
HETATM    8  C   UNL     1      30.071  43.517  54.952  1.00  0.00     0.067 A 
HETATM    9  C   UNL     1      29.389  45.493  56.180  1.00  0.00     0.014 A 
HETATM   10  N   UNL     1      30.003  42.638  53.945  1.00  0.00    -0.259 NA
HETATM   11  C   UNL     1      31.066  43.318  55.897  1.00  0.00     0.032 A 
HETATM   12  C   UNL     1      29.064  42.820  52.996  1.00  0.00     0.135 A 
HETATM   13  C   UNL     1      31.241  44.181  56.977  1.00  0.00     0.002 A 
HETATM   14  C   UNL     1      30.403  45.273  57.116  1.00  0.00     0.001 A 
BRANCH   6  15
HETATM   15  C   UNL     1      27.114  45.833  54.144  1.00  0.00     0.419 C 
HETATM   16  F   UNL     1      25.880  45.356  54.469  1.00  0.00    -0.166 F 
HETATM   17  F   UNL     1      27.338  46.836  55.032  1.00  0.00    -0.166 F 
HETATM   18  F   UNL     1      26.967  46.437  52.928  1.00  0.00    -0.166 F 
ENDBRANCH   6  15
ENDBRANCH   2   5
BRANCH   1  19
HETATM   19  C   UNL     1      24.910  43.431  51.130  1.00  0.00     0.035 A 
HETATM   20  C   UNL     1      24.506  42.295  50.428  1.00  0.00     0.032 A 
HETATM   21  C   UNL     1      23.442  42.350  49.518  1.00  0.00     0.039 A 
HETATM   22  C   UNL     1      22.761  43.546  49.303  1.00  0.00     0.069 A 
HETATM   23  C   UNL     1      23.163  44.687  49.998  1.00  0.00     0.039 A 
HETATM   24  C   UNL     1      24.228  44.631  50.904  1.00  0.00     0.032 A 
BRANCH  22  25
HETATM   25  O   UNL     1      21.707  43.728  48.450  1.00  0.00    -0.349 OA
BRANCH  25  26
HETATM   26  C   UNL     1      21.339  45.076  48.168  1.00  0.00     0.203 C 
BRANCH  26  27
HETATM   27  C   UNL     1      19.928  45.299  48.722  1.00  0.00     0.260 C 
BRANCH  27  28
HETATM   28  N   UNL     1      19.698  46.734  49.168  1.00  0.00    -0.077 N 
HETATM   29  C   UNL     1      18.380  47.299  48.713  1.00  0.00     0.269 C 
HETATM   30  H   UNL     1      19.698  46.743  50.198  1.00  0.00     0.279 HD
HETATM   31  C   UNL     1      20.841  47.621  48.745  1.00  0.00     0.269 C 
ENDBRANCH  27  28
ENDBRANCH  26  27
ENDBRANCH  25  26
ENDBRANCH  22  25
ENDBRANCH   1  19
TORSDOF 7
ENDMDL
MODEL 4
REMARK VINA RESULT:      -8.2      3.303      9.974
REMARK  7 active torsions:
REMARK  status: ('A' for Active; 'I' for Inactive)
REMARK    1  A    between atoms: N_2  and  C_4 
REMARK    2  A    between atoms: C_4  and  C_5 
REMARK    3  A    between atoms: C_5  and  O_6 
REMARK    4  A    between atoms: O_6  and  C_7 
REMARK    5  A    between atoms: C_10  and  N_11 
REMARK       I    between atoms: N_11  and  C_12 
REMARK    6  A    between atoms: C_12  and  C_13 
REMARK    7  A    between atoms: C_14  and  C_15 
ROOT
HETATM    1  N   UNL     1      22.903  47.574  49.534  1.00  0.00    -0.323 N 
HETATM    2  C   UNL     1      22.110  47.738  48.413  1.00  0.00     0.258 C 
HETATM    3  O   UNL     1      22.285  47.256  47.301  1.00  0.00    -0.267 OA
HETATM    4  H   UNL     1      22.610  48.015  50.399  1.00  0.00     0.169 HD
ENDROOT
BRANCH   2   5
HETATM    5  C   UNL     1      20.881  48.537  48.620  1.00  0.00     0.065 A 
HETATM    6  C   UNL     1      20.826  49.939  48.696  1.00  0.00     0.077 A 
HETATM    7  C   UNL     1      19.575  50.555  49.007  1.00  0.00     0.009 A 
HETATM    8  C   UNL     1      18.444  49.706  49.128  1.00  0.00     0.067 A 
HETATM    9  C   UNL     1      19.372  51.945  49.216  1.00  0.00     0.014 A 
HETATM   10  N   UNL     1      18.508  48.377  48.984  1.00  0.00    -0.259 NA
HETATM   11  C   UNL     1      17.201  50.251  49.411  1.00  0.00     0.032 A 
HETATM   12  C   UNL     1      19.707  47.815  48.735  1.00  0.00     0.135 A 
HETATM   13  C   UNL     1      17.020  51.620  49.599  1.00  0.00     0.002 A 
HETATM   14  C   UNL     1      18.110  52.468  49.505  1.00  0.00     0.001 A 
BRANCH   6  15
HETATM   15  C   UNL     1      22.088  50.723  48.458  1.00  0.00     0.419 C 
HETATM   16  F   UNL     1      22.915  50.753  49.540  1.00  0.00    -0.166 F 
HETATM   17  F   UNL     1      22.873  50.284  47.441  1.00  0.00    -0.166 F 
HETATM   18  F   UNL     1      21.804  52.028  48.175  1.00  0.00    -0.166 F 
ENDBRANCH   6  15
ENDBRANCH   2   5
BRANCH   1  19
HETATM   19  C   UNL     1      24.104  46.834  49.616  1.00  0.00     0.035 A 
HETATM   20  C   UNL     1      25.369  47.411  49.729  1.00  0.00     0.032 A 
HETATM   21  C   UNL     1      26.520  46.615  49.800  1.00  0.00     0.039 A 
HETATM   22  C   UNL     1      26.419  45.226  49.768  1.00  0.00     0.069 A 
HETATM   23  C   UNL     1      25.156  44.644  49.652  1.00  0.00     0.039 A 
HETATM   24  C   UNL     1      24.008  45.439  49.577  1.00  0.00     0.032 A 
BRANCH  22  25
HETATM   25  O   UNL     1      27.461  44.343  49.837  1.00  0.00    -0.349 OA
BRANCH  25  26
HETATM   26  C   UNL     1      27.342  43.288  50.789  1.00  0.00     0.203 C 
BRANCH  26  27
HETATM   27  C   UNL     1      28.026  43.746  52.080  1.00  0.00     0.260 C 
BRANCH  27  28
HETATM   28  N   UNL     1      28.707  42.604  52.817  1.00  0.00    -0.077 N 
HETATM   29  C   UNL     1      30.165  42.852  53.091  1.00  0.00     0.269 C 
HETATM   30  H   UNL     1      28.236  42.497  53.726  1.00  0.00     0.279 HD
HETATM   31  C   UNL     1      28.508  41.298  52.090  1.00  0.00     0.269 C 
ENDBRANCH  27  28
ENDBRANCH  26  27
ENDBRANCH  25  26
ENDBRANCH  22  25
ENDBRANCH   1  19
TORSDOF 7
ENDMDL
MODEL 5
REMARK VINA RESULT:      -8.2      4.039      5.492
REMARK  7 active torsions:
REMARK  status: ('A' for Active; 'I' for Inactive)
REMARK    1  A    between atoms: N_2  and  C_4 
REMARK    2  A    between atoms: C_4  and  C_5 
REMARK    3  A    between atoms: C_5  and  O_6 
REMARK    4  A    between atoms: O_6  and  C_7 
REMARK    5  A    between atoms: C_10  and  N_11 
REMARK       I    between atoms: N_11  and  C_12 
REMARK    6  A    between atoms: C_12  and  C_13 
REMARK    7  A    between atoms: C_14  and  C_15 
ROOT
HETATM    1  N   UNL     1      26.265  42.699  51.785  1.00  0.00    -0.323 N 
HETATM    2  C   UNL     1      27.316  43.590  51.667  1.00  0.00     0.258 C 
HETATM    3  O   UNL     1      27.621  44.252  50.684  1.00  0.00    -0.267 OA
HETATM    4  H   UNL     1      26.119  42.244  52.681  1.00  0.00     0.169 HD
ENDROOT
BRANCH   2   5
HETATM    5  C   UNL     1      28.108  43.800  52.900  1.00  0.00     0.065 A 
HETATM    6  C   UNL     1      27.798  44.715  53.920  1.00  0.00     0.077 A 
HETATM    7  C   UNL     1      28.725  44.874  54.996  1.00  0.00     0.009 A 
HETATM    8  C   UNL     1      29.859  44.023  55.009  1.00  0.00     0.067 A 
HETATM    9  C   UNL     1      28.608  45.821  56.047  1.00  0.00     0.014 A 
HETATM   10  N   UNL     1      30.100  43.109  54.061  1.00  0.00    -0.259 NA
HETATM   11  C   UNL     1      30.783  44.121  56.039  1.00  0.00     0.032 A 
HETATM   12  C   UNL     1      29.235  43.009  53.032  1.00  0.00     0.135 A 
HETATM   13  C   UNL     1      30.643  45.048  57.069  1.00  0.00     0.002 A 
HETATM   14  C   UNL     1      29.555  45.903  57.070  1.00  0.00     0.001 A 
BRANCH   6  15
HETATM   15  C   UNL     1      26.513  45.492  53.824  1.00  0.00     0.419 C 
HETATM   16  F   UNL     1      26.434  46.513  54.722  1.00  0.00    -0.166 F 
HETATM   17  F   UNL     1      26.263  46.073  52.623  1.00  0.00    -0.166 F 
HETATM   18  F   UNL     1      25.439  44.690  54.082  1.00  0.00    -0.166 F 
ENDBRANCH   6  15
ENDBRANCH   2   5
BRANCH   1  19
HETATM   19  C   UNL     1      25.340  42.348  50.778  1.00  0.00     0.035 A 
HETATM   20  C   UNL     1      25.607  41.433  49.759  1.00  0.00     0.032 A 
HETATM   21  C   UNL     1      24.642  41.136  48.787  1.00  0.00     0.039 A 
HETATM   22  C   UNL     1      23.391  41.746  48.826  1.00  0.00     0.069 A 
HETATM   23  C   UNL     1      23.119  42.665  49.841  1.00  0.00     0.039 A 
HETATM   24  C   UNL     1      24.084  42.964  50.809  1.00  0.00     0.032 A 
BRANCH  22  25
HETATM   25  O   UNL     1      22.367  41.536  47.944  1.00  0.00    -0.349 OA
BRANCH  25  26
HETATM   26  C   UNL     1      22.500  40.422  47.064  1.00  0.00     0.203 C 
BRANCH  26  27
HETATM   27  C   UNL     1      21.304  39.495  47.304  1.00  0.00     0.260 C 
BRANCH  27  28
HETATM   28  N   UNL     1      21.697  38.026  47.309  1.00  0.00    -0.077 N 
HETATM   29  C   UNL     1      22.752  37.684  46.293  1.00  0.00     0.269 C 
HETATM   30  H   UNL     1      22.083  37.812  48.239  1.00  0.00     0.279 HD
HETATM   31  C   UNL     1      20.485  37.143  47.148  1.00  0.00     0.269 C 
ENDBRANCH  27  28
ENDBRANCH  26  27
ENDBRANCH  25  26
ENDBRANCH  22  25
ENDBRANCH   1  19
TORSDOF 7
ENDMDL
MODEL 6
REMARK VINA RESULT:      -8.2      1.873      2.447
REMARK  7 active torsions:
REMARK  status: ('A' for Active; 'I' for Inactive)
REMARK    1  A    between atoms: N_2  and  C_4 
REMARK    2  A    between atoms: C_4  and  C_5 
REMARK    3  A    between atoms: C_5  and  O_6 
REMARK    4  A    between atoms: O_6  and  C_7 
REMARK    5  A    between atoms: C_10  and  N_11 
REMARK       I    between atoms: N_11  and  C_12 
REMARK    6  A    between atoms: C_12  and  C_13 
REMARK    7  A    between atoms: C_14  and  C_15 
ROOT
HETATM    1  N   UNL     1      25.847  45.615  51.426  1.00  0.00    -0.323 N 
HETATM    2  C   UNL     1      25.610  44.864  52.562  1.00  0.00     0.258 C 
HETATM    3  O   UNL     1      24.534  44.435  52.958  1.00  0.00    -0.267 OA
HETATM    4  H   UNL     1      26.805  45.872  51.211  1.00  0.00     0.169 HD
ENDROOT
BRANCH   2   5
HETATM    5  C   UNL     1      26.815  44.492  53.337  1.00  0.00     0.065 A 
HETATM    6  C   UNL     1      27.471  45.317  54.266  1.00  0.00     0.077 A 
HETATM    7  C   UNL     1      28.687  44.849  54.853  1.00  0.00     0.009 A 
HETATM    8  C   UNL     1      29.104  43.534  54.524  1.00  0.00     0.067 A 
HETATM    9  C   UNL     1      29.518  45.596  55.729  1.00  0.00     0.014 A 
HETATM   10  N   UNL     1      28.426  42.739  53.688  1.00  0.00    -0.259 NA
HETATM   11  C   UNL     1      30.267  43.021  55.078  1.00  0.00     0.032 A 
HETATM   12  C   UNL     1      27.306  43.219  53.112  1.00  0.00     0.135 A 
HETATM   13  C   UNL     1      31.062  43.766  55.947  1.00  0.00     0.002 A 
HETATM   14  C   UNL     1      30.687  45.058  56.269  1.00  0.00     0.001 A 
BRANCH   6  15
HETATM   15  C   UNL     1      26.868  46.658  54.590  1.00  0.00     0.419 C 
HETATM   16  F   UNL     1      25.509  46.632  54.665  1.00  0.00    -0.166 F 
HETATM   17  F   UNL     1      27.265  47.215  55.763  1.00  0.00    -0.166 F 
HETATM   18  F   UNL     1      27.167  47.572  53.621  1.00  0.00    -0.166 F 
ENDBRANCH   6  15
ENDBRANCH   2   5
BRANCH   1  19
HETATM   19  C   UNL     1      24.884  46.069  50.499  1.00  0.00     0.035 A 
HETATM   20  C   UNL     1      24.516  47.407  50.349  1.00  0.00     0.032 A 
HETATM   21  C   UNL     1      23.546  47.786  49.412  1.00  0.00     0.039 A 
HETATM   22  C   UNL     1      22.935  46.831  48.604  1.00  0.00     0.069 A 
HETATM   23  C   UNL     1      23.296  45.491  48.752  1.00  0.00     0.039 A 
HETATM   24  C   UNL     1      24.261  45.112  49.690  1.00  0.00     0.032 A 
BRANCH  22  25
HETATM   25  O   UNL     1      21.984  47.073  47.651  1.00  0.00    -0.349 OA
BRANCH  25  26
HETATM   26  C   UNL     1      21.696  46.006  46.749  1.00  0.00     0.203 C 
BRANCH  26  27
HETATM   27  C   UNL     1      20.496  46.430  45.896  1.00  0.00     0.260 C 
BRANCH  27  28
HETATM   28  N   UNL     1      19.485  45.309  45.715  1.00  0.00    -0.077 N 
HETATM   29  C   UNL     1      18.277  45.715  44.914  1.00  0.00     0.269 C 
HETATM   30  H   UNL     1      19.953  44.548  45.204  1.00  0.00     0.279 HD
HETATM   31  C   UNL     1      19.080  44.728  47.046  1.00  0.00     0.269 C 
ENDBRANCH  27  28
ENDBRANCH  26  27
ENDBRANCH  25  26
ENDBRANCH  22  25
ENDBRANCH   1  19
TORSDOF 7
ENDMDL
MODEL 7
REMARK VINA RESULT:      -8.0      4.334      5.511
REMARK  7 active torsions:
REMARK  status: ('A' for Active; 'I' for Inactive)
REMARK    1  A    between atoms: N_2  and  C_4 
REMARK    2  A    between atoms: C_4  and  C_5 
REMARK    3  A    between atoms: C_5  and  O_6 
REMARK    4  A    between atoms: O_6  and  C_7 
REMARK    5  A    between atoms: C_10  and  N_11 
REMARK       I    between atoms: N_11  and  C_12 
REMARK    6  A    between atoms: C_12  and  C_13 
REMARK    7  A    between atoms: C_14  and  C_15 
ROOT
HETATM    1  N   UNL     1      26.317  43.298  52.404  1.00  0.00    -0.323 N 
HETATM    2  C   UNL     1      27.192  44.366  52.326  1.00  0.00     0.258 C 
HETATM    3  O   UNL     1      27.339  45.141  51.390  1.00  0.00    -0.267 OA
HETATM    4  H   UNL     1      26.289  42.762  53.265  1.00  0.00     0.169 HD
ENDROOT
BRANCH   2   5
HETATM    5  C   UNL     1      27.986  44.623  53.549  1.00  0.00     0.065 A 
HETATM    6  C   UNL     1      29.108  43.883  53.961  1.00  0.00     0.077 A 
HETATM    7  C   UNL     1      29.699  44.191  55.224  1.00  0.00     0.009 A 
HETATM    8  C   UNL     1      29.167  45.294  55.941  1.00  0.00     0.067 A 
HETATM    9  C   UNL     1      30.770  43.479  55.826  1.00  0.00     0.014 A 
HETATM   10  N   UNL     1      28.140  46.028  55.497  1.00  0.00    -0.259 NA
HETATM   11  C   UNL     1      29.714  45.650  57.165  1.00  0.00     0.032 A 
HETATM   12  C   UNL     1      27.569  45.690  54.323  1.00  0.00     0.135 A 
HETATM   13  C   UNL     1      30.773  44.945  57.732  1.00  0.00     0.002 A 
HETATM   14  C   UNL     1      31.299  43.854  57.062  1.00  0.00     0.001 A 
BRANCH   6  15
HETATM   15  C   UNL     1      29.624  42.795  53.058  1.00  0.00     0.419 C 
HETATM   16  F   UNL     1      30.901  42.419  53.346  1.00  0.00    -0.166 F 
HETATM   17  F   UNL     1      28.916  41.637  53.067  1.00  0.00    -0.166 F 
HETATM   18  F   UNL     1      29.646  43.211  51.759  1.00  0.00    -0.166 F 
ENDBRANCH   6  15
ENDBRANCH   2   5
BRANCH   1  19
HETATM   19  C   UNL     1      25.427  42.863  51.397  1.00  0.00     0.035 A 
HETATM   20  C   UNL     1      24.171  43.427  51.170  1.00  0.00     0.032 A 
HETATM   21  C   UNL     1      23.336  42.940  50.156  1.00  0.00     0.039 A 
HETATM   22  C   UNL     1      23.750  41.884  49.349  1.00  0.00     0.069 A 
HETATM   23  C   UNL     1      25.003  41.313  49.574  1.00  0.00     0.039 A 
HETATM   24  C   UNL     1      25.836  41.797  50.589  1.00  0.00     0.032 A 
BRANCH  22  25
HETATM   25  O   UNL     1      23.033  41.325  48.326  1.00  0.00    -0.349 OA
BRANCH  25  26
HETATM   26  C   UNL     1      23.766  40.541  47.387  1.00  0.00     0.203 C 
BRANCH  26  27
HETATM   27  C   UNL     1      22.788  39.552  46.744  1.00  0.00     0.260 C 
BRANCH  27  28
HETATM   28  N   UNL     1      21.339  39.987  46.891  1.00  0.00    -0.077 N 
HETATM   29  C   UNL     1      20.404  38.856  47.226  1.00  0.00     0.269 C 
HETATM   30  H   UNL     1      21.295  40.663  47.666  1.00  0.00     0.279 HD
HETATM   31  C   UNL     1      20.871  40.729  45.665  1.00  0.00     0.269 C 
ENDBRANCH  27  28
ENDBRANCH  26  27
ENDBRANCH  25  26
ENDBRANCH  22  25
ENDBRANCH   1  19
TORSDOF 7
ENDMDL
MODEL 8
REMARK VINA RESULT:      -7.8      3.681      4.451
REMARK  7 active torsions:
REMARK  status: ('A' for Active; 'I' for Inactive)
REMARK    1  A    between atoms: N_2  and  C_4 
REMARK    2  A    between atoms: C_4  and  C_5 
REMARK    3  A    between atoms: C_5  and  O_6 
REMARK    4  A    between atoms: O_6  and  C_7 
REMARK    5  A    between atoms: C_10  and  N_11 
REMARK       I    between atoms: N_11  and  C_12 
REMARK    6  A    between atoms: C_12  and  C_13 
REMARK    7  A    between atoms: C_14  and  C_15 
ROOT
HETATM    1  N   UNL     1      26.223  42.787  51.684  1.00  0.00    -0.323 N 
HETATM    2  C   UNL     1      27.268  43.691  51.626  1.00  0.00     0.258 C 
HETATM    3  O   UNL     1      27.508  44.494  50.733  1.00  0.00    -0.267 OA
HETATM    4  H   UNL     1      26.137  42.204  52.510  1.00  0.00     0.169 HD
ENDROOT
BRANCH   2   5
HETATM    5  C   UNL     1      28.145  43.720  52.818  1.00  0.00     0.065 A 
HETATM    6  C   UNL     1      28.047  44.638  53.878  1.00  0.00     0.077 A 
HETATM    7  C   UNL     1      29.039  44.600  54.905  1.00  0.00     0.009 A 
HETATM    8  C   UNL     1      30.012  43.569  54.833  1.00  0.00     0.067 A 
HETATM    9  C   UNL     1      29.139  45.515  55.986  1.00  0.00     0.014 A 
HETATM   10  N   UNL     1      30.045  42.663  53.849  1.00  0.00    -0.259 NA
HETATM   11  C   UNL     1      30.988  43.473  55.813  1.00  0.00     0.032 A 
HETATM   12  C   UNL     1      29.125  42.746  52.867  1.00  0.00     0.135 A 
HETATM   13  C   UNL     1      31.061  44.374  56.873  1.00  0.00     0.002 A 
HETATM   14  C   UNL     1      30.135  45.400  56.957  1.00  0.00     0.001 A 
BRANCH   6  15
HETATM   15  C   UNL     1      26.910  45.624  53.874  1.00  0.00     0.419 C 
HETATM   16  F   UNL     1      27.258  46.844  53.378  1.00  0.00    -0.166 F 
HETATM   17  F   UNL     1      25.817  45.261  53.154  1.00  0.00    -0.166 F 
HETATM   18  F   UNL     1      26.462  45.856  55.142  1.00  0.00    -0.166 F 
ENDBRANCH   6  15
ENDBRANCH   2   5
BRANCH   1  19
HETATM   19  C   UNL     1      25.228  42.585  50.702  1.00  0.00     0.035 A 
HETATM   20  C   UNL     1      25.293  41.597  49.719  1.00  0.00     0.032 A 
HETATM   21  C   UNL     1      24.271  41.456  48.771  1.00  0.00     0.039 A 
HETATM   22  C   UNL     1      23.164  42.299  48.798  1.00  0.00     0.069 A 
HETATM   23  C   UNL     1      23.095  43.292  49.777  1.00  0.00     0.039 A 
HETATM   24  C   UNL     1      24.118  43.435  50.721  1.00  0.00     0.032 A 
BRANCH  22  25
HETATM   25  O   UNL     1      22.101  42.259  47.937  1.00  0.00    -0.349 OA
BRANCH  25  26
HETATM   26  C   UNL     1      21.836  43.448  47.195  1.00  0.00     0.203 C 
BRANCH  26  27
HETATM   27  C   UNL     1      22.862  43.526  46.060  1.00  0.00     0.260 C 
BRANCH  27  28
HETATM   28  N   UNL     1      22.868  42.278  45.191  1.00  0.00    -0.077 N 
HETATM   29  C   UNL     1      24.229  41.655  45.046  1.00  0.00     0.269 C 
HETATM   30  H   UNL     1      22.257  41.583  45.643  1.00  0.00     0.279 HD
HETATM   31  C   UNL     1      22.254  42.557  43.843  1.00  0.00     0.269 C 
ENDBRANCH  27  28
ENDBRANCH  26  27
ENDBRANCH  25  26
ENDBRANCH  22  25
ENDBRANCH   1  19
TORSDOF 7
ENDMDL
MODEL 9
REMARK VINA RESULT:      -7.7      3.988     10.188
REMARK  7 active torsions:
REMARK  status: ('A' for Active; 'I' for Inactive)
REMARK    1  A    between atoms: N_2  and  C_4 
REMARK    2  A    between atoms: C_4  and  C_5 
REMARK    3  A    between atoms: C_5  and  O_6 
REMARK    4  A    between atoms: O_6  and  C_7 
REMARK    5  A    between atoms: C_10  and  N_11 
REMARK       I    between atoms: N_11  and  C_12 
REMARK    6  A    between atoms: C_12  and  C_13 
REMARK    7  A    between atoms: C_14  and  C_15 
ROOT
HETATM    1  N   UNL     1      22.841  47.720  49.577  1.00  0.00    -0.323 N 
HETATM    2  C   UNL     1      22.152  48.200  48.478  1.00  0.00     0.258 C 
HETATM    3  O   UNL     1      22.297  47.869  47.308  1.00  0.00    -0.267 OA
HETATM    4  H   UNL     1      22.585  48.071  50.494  1.00  0.00     0.169 HD
ENDROOT
BRANCH   2   5
HETATM    5  C   UNL     1      21.079  49.173  48.779  1.00  0.00     0.065 A 
HETATM    6  C   UNL     1      19.701  48.899  48.750  1.00  0.00     0.077 A 
HETATM    7  C   UNL     1      18.788  49.978  48.962  1.00  0.00     0.009 A 
HETATM    8  C   UNL     1      19.341  51.245  49.282  1.00  0.00     0.067 A 
HETATM    9  C   UNL     1      17.374  49.889  48.868  1.00  0.00     0.014 A 
HETATM   10  N   UNL     1      20.657  51.467  49.372  1.00  0.00    -0.259 NA
HETATM   11  C   UNL     1      18.501  52.324  49.516  1.00  0.00     0.032 A 
HETATM   12  C   UNL     1      21.500  50.445  49.124  1.00  0.00     0.135 A 
HETATM   13  C   UNL     1      17.115  52.212  49.431  1.00  0.00     0.002 A 
HETATM   14  C   UNL     1      16.551  50.992  49.102  1.00  0.00     0.001 A 
BRANCH   6  15
HETATM   15  C   UNL     1      19.252  47.487  48.485  1.00  0.00     0.419 C 
HETATM   16  F   UNL     1      20.019  46.553  49.114  1.00  0.00    -0.166 F 
HETATM   17  F   UNL     1      17.980  47.193  48.857  1.00  0.00    -0.166 F 
HETATM   18  F   UNL     1      19.331  47.193  47.154  1.00  0.00    -0.166 F 
ENDBRANCH   6  15
ENDBRANCH   2   5
BRANCH   1  19
HETATM   19  C   UNL     1      23.881  46.765  49.569  1.00  0.00     0.035 A 
HETATM   20  C   UNL     1      23.707  45.426  49.215  1.00  0.00     0.032 A 
HETATM   21  C   UNL     1      24.784  44.530  49.236  1.00  0.00     0.039 A 
HETATM   22  C   UNL     1      26.054  44.964  49.606  1.00  0.00     0.069 A 
HETATM   23  C   UNL     1      26.233  46.301  49.966  1.00  0.00     0.039 A 
HETATM   24  C   UNL     1      25.157  47.194  49.948  1.00  0.00     0.032 A 
BRANCH  22  25
HETATM   25  O   UNL     1      27.183  44.193  49.660  1.00  0.00    -0.349 OA
BRANCH  25  26
HETATM   26  C   UNL     1      27.003  42.820  50.001  1.00  0.00     0.203 C 
BRANCH  26  27
HETATM   27  C   UNL     1      26.960  42.722  51.529  1.00  0.00     0.260 C 
BRANCH  27  28
HETATM   28  N   UNL     1      27.354  41.344  52.036  1.00  0.00    -0.077 N 
HETATM   29  C   UNL     1      28.074  41.374  53.356  1.00  0.00     0.269 C 
HETATM   30  H   UNL     1      26.488  40.804  52.169  1.00  0.00     0.279 HD
HETATM   31  C   UNL     1      28.155  40.597  51.000  1.00  0.00     0.269 C 
ENDBRANCH  27  28
ENDBRANCH  26  27
ENDBRANCH  25  26
ENDBRANCH  22  25
ENDBRANCH   1  19
TORSDOF 7
ENDMDL
MODEL 10
REMARK VINA RESULT:      -7.5      6.089      8.837
REMARK  7 active torsions:
REMARK  status: ('A' for Active; 'I' for Inactive)
REMARK    1  A    between atoms: N_2  and  C_4 
REMARK    2  A    between atoms: C_4  and  C_5 
REMARK    3  A    between atoms: C_5  and  O_6 
REMARK    4  A    between atoms: O_6  and  C_7 
REMARK    5  A    between atoms: C_10  and  N_11 
REMARK       I    between atoms: N_11  and  C_12 
REMARK    6  A    between atoms: C_12  and  C_13 
REMARK    7  A    between atoms: C_14  and  C_15 
ROOT
HETATM    1  N   UNL     1      28.275  41.483  50.510  1.00  0.00    -0.323 N 
HETATM    2  C   UNL     1      27.288  41.669  51.460  1.00  0.00     0.258 C 
HETATM    3  O   UNL     1      26.423  40.872  51.799  1.00  0.00    -0.267 OA
HETATM    4  H   UNL     1      28.945  42.231  50.360  1.00  0.00     0.169 HD
ENDROOT
BRANCH   2   5
HETATM    5  C   UNL     1      27.343  42.959  52.184  1.00  0.00     0.065 A 
HETATM    6  C   UNL     1      28.182  43.244  53.275  1.00  0.00     0.077 A 
HETATM    7  C   UNL     1      28.037  44.504  53.933  1.00  0.00     0.009 A 
HETATM    8  C   UNL     1      27.111  45.426  53.378  1.00  0.00     0.067 A 
HETATM    9  C   UNL     1      28.735  44.906  55.102  1.00  0.00     0.014 A 
HETATM   10  N   UNL     1      26.371  45.157  52.297  1.00  0.00    -0.259 NA
HETATM   11  C   UNL     1      26.943  46.671  53.965  1.00  0.00     0.032 A 
HETATM   12  C   UNL     1      26.492  43.945  51.720  1.00  0.00     0.135 A 
HETATM   13  C   UNL     1      27.648  47.051  55.105  1.00  0.00     0.002 A 
HETATM   14  C   UNL     1      28.543  46.164  55.677  1.00  0.00     0.001 A 
BRANCH   6  15
HETATM   15  C   UNL     1      29.184  42.207  53.704  1.00  0.00     0.419 C 
HETATM   16  F   UNL     1      30.238  42.091  52.848  1.00  0.00    -0.166 F 
HETATM   17  F   UNL     1      29.751  42.403  54.921  1.00  0.00    -0.166 F 
HETATM   18  F   UNL     1      28.611  40.969  53.753  1.00  0.00    -0.166 F 
ENDBRANCH   6  15
ENDBRANCH   2   5
BRANCH   1  19
HETATM   19  C   UNL     1      28.469  40.337  49.708  1.00  0.00     0.035 A 
HETATM   20  C   UNL     1      28.959  39.122  50.190  1.00  0.00     0.032 A 
HETATM   21  C   UNL     1      29.132  38.026  49.336  1.00  0.00     0.039 A 
HETATM   22  C   UNL     1      28.810  38.127  47.985  1.00  0.00     0.069 A 
HETATM   23  C   UNL     1      28.324  39.340  47.496  1.00  0.00     0.039 A 
HETATM   24  C   UNL     1      28.155  40.436  48.349  1.00  0.00     0.032 A 
BRANCH  22  25
HETATM   25  O   UNL     1      28.926  37.131  47.053  1.00  0.00    -0.349 OA
BRANCH  25  26
HETATM   26  C   UNL     1      28.216  37.314  45.831  1.00  0.00     0.203 C 
BRANCH  26  27
HETATM   27  C   UNL     1      27.231  36.149  45.687  1.00  0.00     0.260 C 
BRANCH  27  28
HETATM   28  N   UNL     1      27.725  34.882  46.366  1.00  0.00    -0.077 N 
HETATM   29  C   UNL     1      28.490  33.969  45.447  1.00  0.00     0.269 C 
HETATM   30  H   UNL     1      28.363  35.164  47.123  1.00  0.00     0.279 HD
HETATM   31  C   UNL     1      26.588  34.149  47.032  1.00  0.00     0.269 C 
ENDBRANCH  27  28
ENDBRANCH  26  27
ENDBRANCH  25  26
ENDBRANCH  22  25
ENDBRANCH   1  19
TORSDOF 7
ENDMDL
