MODEL 1
REMARK VINA RESULT:      -9.2      0.000      0.000
REMARK  6 active torsions:
REMARK  status: ('A' for Active; 'I' for Inactive)
REMARK    1  A    between atoms: CG_8  and  CB_9 
REMARK    2  A    between atoms: CB_9  and  CA_10 
REMARK    3  A    between atoms: CA_10  and  N_11 
REMARK    4  A    between atoms: CA_10  and  C_12 
REMARK       I    between atoms: N_11  and  C_18 
REMARK    5  A    between atoms: C_12  and  O_13 
REMARK       I    between atoms: C_18  and  N_19 
REMARK    6  A    between atoms: N_19  and  C_20 
ROOT
ATOM      1  CA  TRP A   1      26.687  45.148  53.564  1.00  0.00     0.114 C 
ENDROOT
BRANCH   1   2
ATOM      2  CB  TRP A   1      27.735  45.826  54.473  1.00  0.00     0.068 C 
BRANCH   2   3
ATOM      3  CG  TRP A   1      28.863  44.902  54.836  1.00  0.00    -0.028 A 
ATOM      4  CD2 TRP A   1      29.661  44.925  56.025  1.00  0.00    -0.002 A 
ATOM      5  CE3 TRP A   1      29.675  45.722  57.187  1.00  0.00     0.014 A 
ATOM      6  CE2 TRP A   1      30.608  43.906  55.911  1.00  0.00     0.042 A 
ATOM      7  CZ3 TRP A   1      30.642  45.493  58.173  1.00  0.00     0.001 A 
ATOM      8  CH2 TRP A   1      31.580  44.475  58.023  1.00  0.00     0.002 A 
ATOM      9  CZ2 TRP A   1      31.578  43.656  56.890  1.00  0.00     0.030 A 
ATOM     10  NE1 TRP A   1      30.372  43.264  54.719  1.00  0.00    -0.365 N 
ATOM     11  HE1 TRP A   1      30.898  42.470  54.382  1.00  0.00     0.165 HD
ATOM     12  CD1 TRP A   1      29.327  43.854  54.062  1.00  0.00     0.096 A 
ENDBRANCH   2   3
ENDBRANCH   1   2
BRANCH   1  13
ATOM     13  N   TRP A   1      26.560  45.803  52.253  1.00  0.00    -0.336 N 
HETATM   14  C   UNK A   0      26.778  45.175  51.070  1.00  0.00     0.321 C 
HETATM   15  N   UNK A   0      26.604  45.897  49.930  1.00  0.00    -0.309 N 
HETATM   16  O   UNK A   0      27.186  44.019  50.990  1.00  0.00    -0.247 OA
HETATM   17  H   UNK A   0      27.006  45.420  49.133  1.00  0.00     0.170 HD
ATOM     18  H   TRP A   1      26.672  46.807  52.241  1.00  0.00     0.164 HD
BRANCH  15  19
HETATM   19  C   UNK A   0      25.850  47.051  49.643  1.00  0.00     0.036 A 
HETATM   20  C   UNK A   0      24.453  47.097  49.643  1.00  0.00     0.039 A 
HETATM   21  C   UNK A   0      23.822  48.272  49.261  1.00  0.00    -0.024 A 
HETATM   22  C   UNK A   0      24.544  49.391  48.882  1.00  0.00    -0.026 A 
HETATM   23  C   UNK A   0      22.372  48.551  49.117  1.00  0.00     0.207 C 
HETATM   24  C   UNK A   0      23.605  50.467  48.481  1.00  0.00     0.207 C 
HETATM   25  C   UNK A   0      25.925  49.374  48.867  1.00  0.00     0.012 A 
HETATM   26  O   UNK A   0      22.302  49.977  48.874  1.00  0.00    -0.382 OA
HETATM   27  C   UNK A   0      26.575  48.194  49.245  1.00  0.00     0.030 A 
ENDBRANCH  15  19
ENDBRANCH   1  13
BRANCH   1  28
ATOM     28  C   TRP A   1      25.336  45.012  54.293  1.00  0.00     0.189 C 
BRANCH  28  29
ATOM     29  O   TRP A   1      24.800  43.702  54.102  1.00  0.00    -0.399 OA
ATOM     30  H   TRP A   1      23.870  43.837  53.845  1.00  0.00     0.209 HD
ENDBRANCH  28  29
ENDBRANCH   1  28
TORSDOF 6
ENDMDL
MODEL 2
REMARK VINA RESULT:      -9.1      2.261      8.811
REMARK  6 active torsions:
REMARK  status: ('A' for Active; 'I' for Inactive)
REMARK    1  A    between atoms: CG_8  and  CB_9 
REMARK    2  A    between atoms: CB_9  and  CA_10 
REMARK    3  A    between atoms: CA_10  and  N_11 
REMARK    4  A    between atoms: CA_10  and  C_12 
REMARK       I    between atoms: N_11  and  C_18 
REMARK    5  A    between atoms: C_12  and  O_13 
REMARK       I    between atoms: C_18  and  N_19 
REMARK    6  A    between atoms: N_19  and  C_20 
ROOT
ATOM      1  CA  TRP A   1      25.703  45.595  52.403  1.00  0.00     0.114 C 
ENDROOT
BRANCH   1   2
ATOM      2  CB  TRP A   1      26.242  45.757  50.966  1.00  0.00     0.068 C 
BRANCH   2   3
ATOM      3  CG  TRP A   1      25.494  46.802  50.187  1.00  0.00    -0.028 A 
ATOM      4  CD2 TRP A   1      26.029  47.975  49.563  1.00  0.00    -0.002 A 
ATOM      5  CE3 TRP A   1      27.322  48.521  49.438  1.00  0.00     0.014 A 
ATOM      6  CE2 TRP A   1      24.962  48.666  48.989  1.00  0.00     0.042 A 
ATOM      7  CZ3 TRP A   1      27.498  49.740  48.773  1.00  0.00     0.001 A 
ATOM      8  CH2 TRP A   1      26.410  50.411  48.221  1.00  0.00     0.002 A 
ATOM      9  CZ2 TRP A   1      25.119  49.883  48.313  1.00  0.00     0.030 A 
ATOM     10  NE1 TRP A   1      23.827  47.926  49.221  1.00  0.00    -0.365 N 
ATOM     11  HE1 TRP A   1      22.902  48.179  48.901  1.00  0.00     0.165 HD
ATOM     12  CD1 TRP A   1      24.133  46.805  49.942  1.00  0.00     0.096 A 
ENDBRANCH   2   3
ENDBRANCH   1   2
BRANCH   1  13
ATOM     13  N   TRP A   1      26.729  45.840  53.428  1.00  0.00    -0.336 N 
HETATM   14  C   UNK A   0      26.613  46.770  54.409  1.00  0.00     0.321 C 
HETATM   15  N   UNK A   0      27.631  46.875  55.304  1.00  0.00    -0.309 N 
HETATM   16  O   UNK A   0      25.671  47.555  54.479  1.00  0.00    -0.247 OA
HETATM   17  H   UNK A   0      27.557  47.731  55.841  1.00  0.00     0.170 HD
ATOM     18  H   TRP A   1      27.675  45.576  53.188  1.00  0.00     0.164 HD
BRANCH  15  19
HETATM   19  C   UNK A   0      28.625  45.969  55.723  1.00  0.00     0.036 A 
HETATM   20  C   UNK A   0      29.340  46.084  56.918  1.00  0.00     0.039 A 
HETATM   21  C   UNK A   0      30.354  45.174  57.181  1.00  0.00    -0.024 A 
HETATM   22  C   UNK A   0      30.670  44.164  56.289  1.00  0.00    -0.026 A 
HETATM   23  C   UNK A   0      31.289  45.123  58.332  1.00  0.00     0.207 C 
HETATM   24  C   UNK A   0      31.820  43.388  56.814  1.00  0.00     0.207 C 
HETATM   25  C   UNK A   0      29.984  44.028  55.097  1.00  0.00     0.012 A 
HETATM   26  O   UNK A   0      31.996  43.870  58.167  1.00  0.00    -0.382 OA
HETATM   27  C   UNK A   0      28.962  44.941  54.817  1.00  0.00     0.030 A 
ENDBRANCH  15  19
ENDBRANCH   1  13
BRANCH   1  28
ATOM     28  C   TRP A   1      25.004  44.233  52.576  1.00  0.00     0.189 C 
BRANCH  28  29
ATOM     29  O   TRP A   1      25.800  43.365  53.382  1.00  0.00    -0.399 OA
ATOM     30  H   TRP A   1      25.900  43.821  54.237  1.00  0.00     0.209 HD
ENDBRANCH  28  29
ENDBRANCH   1  28
TORSDOF 6
ENDMDL
MODEL 3
REMARK VINA RESULT:      -9.0      2.118      3.187
REMARK  6 active torsions:
REMARK  status: ('A' for Active; 'I' for Inactive)
REMARK    1  A    between atoms: CG_8  and  CB_9 
REMARK    2  A    between atoms: CB_9  and  CA_10 
REMARK    3  A    between atoms: CA_10  and  N_11 
REMARK    4  A    between atoms: CA_10  and  C_12 
REMARK       I    between atoms: N_11  and  C_18 
REMARK    5  A    between atoms: C_12  and  O_13 
REMARK       I    between atoms: C_18  and  N_19 
REMARK    6  A    between atoms: N_19  and  C_20 
ROOT
ATOM      1  CA  TRP A   1      28.823  42.168  52.729  1.00  0.00     0.114 C 
ENDROOT
BRANCH   1   2
ATOM      2  CB  TRP A   1      30.016  43.031  53.193  1.00  0.00     0.068 C 
BRANCH   2   3
ATOM      3  CG  TRP A   1      29.629  44.019  54.257  1.00  0.00    -0.028 A 
ATOM      4  CD2 TRP A   1      30.218  44.182  55.553  1.00  0.00    -0.002 A 
ATOM      5  CE3 TRP A   1      31.282  43.559  56.236  1.00  0.00     0.014 A 
ATOM      6  CE2 TRP A   1      29.513  45.192  56.208  1.00  0.00     0.042 A 
ATOM      7  CZ3 TRP A   1      31.584  43.945  57.547  1.00  0.00     0.001 A 
ATOM      8  CH2 TRP A   1      30.852  44.949  58.177  1.00  0.00     0.002 A 
ATOM      9  CZ2 TRP A   1      29.805  45.598  57.516  1.00  0.00     0.030 A 
ATOM     10  NE1 TRP A   1      28.558  45.653  55.334  1.00  0.00    -0.365 N 
ATOM     11  HE1 TRP A   1      27.909  46.400  55.536  1.00  0.00     0.165 HD
ATOM     12  CD1 TRP A   1      28.616  44.954  54.159  1.00  0.00     0.096 A 
ENDBRANCH   2   3
ENDBRANCH   1   2
BRANCH   1  13
ATOM     13  N   TRP A   1      28.080  42.775  51.613  1.00  0.00    -0.336 N 
HETATM   14  C   UNK A   0      27.565  42.070  50.575  1.00  0.00     0.321 C 
HETATM   15  N   UNK A   0      26.881  42.758  49.621  1.00  0.00    -0.309 N 
HETATM   16  O   UNK A   0      27.746  40.863  50.428  1.00  0.00    -0.247 OA
HETATM   17  H   UNK A   0      26.742  42.191  48.794  1.00  0.00     0.170 HD
ATOM     18  H   TRP A   1      28.269  43.750  51.427  1.00  0.00     0.164 HD
BRANCH  15  19
HETATM   19  C   UNK A   0      26.211  43.996  49.640  1.00  0.00     0.036 A 
HETATM   20  C   UNK A   0      26.853  45.237  49.674  1.00  0.00     0.039 A 
HETATM   21  C   UNK A   0      26.083  46.386  49.775  1.00  0.00    -0.024 A 
HETATM   22  C   UNK A   0      24.701  46.328  49.843  1.00  0.00    -0.026 A 
HETATM   23  C   UNK A   0      26.522  47.799  49.893  1.00  0.00     0.207 C 
HETATM   24  C   UNK A   0      24.160  47.701  49.996  1.00  0.00     0.207 C 
HETATM   25  C   UNK A   0      24.039  45.116  49.817  1.00  0.00     0.012 A 
HETATM   26  O   UNK A   0      25.299  48.567  49.780  1.00  0.00    -0.382 OA
HETATM   27  C   UNK A   0      24.803  43.949  49.720  1.00  0.00     0.030 A 
ENDBRANCH  15  19
ENDBRANCH   1  13
BRANCH   1  28
ATOM     28  C   TRP A   1      27.914  41.803  53.919  1.00  0.00     0.189 C 
BRANCH  28  29
ATOM     29  O   TRP A   1      27.249  40.564  53.673  1.00  0.00    -0.399 OA
ATOM     30  H   TRP A   1      26.781  40.683  52.827  1.00  0.00     0.209 HD
ENDBRANCH  28  29
ENDBRANCH   1  28
TORSDOF 6
ENDMDL
MODEL 4
REMARK VINA RESULT:      -8.8      2.075      3.457
REMARK  6 active torsions:
REMARK  status: ('A' for Active; 'I' for Inactive)
REMARK    1  A    between atoms: CG_8  and  CB_9 
REMARK    2  A    between atoms: CB_9  and  CA_10 
REMARK    3  A    between atoms: CA_10  and  N_11 
REMARK    4  A    between atoms: CA_10  and  C_12 
REMARK       I    between atoms: N_11  and  C_18 
REMARK    5  A    between atoms: C_12  and  O_13 
REMARK       I    between atoms: C_18  and  N_19 
REMARK    6  A    between atoms: N_19  and  C_20 
ROOT
ATOM      1  CA  TRP A   1      26.221  46.205  51.267  1.00  0.00     0.114 C 
ENDROOT
BRANCH   1   2
ATOM      2  CB  TRP A   1      25.689  46.012  52.704  1.00  0.00     0.068 C 
BRANCH   2   3
ATOM      3  CG  TRP A   1      26.778  46.104  53.736  1.00  0.00    -0.028 A 
ATOM      4  CD2 TRP A   1      27.821  45.156  53.990  1.00  0.00    -0.002 A 
ATOM      5  CE3 TRP A   1      28.193  43.924  53.416  1.00  0.00     0.014 A 
ATOM      6  CE2 TRP A   1      28.574  45.641  55.060  1.00  0.00     0.042 A 
ATOM      7  CZ3 TRP A   1      29.278  43.214  53.944  1.00  0.00     0.001 A 
ATOM      8  CH2 TRP A   1      30.001  43.721  55.020  1.00  0.00     0.002 A 
ATOM      9  CZ2 TRP A   1      29.667  44.949  55.597  1.00  0.00     0.030 A 
ATOM     10  NE1 TRP A   1      28.034  46.853  55.419  1.00  0.00    -0.365 N 
ATOM     11  HE1 TRP A   1      28.391  47.443  56.159  1.00  0.00     0.165 HD
ATOM     12  CD1 TRP A   1      26.953  47.142  54.632  1.00  0.00     0.096 A 
ENDBRANCH   2   3
ENDBRANCH   1   2
BRANCH   1  13
ATOM     13  N   TRP A   1      25.574  47.324  50.565  1.00  0.00    -0.336 N 
HETATM   14  C   UNK A   0      26.135  47.992  49.525  1.00  0.00     0.321 C 
HETATM   15  N   UNK A   0      25.415  48.994  48.955  1.00  0.00    -0.309 N 
HETATM   16  O   UNK A   0      27.278  47.775  49.129  1.00  0.00    -0.247 OA
HETATM   17  H   UNK A   0      25.999  49.567  48.358  1.00  0.00     0.170 HD
ATOM     18  H   TRP A   1      24.877  47.837  51.086  1.00  0.00     0.164 HD
BRANCH  15  19
HETATM   19  C   UNK A   0      24.033  49.263  48.909  1.00  0.00     0.036 A 
HETATM   20  C   UNK A   0      23.040  48.282  48.944  1.00  0.00     0.039 A 
HETATM   21  C   UNK A   0      21.714  48.667  48.808  1.00  0.00    -0.024 A 
HETATM   22  C   UNK A   0      21.359  49.995  48.637  1.00  0.00    -0.026 A 
HETATM   23  C   UNK A   0      20.496  47.821  48.747  1.00  0.00     0.207 C 
HETATM   24  C   UNK A   0      19.888  50.091  48.469  1.00  0.00     0.207 C 
HETATM   25  C   UNK A   0      22.320  50.986  48.593  1.00  0.00     0.012 A 
HETATM   26  O   UNK A   0      19.399  48.766  48.784  1.00  0.00    -0.382 OA
HETATM   27  C   UNK A   0      23.661  50.612  48.725  1.00  0.00     0.030 A 
ENDBRANCH  15  19
ENDBRANCH   1  13
BRANCH   1  28
ATOM     28  C   TRP A   1      26.151  44.886  50.474  1.00  0.00     0.189 C 
BRANCH  28  29
ATOM     29  O   TRP A   1      27.321  44.726  49.672  1.00  0.00    -0.399 OA
ATOM     30  H   TRP A   1      27.587  45.628  49.418  1.00  0.00     0.209 HD
ENDBRANCH  28  29
ENDBRANCH   1  28
TORSDOF 6
ENDMDL
MODEL 5
REMARK VINA RESULT:      -8.8      1.645      2.467
REMARK  6 active torsions:
REMARK  status: ('A' for Active; 'I' for Inactive)
REMARK    1  A    between atoms: CG_8  and  CB_9 
REMARK    2  A    between atoms: CB_9  and  CA_10 
REMARK    3  A    between atoms: CA_10  and  N_11 
REMARK    4  A    between atoms: CA_10  and  C_12 
REMARK       I    between atoms: N_11  and  C_18 
REMARK    5  A    between atoms: C_12  and  O_13 
REMARK       I    between atoms: C_18  and  N_19 
REMARK    6  A    between atoms: N_19  and  C_20 
ROOT
ATOM      1  CA  TRP A   1      27.150  43.583  51.757  1.00  0.00     0.114 C 
ENDROOT
BRANCH   1   2
ATOM      2  CB  TRP A   1      26.936  43.380  53.273  1.00  0.00     0.068 C 
BRANCH   2   3
ATOM      3  CG  TRP A   1      27.694  44.380  54.099  1.00  0.00    -0.028 A 
ATOM      4  CD2 TRP A   1      28.926  44.178  54.801  1.00  0.00    -0.002 A 
ATOM      5  CE3 TRP A   1      29.809  43.089  54.947  1.00  0.00     0.014 A 
ATOM      6  CE2 TRP A   1      29.234  45.370  55.457  1.00  0.00     0.042 A 
ATOM      7  CZ3 TRP A   1      30.942  43.220  55.758  1.00  0.00     0.001 A 
ATOM      8  CH2 TRP A   1      31.213  44.420  56.409  1.00  0.00     0.002 A 
ATOM      9  CZ2 TRP A   1      30.366  45.523  56.267  1.00  0.00     0.030 A 
ATOM     10  NE1 TRP A   1      28.248  46.274  55.139  1.00  0.00    -0.365 N 
ATOM     11  HE1 TRP A   1      28.222  47.231  55.462  1.00  0.00     0.165 HD
ATOM     12  CD1 TRP A   1      27.316  45.691  54.325  1.00  0.00     0.096 A 
ENDBRANCH   2   3
ENDBRANCH   1   2
BRANCH   1  13
ATOM     13  N   TRP A   1      26.228  44.572  51.179  1.00  0.00    -0.336 N 
HETATM   14  C   UNK A   0      24.948  44.747  51.591  1.00  0.00     0.321 C 
HETATM   15  N   UNK A   0      24.213  45.714  50.981  1.00  0.00    -0.309 N 
HETATM   16  O   UNK A   0      24.413  44.031  52.435  1.00  0.00    -0.247 OA
HETATM   17  H   UNK A   0      23.228  45.610  51.193  1.00  0.00     0.170 HD
ATOM     18  H   TRP A   1      26.425  44.869  50.233  1.00  0.00     0.164 HD
BRANCH  15  19
HETATM   19  C   UNK A   0      24.574  46.882  50.282  1.00  0.00     0.036 A 
HETATM   20  C   UNK A   0      23.688  47.646  49.517  1.00  0.00     0.039 A 
HETATM   21  C   UNK A   0      24.182  48.731  48.807  1.00  0.00    -0.024 A 
HETATM   22  C   UNK A   0      25.524  49.068  48.840  1.00  0.00    -0.026 A 
HETATM   23  C   UNK A   0      23.468  49.646  47.882  1.00  0.00     0.207 C 
HETATM   24  C   UNK A   0      25.759  50.231  47.950  1.00  0.00     0.207 C 
HETATM   25  C   UNK A   0      26.424  48.329  49.584  1.00  0.00     0.012 A 
HETATM   26  O   UNK A   0      24.434  50.683  47.584  1.00  0.00    -0.382 OA
HETATM   27  C   UNK A   0      25.941  47.230  50.301  1.00  0.00     0.030 A 
ENDBRANCH  15  19
ENDBRANCH   1  13
BRANCH   1  28
ATOM     28  C   TRP A   1      27.118  42.234  51.013  1.00  0.00     0.189 C 
BRANCH  28  29
ATOM     29  O   TRP A   1      26.024  41.440  51.471  1.00  0.00    -0.399 OA
ATOM     30  H   TRP A   1      25.666  41.913  52.244  1.00  0.00     0.209 HD
ENDBRANCH  28  29
ENDBRANCH   1  28
TORSDOF 6
ENDMDL
MODEL 6
REMARK VINA RESULT:      -8.6     12.160     15.123
REMARK  6 active torsions:
REMARK  status: ('A' for Active; 'I' for Inactive)
REMARK    1  A    between atoms: CG_8  and  CB_9 
REMARK    2  A    between atoms: CB_9  and  CA_10 
REMARK    3  A    between atoms: CA_10  and  N_11 
REMARK    4  A    between atoms: CA_10  and  C_12 
REMARK       I    between atoms: N_11  and  C_18 
REMARK    5  A    between atoms: C_12  and  O_13 
REMARK       I    between atoms: C_18  and  N_19 
REMARK    6  A    between atoms: N_19  and  C_20 
ROOT
ATOM      1  CA  TRP A   1      27.614  50.419  39.375  1.00  0.00     0.114 C 
ENDROOT
BRANCH   1   2
ATOM      2  CB  TRP A   1      27.912  51.821  38.800  1.00  0.00     0.068 C 
BRANCH   2   3
ATOM      3  CG  TRP A   1      29.155  52.428  39.386  1.00  0.00    -0.028 A 
ATOM      4  CD2 TRP A   1      30.515  52.091  39.087  1.00  0.00    -0.002 A 
ATOM      5  CE3 TRP A   1      31.133  51.178  38.210  1.00  0.00     0.014 A 
ATOM      6  CE2 TRP A   1      31.329  52.886  39.895  1.00  0.00     0.042 A 
ATOM      7  CZ3 TRP A   1      32.529  51.073  38.190  1.00  0.00     0.001 A 
ATOM      8  CH2 TRP A   1      33.312  51.873  39.018  1.00  0.00     0.002 A 
ATOM      9  CZ2 TRP A   1      32.727  52.801  39.884  1.00  0.00     0.030 A 
ATOM     10  NE1 TRP A   1      30.500  53.701  40.629  1.00  0.00    -0.365 N 
ATOM     11  HE1 TRP A   1      30.819  54.396  41.290  1.00  0.00     0.165 HD
ATOM     12  CD1 TRP A   1      29.192  53.434  40.334  1.00  0.00     0.096 A 
ENDBRANCH   2   3
ENDBRANCH   1   2
BRANCH   1  13
ATOM     13  N   TRP A   1      28.602  49.991  40.376  1.00  0.00    -0.336 N 
HETATM   14  C   UNK A   0      28.487  48.862  41.120  1.00  0.00     0.321 C 
HETATM   15  N   UNK A   0      29.488  48.576  41.995  1.00  0.00    -0.309 N 
HETATM   16  O   UNK A   0      27.497  48.134  41.084  1.00  0.00    -0.247 OA
HETATM   17  H   UNK A   0      29.204  47.858  42.650  1.00  0.00     0.170 HD
ATOM     18  H   TRP A   1      29.180  50.718  40.775  1.00  0.00     0.164 HD
BRANCH  15  19
HETATM   19  C   UNK A   0      30.843  48.955  42.044  1.00  0.00     0.036 A 
HETATM   20  C   UNK A   0      31.328  50.052  42.762  1.00  0.00     0.039 A 
HETATM   21  C   UNK A   0      32.674  50.373  42.665  1.00  0.00    -0.024 A 
HETATM   22  C   UNK A   0      33.540  49.634  41.876  1.00  0.00    -0.026 A 
HETATM   23  C   UNK A   0      33.410  51.512  43.268  1.00  0.00     0.207 C 
HETATM   24  C   UNK A   0      34.892  50.242  41.931  1.00  0.00     0.207 C 
HETATM   25  C   UNK A   0      33.089  48.547  41.152  1.00  0.00     0.012 A 
HETATM   26  O   UNK A   0      34.801  51.235  42.979  1.00  0.00    -0.382 OA
HETATM   27  C   UNK A   0      31.733  48.215  41.237  1.00  0.00     0.030 A 
ENDBRANCH  15  19
ENDBRANCH   1  13
BRANCH   1  28
ATOM     28  C   TRP A   1      27.430  49.390  38.243  1.00  0.00     0.189 C 
BRANCH  28  29
ATOM     29  O   TRP A   1      26.571  49.913  37.230  1.00  0.00    -0.399 OA
ATOM     30  H   TRP A   1      25.725  49.443  37.339  1.00  0.00     0.209 HD
ENDBRANCH  28  29
ENDBRANCH   1  28
TORSDOF 6
ENDMDL
MODEL 7
REMARK VINA RESULT:      -8.4      4.381      5.319
REMARK  6 active torsions:
REMARK  status: ('A' for Active; 'I' for Inactive)
REMARK    1  A    between atoms: CG_8  and  CB_9 
REMARK    2  A    between atoms: CB_9  and  CA_10 
REMARK    3  A    between atoms: CA_10  and  N_11 
REMARK    4  A    between atoms: CA_10  and  C_12 
REMARK       I    between atoms: N_11  and  C_18 
REMARK    5  A    between atoms: C_12  and  O_13 
REMARK       I    between atoms: C_18  and  N_19 
REMARK    6  A    between atoms: N_19  and  C_20 
ROOT
ATOM      1  CA  TRP A   1      27.275  43.541  53.601  1.00  0.00     0.114 C 
ENDROOT
BRANCH   1   2
ATOM      2  CB  TRP A   1      28.229  44.752  53.513  1.00  0.00     0.068 C 
BRANCH   2   3
ATOM      3  CG  TRP A   1      28.671  45.233  54.866  1.00  0.00    -0.028 A 
ATOM      4  CD2 TRP A   1      29.712  44.692  55.688  1.00  0.00    -0.002 A 
ATOM      5  CE3 TRP A   1      30.631  43.633  55.543  1.00  0.00     0.014 A 
ATOM      6  CE2 TRP A   1      29.741  45.435  56.868  1.00  0.00     0.042 A 
ATOM      7  CZ3 TRP A   1      31.519  43.340  56.584  1.00  0.00     0.001 A 
ATOM      8  CH2 TRP A   1      31.514  44.094  57.755  1.00  0.00     0.002 A 
ATOM      9  CZ2 TRP A   1      30.627  45.162  57.918  1.00  0.00     0.030 A 
ATOM     10  NE1 TRP A   1      28.781  46.413  56.756  1.00  0.00    -0.365 N 
ATOM     11  HE1 TRP A   1      28.590  47.112  57.460  1.00  0.00     0.165 HD
ATOM     12  CD1 TRP A   1      28.130  46.301  55.558  1.00  0.00     0.096 A 
ENDBRANCH   2   3
ENDBRANCH   1   2
BRANCH   1  13
ATOM     13  N   TRP A   1      27.402  42.630  52.453  1.00  0.00    -0.336 N 
HETATM   14  C   UNK A   0      27.756  41.324  52.559  1.00  0.00     0.321 C 
HETATM   15  N   UNK A   0      27.815  40.591  51.416  1.00  0.00    -0.309 N 
HETATM   16  O   UNK A   0      28.087  40.804  53.622  1.00  0.00    -0.247 OA
HETATM   17  H   UNK A   0      28.301  39.715  51.570  1.00  0.00     0.170 HD
ATOM     18  H   TRP A   1      27.587  43.060  51.558  1.00  0.00     0.164 HD
BRANCH  15  19
HETATM   19  C   UNK A   0      27.200  40.741  50.158  1.00  0.00     0.036 A 
HETATM   20  C   UNK A   0      25.821  40.867  49.967  1.00  0.00     0.039 A 
HETATM   21  C   UNK A   0      25.328  40.925  48.672  1.00  0.00    -0.024 A 
HETATM   22  C   UNK A   0      26.168  40.861  47.573  1.00  0.00    -0.026 A 
HETATM   23  C   UNK A   0      23.919  40.993  48.210  1.00  0.00     0.207 C 
HETATM   24  C   UNK A   0      25.355  40.895  46.332  1.00  0.00     0.207 C 
HETATM   25  C   UNK A   0      27.534  40.732  47.730  1.00  0.00     0.012 A 
HETATM   26  O   UNK A   0      24.018  41.216  46.782  1.00  0.00    -0.382 OA
HETATM   27  C   UNK A   0      28.045  40.667  49.031  1.00  0.00     0.030 A 
ENDBRANCH  15  19
ENDBRANCH   1  13
BRANCH   1  28
ATOM     28  C   TRP A   1      25.823  44.003  53.834  1.00  0.00     0.189 C 
BRANCH  28  29
ATOM     29  O   TRP A   1      24.969  43.494  52.809  1.00  0.00    -0.399 OA
ATOM     30  H   TRP A   1      24.395  42.842  53.250  1.00  0.00     0.209 HD
ENDBRANCH  28  29
ENDBRANCH   1  28
TORSDOF 6
ENDMDL
MODEL 8
REMARK VINA RESULT:      -8.4      1.848      2.732
REMARK  6 active torsions:
REMARK  status: ('A' for Active; 'I' for Inactive)
REMARK    1  A    between atoms: CG_8  and  CB_9 
REMARK    2  A    between atoms: CB_9  and  CA_10 
REMARK    3  A    between atoms: CA_10  and  N_11 
REMARK    4  A    between atoms: CA_10  and  C_12 
REMARK       I    between atoms: N_11  and  C_18 
REMARK    5  A    between atoms: C_12  and  O_13 
REMARK       I    between atoms: C_18  and  N_19 
REMARK    6  A    between atoms: N_19  and  C_20 
ROOT
ATOM      1  CA  TRP A   1      25.513  45.241  51.194  1.00  0.00     0.114 C 
ENDROOT
BRANCH   1   2
ATOM      2  CB  TRP A   1      26.240  45.363  52.551  1.00  0.00     0.068 C 
BRANCH   2   3
ATOM      3  CG  TRP A   1      27.404  44.419  52.665  1.00  0.00    -0.028 A 
ATOM      4  CD2 TRP A   1      28.382  44.362  53.710  1.00  0.00    -0.002 A 
ATOM      5  CE3 TRP A   1      28.587  45.076  54.907  1.00  0.00     0.014 A 
ATOM      6  CE2 TRP A   1      29.290  43.356  53.377  1.00  0.00     0.042 A 
ATOM      7  CZ3 TRP A   1      29.696  44.782  55.708  1.00  0.00     0.001 A 
ATOM      8  CH2 TRP A   1      30.590  43.780  55.341  1.00  0.00     0.002 A 
ATOM      9  CZ2 TRP A   1      30.401  43.042  54.169  1.00  0.00     0.030 A 
ATOM     10  NE1 TRP A   1      28.863  42.798  52.196  1.00  0.00    -0.365 N 
ATOM     11  HE1 TRP A   1      29.322  42.031  51.725  1.00  0.00     0.165 HD
ATOM     12  CD1 TRP A   1      27.731  43.429  51.756  1.00  0.00     0.096 A 
ENDBRANCH   2   3
ENDBRANCH   1   2
BRANCH   1  13
ATOM     13  N   TRP A   1      25.286  46.543  50.549  1.00  0.00    -0.336 N 
HETATM   14  C   UNK A   0      26.135  47.102  49.651  1.00  0.00     0.321 C 
HETATM   15  N   UNK A   0      25.788  48.304  49.116  1.00  0.00    -0.309 N 
HETATM   16  O   UNK A   0      27.220  46.606  49.356  1.00  0.00    -0.247 OA
HETATM   17  H   UNK A   0      26.576  48.734  48.647  1.00  0.00     0.170 HD
ATOM     18  H   TRP A   1      24.689  47.190  51.045  1.00  0.00     0.164 HD
BRANCH  15  19
HETATM   19  C   UNK A   0      24.547  48.948  48.954  1.00  0.00     0.036 A 
HETATM   20  C   UNK A   0      23.317  48.388  49.309  1.00  0.00     0.039 A 
HETATM   21  C   UNK A   0      22.155  49.089  49.023  1.00  0.00    -0.024 A 
HETATM   22  C   UNK A   0      22.189  50.323  48.395  1.00  0.00    -0.026 A 
HETATM   23  C   UNK A   0      20.743  48.686  49.238  1.00  0.00     0.207 C 
HETATM   24  C   UNK A   0      20.801  50.800  48.177  1.00  0.00     0.207 C 
HETATM   25  C   UNK A   0      23.389  50.899  48.027  1.00  0.00     0.012 A 
HETATM   26  O   UNK A   0      19.977  49.874  48.923  1.00  0.00    -0.382 OA
HETATM   27  C   UNK A   0      24.569  50.202  48.306  1.00  0.00     0.030 A 
ENDBRANCH  15  19
ENDBRANCH   1  13
BRANCH   1  28
ATOM     28  C   TRP A   1      24.221  44.414  51.337  1.00  0.00     0.189 C 
BRANCH  28  29
ATOM     29  O   TRP A   1      23.245  44.852  50.391  1.00  0.00    -0.399 OA
ATOM     30  H   TRP A   1      23.506  44.448  49.543  1.00  0.00     0.209 HD
ENDBRANCH  28  29
ENDBRANCH   1  28
TORSDOF 6
ENDMDL
MODEL 9
REMARK VINA RESULT:      -8.3      3.963      8.464
REMARK  6 active torsions:
REMARK  status: ('A' for Active; 'I' for Inactive)
REMARK    1  A    between atoms: CG_8  and  CB_9 
REMARK    2  A    between atoms: CB_9  and  CA_10 
REMARK    3  A    between atoms: CA_10  and  N_11 
REMARK    4  A    between atoms: CA_10  and  C_12 
REMARK       I    between atoms: N_11  and  C_18 
REMARK    5  A    between atoms: C_12  and  O_13 
REMARK       I    between atoms: C_18  and  N_19 
REMARK    6  A    between atoms: N_19  and  C_20 
ROOT
ATOM      1  CA  TRP A   1      27.520  43.821  50.761  1.00  0.00     0.114 C 
ENDROOT
BRANCH   1   2
ATOM      2  CB  TRP A   1      26.746  42.486  50.806  1.00  0.00     0.068 C 
BRANCH   2   3
ATOM      3  CG  TRP A   1      27.660  41.295  50.878  1.00  0.00    -0.028 A 
ATOM      4  CD2 TRP A   1      27.963  40.364  49.833  1.00  0.00    -0.002 A 
ATOM      5  CE3 TRP A   1      27.579  40.239  48.483  1.00  0.00     0.014 A 
ATOM      6  CE2 TRP A   1      28.827  39.406  50.365  1.00  0.00     0.042 A 
ATOM      7  CZ3 TRP A   1      28.045  39.158  47.727  1.00  0.00     0.001 A 
ATOM      8  CH2 TRP A   1      28.897  38.212  48.293  1.00  0.00     0.002 A 
ATOM      9  CZ2 TRP A   1      29.310  38.321  49.623  1.00  0.00     0.030 A 
ATOM     10  NE1 TRP A   1      29.069  39.760  51.672  1.00  0.00    -0.365 N 
ATOM     11  HE1 TRP A   1      29.677  39.252  52.299  1.00  0.00     0.165 HD
ATOM     12  CD1 TRP A   1      28.372  40.892  51.992  1.00  0.00     0.096 A 
ENDBRANCH   2   3
ENDBRANCH   1   2
BRANCH   1  13
ATOM     13  N   TRP A   1      27.914  44.297  52.096  1.00  0.00    -0.336 N 
HETATM   14  C   UNK A   0      27.085  44.963  52.938  1.00  0.00     0.321 C 
HETATM   15  N   UNK A   0      27.576  45.326  54.153  1.00  0.00    -0.309 N 
HETATM   16  O   UNK A   0      25.947  45.305  52.626  1.00  0.00    -0.247 OA
HETATM   17  H   UNK A   0      26.971  46.003  54.602  1.00  0.00     0.170 HD
ATOM     18  H   TRP A   1      28.902  44.456  52.241  1.00  0.00     0.164 HD
BRANCH  15  19
HETATM   19  C   UNK A   0      28.633  44.826  54.939  1.00  0.00     0.036 A 
HETATM   20  C   UNK A   0      29.094  45.429  56.112  1.00  0.00     0.039 A 
HETATM   21  C   UNK A   0      30.197  44.887  56.754  1.00  0.00    -0.024 A 
HETATM   22  C   UNK A   0      30.847  43.769  56.258  1.00  0.00    -0.026 A 
HETATM   23  C   UNK A   0      30.909  45.373  57.962  1.00  0.00     0.207 C 
HETATM   24  C   UNK A   0      32.012  43.455  57.122  1.00  0.00     0.207 C 
HETATM   25  C   UNK A   0      30.417  43.154  55.098  1.00  0.00     0.012 A 
HETATM   26  O   UNK A   0      31.855  44.321  58.270  1.00  0.00    -0.382 OA
HETATM   27  C   UNK A   0      29.308  43.693  54.437  1.00  0.00     0.030 A 
ENDBRANCH  15  19
ENDBRANCH   1  13
BRANCH   1  28
ATOM     28  C   TRP A   1      26.740  44.881  49.959  1.00  0.00     0.189 C 
BRANCH  28  29
ATOM     29  O   TRP A   1      27.642  45.789  49.328  1.00  0.00    -0.399 OA
ATOM     30  H   TRP A   1      27.300  46.679  49.531  1.00  0.00     0.209 HD
ENDBRANCH  28  29
ENDBRANCH   1  28
TORSDOF 6
ENDMDL
MODEL 10
REMARK VINA RESULT:      -8.2      1.978      3.601
REMARK  6 active torsions:
REMARK  status: ('A' for Active; 'I' for Inactive)
REMARK    1  A    between atoms: CG_8  and  CB_9 
REMARK    2  A    between atoms: CB_9  and  CA_10 
REMARK    3  A    between atoms: CA_10  and  N_11 
REMARK    4  A    between atoms: CA_10  and  C_12 
REMARK       I    between atoms: N_11  and  C_18 
REMARK    5  A    between atoms: C_12  and  O_13 
REMARK       I    between atoms: C_18  and  N_19 
REMARK    6  A    between atoms: N_19  and  C_20 
ROOT
ATOM      1  CA  TRP A   1      28.768  42.688  52.672  1.00  0.00     0.114 C 
ENDROOT
BRANCH   1   2
ATOM      2  CB  TRP A   1      28.295  42.856  54.132  1.00  0.00     0.068 C 
BRANCH   2   3
ATOM      3  CG  TRP A   1      28.461  44.264  54.630  1.00  0.00    -0.028 A 
ATOM      4  CD2 TRP A   1      27.572  45.369  54.432  1.00  0.00    -0.002 A 
ATOM      5  CE3 TRP A   1      26.331  45.531  53.786  1.00  0.00     0.014 A 
ATOM      6  CE2 TRP A   1      28.151  46.484  55.041  1.00  0.00     0.042 A 
ATOM      7  CZ3 TRP A   1      25.730  46.795  53.747  1.00  0.00     0.001 A 
ATOM      8  CH2 TRP A   1      26.340  47.889  54.354  1.00  0.00     0.002 A 
ATOM      9  CZ2 TRP A   1      27.561  47.754  55.019  1.00  0.00     0.030 A 
ATOM     10  NE1 TRP A   1      29.327  46.067  55.618  1.00  0.00    -0.365 N 
ATOM     11  HE1 TRP A   1      29.950  46.663  56.144  1.00  0.00     0.165 HD
ATOM     12  CD1 TRP A   1      29.525  44.735  55.377  1.00  0.00     0.096 A 
ENDBRANCH   2   3
ENDBRANCH   1   2
BRANCH   1  13
ATOM     13  N   TRP A   1      27.881  43.353  51.705  1.00  0.00    -0.336 N 
HETATM   14  C   UNK A   0      26.748  42.796  51.209  1.00  0.00     0.321 C 
HETATM   15  N   UNK A   0      26.011  43.533  50.336  1.00  0.00    -0.309 N 
HETATM   16  O   UNK A   0      26.403  41.643  51.460  1.00  0.00    -0.247 OA
HETATM   17  H   UNK A   0      25.329  42.956  49.858  1.00  0.00     0.170 HD
ATOM     18  H   TRP A   1      28.303  44.069  51.130  1.00  0.00     0.164 HD
BRANCH  15  19
HETATM   19  C   UNK A   0      25.909  44.920  50.115  1.00  0.00     0.036 A 
HETATM   20  C   UNK A   0      24.703  45.624  50.081  1.00  0.00     0.039 A 
HETATM   21  C   UNK A   0      24.726  46.976  49.770  1.00  0.00    -0.024 A 
HETATM   22  C   UNK A   0      25.911  47.636  49.494  1.00  0.00    -0.026 A 
HETATM   23  C   UNK A   0      23.590  47.918  49.608  1.00  0.00     0.207 C 
HETATM   24  C   UNK A   0      25.617  49.049  49.149  1.00  0.00     0.207 C 
HETATM   25  C   UNK A   0      27.119  46.965  49.516  1.00  0.00     0.012 A 
HETATM   26  O   UNK A   0      24.216  49.216  49.469  1.00  0.00    -0.382 OA
HETATM   27  C   UNK A   0      27.110  45.601  49.823  1.00  0.00     0.030 A 
ENDBRANCH  15  19
ENDBRANCH   1  13
BRANCH   1  28
ATOM     28  C   TRP A   1      29.002  41.201  52.339  1.00  0.00     0.189 C 
BRANCH  28  29
ATOM     29  O   TRP A   1      28.371  40.369  53.312  1.00  0.00    -0.399 OA
ATOM     30  H   TRP A   1      28.153  39.542  52.845  1.00  0.00     0.209 HD
ENDBRANCH  28  29
ENDBRANCH   1  28
TORSDOF 6
ENDMDL
