MODEL 1
REMARK VINA RESULT:      -9.2      0.000      0.000
REMARK  3 active torsions:
REMARK  status: ('A' for Active; 'I' for Inactive)
REMARK    1  A    between atoms: C_2  and  C_3 
REMARK    2  A    between atoms: C_6  and  C_7 
REMARK       I    between atoms: C_7  and  N_8 
REMARK    3  A    between atoms: N_8  and  N_9 
ROOT
HETATM    1  C   UNL     1      26.156  45.228  53.200  1.00  0.00    -0.021 A 
HETATM    2  C   UNL     1      25.280  44.694  52.235  1.00  0.00     0.011 A 
HETATM    3  C   UNL     1      24.768  45.481  51.192  1.00  0.00     0.018 A 
HETATM    4  C   UNL     1      25.121  46.829  51.086  1.00  0.00     0.033 A 
HETATM    5  C   UNL     1      26.007  47.364  52.030  1.00  0.00     0.018 A 
HETATM    6  C   UNL     1      26.522  46.576  53.063  1.00  0.00     0.011 A 
ENDROOT
BRANCH   4   7
HETATM    7  C   UNL     1      24.643  47.736  49.996  1.00  0.00     0.266 C 
HETATM    8  N   UNL     1      23.266  47.889  49.847  1.00  0.00    -0.284 N 
HETATM    9  H   UNL     1      22.617  47.488  50.512  1.00  0.00     0.184 HD
HETATM   10  O   UNL     1      25.477  48.302  49.292  1.00  0.00    -0.266 OA
BRANCH   8  11
HETATM   11  N   UNL     1      22.697  48.720  48.849  1.00  0.00    -0.220 NA
HETATM   12  C   UNL     1      21.449  48.177  48.247  1.00  0.00     0.153 C 
HETATM   13  C   UNL     1      20.541  49.353  48.078  1.00  0.00    -0.036 A 
HETATM   14  C   UNL     1      21.099  50.473  48.690  1.00  0.00    -0.036 A 
HETATM   15  C   UNL     1      19.297  49.412  47.472  1.00  0.00     0.009 A 
HETATM   16  C   UNL     1      22.421  50.114  49.292  1.00  0.00     0.153 C 
HETATM   17  C   UNL     1      20.429  51.683  48.717  1.00  0.00     0.009 A 
HETATM   18  C   UNL     1      19.174  51.758  48.107  1.00  0.00     0.001 A 
HETATM   19  C   UNL     1      18.612  50.629  47.488  1.00  0.00     0.001 A 
ENDBRANCH   8  11
ENDBRANCH   4   7
BRANCH   1  20
HETATM   20  C   UNL     1      26.754  44.356  54.301  1.00  0.00     0.139 A 
HETATM   21  C   UNL     1      25.668  43.623  55.085  1.00  0.00     0.054 C 
HETATM   22  N   UNL     1      27.609  45.116  55.197  1.00  0.00    -0.321 N 
HETATM   23  C   UNL     1      28.909  44.682  55.197  1.00  0.00     0.324 A 
HETATM   24  H   UNL     1      27.311  45.846  55.826  1.00  0.00     0.165 HD
HETATM   25  O   UNL     1      29.791  45.134  55.903  1.00  0.00    -0.247 OA
HETATM   26  N   UNL     1      29.028  43.663  54.322  1.00  0.00    -0.277 N 
HETATM   27  C   UNL     1      27.815  43.338  53.799  1.00  0.00     0.258 A 
HETATM   28  H   UNL     1      29.872  43.137  54.180  1.00  0.00     0.173 HD
HETATM   29  O   UNL     1      27.622  42.372  53.075  1.00  0.00    -0.270 OA
ENDBRANCH   1  20
TORSDOF 3
ENDMDL
MODEL 2
REMARK VINA RESULT:      -9.1      1.360      1.766
REMARK  3 active torsions:
REMARK  status: ('A' for Active; 'I' for Inactive)
REMARK    1  A    between atoms: C_2  and  C_3 
REMARK    2  A    between atoms: C_6  and  C_7 
REMARK       I    between atoms: C_7  and  N_8 
REMARK    3  A    between atoms: N_8  and  N_9 
ROOT
HETATM    1  C   UNL     1      26.845  45.236  52.727  1.00  0.00    -0.021 A 
HETATM    2  C   UNL     1      26.881  44.920  51.355  1.00  0.00     0.011 A 
HETATM    3  C   UNL     1      26.221  45.710  50.401  1.00  0.00     0.018 A 
HETATM    4  C   UNL     1      25.504  46.843  50.797  1.00  0.00     0.033 A 
HETATM    5  C   UNL     1      25.478  47.176  52.157  1.00  0.00     0.018 A 
HETATM    6  C   UNL     1      26.144  46.392  53.104  1.00  0.00     0.011 A 
ENDROOT
BRANCH   4   7
HETATM    7  C   UNL     1      24.790  47.754  49.849  1.00  0.00     0.266 C 
HETATM    8  N   UNL     1      23.398  47.705  49.837  1.00  0.00    -0.284 N 
HETATM    9  H   UNL     1      22.886  47.153  50.514  1.00  0.00     0.184 HD
HETATM   10  O   UNL     1      25.457  48.500  49.133  1.00  0.00    -0.266 OA
BRANCH   8  11
HETATM   11  N   UNL     1      22.615  48.520  48.981  1.00  0.00    -0.220 NA
HETATM   12  C   UNL     1      21.265  47.968  48.685  1.00  0.00     0.153 C 
HETATM   13  C   UNL     1      20.338  49.141  48.708  1.00  0.00    -0.036 A 
HETATM   14  C   UNL     1      21.017  50.270  49.159  1.00  0.00    -0.036 A 
HETATM   15  C   UNL     1      18.990  49.191  48.397  1.00  0.00     0.009 A 
HETATM   16  C   UNL     1      22.442  49.921  49.453  1.00  0.00     0.153 C 
HETATM   17  C   UNL     1      20.366  51.481  49.318  1.00  0.00     0.009 A 
HETATM   18  C   UNL     1      19.006  51.546  49.007  1.00  0.00     0.001 A 
HETATM   19  C   UNL     1      18.322  50.408  48.549  1.00  0.00     0.001 A 
ENDBRANCH   8  11
ENDBRANCH   4   7
BRANCH   1  20
HETATM   20  C   UNL     1      27.609  44.407  53.756  1.00  0.00     0.139 A 
HETATM   21  C   UNL     1      28.275  45.296  54.804  1.00  0.00     0.054 C 
HETATM   22  N   UNL     1      28.585  43.528  53.135  1.00  0.00    -0.321 N 
HETATM   23  C   UNL     1      28.340  42.200  53.371  1.00  0.00     0.324 A 
HETATM   24  H   UNL     1      29.412  43.816  52.634  1.00  0.00     0.165 HD
HETATM   25  O   UNL     1      29.049  41.286  52.993  1.00  0.00    -0.247 OA
HETATM   26  N   UNL     1      27.219  42.090  54.111  1.00  0.00    -0.277 N 
HETATM   27  C   UNL     1      26.752  43.319  54.458  1.00  0.00     0.258 A 
HETATM   28  H   UNL     1      26.858  41.220  54.463  1.00  0.00     0.173 HD
HETATM   29  O   UNL     1      25.820  43.502  55.230  1.00  0.00    -0.270 OA
ENDBRANCH   1  20
TORSDOF 3
ENDMDL
MODEL 3
REMARK VINA RESULT:      -9.0      1.966      2.770
REMARK  3 active torsions:
REMARK  status: ('A' for Active; 'I' for Inactive)
REMARK    1  A    between atoms: C_2  and  C_3 
REMARK    2  A    between atoms: C_6  and  C_7 
REMARK       I    between atoms: C_7  and  N_8 
REMARK    3  A    between atoms: N_8  and  N_9 
ROOT
HETATM    1  C   UNL     1      25.170  44.865  50.612  1.00  0.00    -0.021 A 
HETATM    2  C   UNL     1      25.794  46.009  51.145  1.00  0.00     0.011 A 
HETATM    3  C   UNL     1      25.385  47.304  50.787  1.00  0.00     0.018 A 
HETATM    4  C   UNL     1      24.335  47.487  49.882  1.00  0.00     0.033 A 
HETATM    5  C   UNL     1      23.696  46.354  49.361  1.00  0.00     0.018 A 
HETATM    6  C   UNL     1      24.100  45.067  49.726  1.00  0.00     0.011 A 
ENDROOT
BRANCH   4   7
HETATM    7  C   UNL     1      23.818  48.827  49.462  1.00  0.00     0.266 C 
HETATM    8  N   UNL     1      22.440  49.027  49.512  1.00  0.00    -0.284 N 
HETATM    9  H   UNL     1      21.822  48.333  49.915  1.00  0.00     0.184 HD
HETATM   10  O   UNL     1      24.623  49.682  49.099  1.00  0.00    -0.266 OA
BRANCH   8  11
HETATM   11  N   UNL     1      21.835  50.253  49.138  1.00  0.00    -0.220 NA
HETATM   12  C   UNL     1      21.076  50.189  47.859  1.00  0.00     0.153 C 
HETATM   13  C   UNL     1      19.844  51.005  48.083  1.00  0.00    -0.036 A 
HETATM   14  C   UNL     1      19.760  51.375  49.423  1.00  0.00    -0.036 A 
HETATM   15  C   UNL     1      18.853  51.352  47.180  1.00  0.00     0.009 A 
HETATM   16  C   UNL     1      20.939  50.839  50.171  1.00  0.00     0.153 C 
HETATM   17  C   UNL     1      18.680  52.098  49.901  1.00  0.00     0.009 A 
HETATM   18  C   UNL     1      17.674  52.455  49.000  1.00  0.00     0.001 A 
HETATM   19  C   UNL     1      17.760  52.085  47.648  1.00  0.00     0.001 A 
ENDBRANCH   8  11
ENDBRANCH   4   7
BRANCH   1  20
HETATM   20  C   UNL     1      25.581  43.460  51.044  1.00  0.00     0.139 A 
HETATM   21  C   UNL     1      24.529  42.425  50.648  1.00  0.00     0.054 C 
HETATM   22  N   UNL     1      25.863  43.385  52.467  1.00  0.00    -0.321 N 
HETATM   23  C   UNL     1      27.156  43.025  52.742  1.00  0.00     0.324 A 
HETATM   24  H   UNL     1      25.195  43.507  53.214  1.00  0.00     0.165 HD
HETATM   25  O   UNL     1      27.606  42.852  53.859  1.00  0.00    -0.247 OA
HETATM   26  N   UNL     1      27.819  42.863  51.578  1.00  0.00    -0.277 N 
HETATM   27  C   UNL     1      26.975  43.016  50.522  1.00  0.00     0.258 A 
HETATM   28  H   UNL     1      28.770  42.544  51.510  1.00  0.00     0.173 HD
HETATM   29  O   UNL     1      27.291  42.801  49.360  1.00  0.00    -0.270 OA
ENDBRANCH   1  20
TORSDOF 3
ENDMDL
MODEL 4
REMARK VINA RESULT:      -8.8      2.781      3.734
REMARK  3 active torsions:
REMARK  status: ('A' for Active; 'I' for Inactive)
REMARK    1  A    between atoms: C_2  and  C_3 
REMARK    2  A    between atoms: C_6  and  C_7 
REMARK       I    between atoms: C_7  and  N_8 
REMARK    3  A    between atoms: N_8  and  N_9 
ROOT
HETATM    1  C   UNL     1      25.599  45.496  50.184  1.00  0.00    -0.021 A 
HETATM    2  C   UNL     1      26.375  46.670  50.161  1.00  0.00     0.011 A 
HETATM    3  C   UNL     1      25.828  47.906  49.782  1.00  0.00     0.018 A 
HETATM    4  C   UNL     1      24.483  47.999  49.414  1.00  0.00     0.033 A 
HETATM    5  C   UNL     1      23.698  46.839  49.452  1.00  0.00     0.018 A 
HETATM    6  C   UNL     1      24.243  45.612  49.839  1.00  0.00     0.011 A 
ENDROOT
BRANCH   4   7
HETATM    7  C   UNL     1      23.811  49.276  49.019  1.00  0.00     0.266 C 
HETATM    8  N   UNL     1      22.510  49.483  49.473  1.00  0.00    -0.284 N 
HETATM    9  H   UNL     1      22.074  48.847  50.129  1.00  0.00     0.184 HD
HETATM   10  O   UNL     1      24.431  50.077  48.322  1.00  0.00    -0.266 OA
BRANCH   8  11
HETATM   11  N   UNL     1      21.773  50.653  49.162  1.00  0.00    -0.220 NA
HETATM   12  C   UNL     1      21.041  50.583  47.868  1.00  0.00     0.153 C 
HETATM   13  C   UNL     1      19.720  51.238  48.118  1.00  0.00    -0.036 A 
HETATM   14  C   UNL     1      19.579  51.513  49.476  1.00  0.00    -0.036 A 
HETATM   15  C   UNL     1      18.706  51.525  47.219  1.00  0.00     0.009 A 
HETATM   16  C   UNL     1      20.804  51.069  50.212  1.00  0.00     0.153 C 
HETATM   17  C   UNL     1      18.419  52.077  49.976  1.00  0.00     0.009 A 
HETATM   18  C   UNL     1      17.388  52.373  49.081  1.00  0.00     0.001 A 
HETATM   19  C   UNL     1      17.532  52.099  47.711  1.00  0.00     0.001 A 
ENDBRANCH   8  11
ENDBRANCH   4   7
BRANCH   1  20
HETATM   20  C   UNL     1      26.182  44.164  50.649  1.00  0.00     0.139 A 
HETATM   21  C   UNL     1      27.615  44.328  51.151  1.00  0.00     0.054 C 
HETATM   22  N   UNL     1      26.114  43.145  49.617  1.00  0.00    -0.321 N 
HETATM   23  C   UNL     1      25.348  42.066  49.974  1.00  0.00     0.324 A 
HETATM   24  H   UNL     1      26.616  43.150  48.741  1.00  0.00     0.165 HD
HETATM   25  O   UNL     1      25.187  41.072  49.291  1.00  0.00    -0.247 OA
HETATM   26  N   UNL     1      24.845  42.280  51.207  1.00  0.00    -0.277 N 
HETATM   27  C   UNL     1      25.329  43.440  51.727  1.00  0.00     0.258 A 
HETATM   28  H   UNL     1      24.294  41.610  51.716  1.00  0.00     0.173 HD
HETATM   29  O   UNL     1      25.130  43.807  52.877  1.00  0.00    -0.270 OA
ENDBRANCH   1  20
TORSDOF 3
ENDMDL
MODEL 5
REMARK VINA RESULT:      -8.4      4.795      9.892
REMARK  3 active torsions:
REMARK  status: ('A' for Active; 'I' for Inactive)
REMARK    1  A    between atoms: C_2  and  C_3 
REMARK    2  A    between atoms: C_6  and  C_7 
REMARK       I    between atoms: C_7  and  N_8 
REMARK    3  A    between atoms: N_8  and  N_9 
ROOT
HETATM    1  C   UNL     1      23.891  42.919  48.163  1.00  0.00    -0.021 A 
HETATM    2  C   UNL     1      23.513  44.100  48.830  1.00  0.00     0.011 A 
HETATM    3  C   UNL     1      23.922  44.364  50.147  1.00  0.00     0.018 A 
HETATM    4  C   UNL     1      24.726  43.449  50.832  1.00  0.00     0.033 A 
HETATM    5  C   UNL     1      25.123  42.280  50.170  1.00  0.00     0.018 A 
HETATM    6  C   UNL     1      24.721  42.024  48.856  1.00  0.00     0.011 A 
ENDROOT
BRANCH   4   7
HETATM    7  C   UNL     1      25.228  43.657  52.227  1.00  0.00     0.266 C 
HETATM    8  N   UNL     1      26.492  43.158  52.534  1.00  0.00    -0.284 N 
HETATM    9  H   UNL     1      27.090  42.764  51.819  1.00  0.00     0.184 HD
HETATM   10  O   UNL     1      24.512  44.256  53.028  1.00  0.00    -0.266 OA
BRANCH   8  11
HETATM   11  N   UNL     1      27.071  43.295  53.821  1.00  0.00    -0.220 NA
HETATM   12  C   UNL     1      28.353  42.558  53.991  1.00  0.00     0.153 C 
HETATM   13  C   UNL     1      29.233  43.464  54.790  1.00  0.00    -0.036 A 
HETATM   14  C   UNL     1      28.624  44.708  54.934  1.00  0.00    -0.036 A 
HETATM   15  C   UNL     1      30.494  43.219  55.308  1.00  0.00     0.009 A 
HETATM   16  C   UNL     1      27.294  44.702  54.251  1.00  0.00     0.153 C 
HETATM   17  C   UNL     1      29.259  45.745  55.596  1.00  0.00     0.009 A 
HETATM   18  C   UNL     1      30.531  45.511  56.124  1.00  0.00     0.001 A 
HETATM   19  C   UNL     1      31.144  44.255  55.981  1.00  0.00     0.001 A 
ENDBRANCH   8  11
ENDBRANCH   4   7
BRANCH   1  20
HETATM   20  C   UNL     1      23.490  42.660  46.713  1.00  0.00     0.139 A 
HETATM   21  C   UNL     1      24.125  41.378  46.179  1.00  0.00     0.054 C 
HETATM   22  N   UNL     1      23.803  43.785  45.849  1.00  0.00    -0.321 N 
HETATM   23  C   UNL     1      22.695  44.336  45.260  1.00  0.00     0.324 A 
HETATM   24  H   UNL     1      24.726  44.119  45.618  1.00  0.00     0.165 HD
HETATM   25  O   UNL     1      22.717  45.254  44.461  1.00  0.00    -0.247 OA
HETATM   26  N   UNL     1      21.601  43.671  45.684  1.00  0.00    -0.277 N 
HETATM   27  C   UNL     1      21.955  42.623  46.476  1.00  0.00     0.258 A 
HETATM   28  H   UNL     1      20.668  43.849  45.353  1.00  0.00     0.173 HD
HETATM   29  O   UNL     1      21.166  41.786  46.892  1.00  0.00    -0.270 OA
ENDBRANCH   1  20
TORSDOF 3
ENDMDL
MODEL 6
REMARK VINA RESULT:      -8.1      4.503      6.105
REMARK  3 active torsions:
REMARK  status: ('A' for Active; 'I' for Inactive)
REMARK    1  A    between atoms: C_2  and  C_3 
REMARK    2  A    between atoms: C_6  and  C_7 
REMARK       I    between atoms: C_7  and  N_8 
REMARK    3  A    between atoms: N_8  and  N_9 
ROOT
HETATM    1  C   UNL     1      27.674  40.406  50.081  1.00  0.00    -0.021 A 
HETATM    2  C   UNL     1      28.071  40.901  51.338  1.00  0.00     0.011 A 
HETATM    3  C   UNL     1      27.821  42.229  51.718  1.00  0.00     0.018 A 
HETATM    4  C   UNL     1      27.163  43.100  50.844  1.00  0.00     0.033 A 
HETATM    5  C   UNL     1      26.747  42.611  49.600  1.00  0.00     0.018 A 
HETATM    6  C   UNL     1      26.990  41.286  49.228  1.00  0.00     0.011 A 
ENDROOT
BRANCH   4   7
HETATM    7  C   UNL     1      26.834  44.523  51.173  1.00  0.00     0.266 C 
HETATM    8  N   UNL     1      26.613  45.393  50.107  1.00  0.00    -0.284 N 
HETATM    9  H   UNL     1      26.573  45.056  49.153  1.00  0.00     0.184 HD
HETATM   10  O   UNL     1      26.770  44.855  52.355  1.00  0.00    -0.266 OA
BRANCH   8  11
HETATM   11  N   UNL     1      26.296  46.761  50.296  1.00  0.00    -0.220 NA
HETATM   12  C   UNL     1      26.969  47.678  49.336  1.00  0.00     0.153 C 
HETATM   13  C   UNL     1      25.944  48.704  48.975  1.00  0.00    -0.036 A 
HETATM   14  C   UNL     1      24.708  48.346  49.510  1.00  0.00    -0.036 A 
HETATM   15  C   UNL     1      26.085  49.840  48.195  1.00  0.00     0.009 A 
HETATM   16  C   UNL     1      24.839  47.065  50.271  1.00  0.00     0.153 C 
HETATM   17  C   UNL     1      23.578  49.110  49.276  1.00  0.00     0.009 A 
HETATM   18  C   UNL     1      23.707  50.259  48.493  1.00  0.00     0.001 A 
HETATM   19  C   UNL     1      24.953  50.622  47.956  1.00  0.00     0.001 A 
ENDBRANCH   8  11
ENDBRANCH   4   7
BRANCH   1  20
HETATM   20  C   UNL     1      27.899  38.947  49.693  1.00  0.00     0.139 A 
HETATM   21  C   UNL     1      26.589  38.266  49.302  1.00  0.00     0.054 C 
HETATM   22  N   UNL     1      28.573  38.199  50.740  1.00  0.00    -0.321 N 
HETATM   23  C   UNL     1      29.786  37.697  50.348  1.00  0.00     0.324 A 
HETATM   24  H   UNL     1      28.198  37.983  51.652  1.00  0.00     0.165 HD
HETATM   25  O   UNL     1      30.505  37.000  51.038  1.00  0.00    -0.247 OA
HETATM   26  N   UNL     1      30.022  38.075  49.075  1.00  0.00    -0.277 N 
HETATM   27  C   UNL     1      28.951  38.744  48.568  1.00  0.00     0.258 A 
HETATM   28  H   UNL     1      30.823  37.787  48.539  1.00  0.00     0.173 HD
HETATM   29  O   UNL     1      28.853  39.088  47.398  1.00  0.00    -0.270 OA
ENDBRANCH   1  20
TORSDOF 3
ENDMDL
MODEL 7
REMARK VINA RESULT:      -8.0     13.096     16.037
REMARK  3 active torsions:
REMARK  status: ('A' for Active; 'I' for Inactive)
REMARK    1  A    between atoms: C_2  and  C_3 
REMARK    2  A    between atoms: C_6  and  C_7 
REMARK       I    between atoms: C_7  and  N_8 
REMARK    3  A    between atoms: N_8  and  N_9 
ROOT
HETATM    1  C   UNL     1      30.268  50.363  41.196  1.00  0.00    -0.021 A 
HETATM    2  C   UNL     1      30.807  49.759  42.348  1.00  0.00     0.011 A 
HETATM    3  C   UNL     1      32.163  49.898  42.685  1.00  0.00     0.018 A 
HETATM    4  C   UNL     1      33.018  50.649  41.874  1.00  0.00     0.033 A 
HETATM    5  C   UNL     1      32.487  51.269  40.736  1.00  0.00     0.018 A 
HETATM    6  C   UNL     1      31.134  51.137  40.408  1.00  0.00     0.011 A 
ENDROOT
BRANCH   4   7
HETATM    7  C   UNL     1      34.469  50.869  42.167  1.00  0.00     0.266 C 
HETATM    8  N   UNL     1      34.808  51.991  42.921  1.00  0.00    -0.284 N 
HETATM    9  H   UNL     1      34.096  52.576  43.342  1.00  0.00     0.184 HD
HETATM   10  O   UNL     1      35.287  50.058  41.737  1.00  0.00    -0.266 OA
BRANCH   8  11
HETATM   11  N   UNL     1      36.148  52.303  43.259  1.00  0.00    -0.220 NA
HETATM   12  C   UNL     1      36.787  53.298  42.355  1.00  0.00     0.153 C 
HETATM   13  C   UNL     1      37.594  54.188  43.244  1.00  0.00    -0.036 A 
HETATM   14  C   UNL     1      37.328  53.890  44.578  1.00  0.00    -0.036 A 
HETATM   15  C   UNL     1      38.460  55.212  42.897  1.00  0.00     0.009 A 
HETATM   16  C   UNL     1      36.337  52.772  44.659  1.00  0.00     0.153 C 
HETATM   17  C   UNL     1      37.916  54.609  45.604  1.00  0.00     0.009 A 
HETATM   18  C   UNL     1      38.793  55.644  45.269  1.00  0.00     0.001 A 
HETATM   19  C   UNL     1      39.063  55.943  43.923  1.00  0.00     0.001 A 
ENDBRANCH   8  11
ENDBRANCH   4   7
BRANCH   1  20
HETATM   20  C   UNL     1      28.782  50.256  40.862  1.00  0.00     0.139 A 
HETATM   21  C   UNL     1      28.040  49.402  41.888  1.00  0.00     0.054 C 
HETATM   22  N   UNL     1      28.558  49.754  39.518  1.00  0.00    -0.321 N 
HETATM   23  C   UNL     1      27.896  50.645  38.713  1.00  0.00     0.324 A 
HETATM   24  H   UNL     1      28.782  48.829  39.183  1.00  0.00     0.165 HD
HETATM   25  O   UNL     1      27.557  50.424  37.566  1.00  0.00    -0.247 OA
HETATM   26  N   UNL     1      27.661  51.772  39.415  1.00  0.00    -0.277 N 
HETATM   27  C   UNL     1      28.067  51.626  40.705  1.00  0.00     0.258 A 
HETATM   28  H   UNL     1      27.140  52.557  39.064  1.00  0.00     0.173 HD
HETATM   29  O   UNL     1      27.858  52.452  41.583  1.00  0.00    -0.270 OA
ENDBRANCH   1  20
TORSDOF 3
ENDMDL
MODEL 8
REMARK VINA RESULT:      -7.9      7.347     11.011
REMARK  3 active torsions:
REMARK  status: ('A' for Active; 'I' for Inactive)
REMARK    1  A    between atoms: C_2  and  C_3 
REMARK    2  A    between atoms: C_6  and  C_7 
REMARK       I    between atoms: C_7  and  N_8 
REMARK    3  A    between atoms: N_8  and  N_9 
ROOT
HETATM    1  C   UNL     1      28.022  39.545  45.799  1.00  0.00    -0.021 A 
HETATM    2  C   UNL     1      27.645  38.504  46.668  1.00  0.00     0.011 A 
HETATM    3  C   UNL     1      27.377  38.739  48.026  1.00  0.00     0.018 A 
HETATM    4  C   UNL     1      27.478  40.031  48.551  1.00  0.00     0.033 A 
HETATM    5  C   UNL     1      27.833  41.077  47.690  1.00  0.00     0.018 A 
HETATM    6  C   UNL     1      28.091  40.840  46.337  1.00  0.00     0.011 A 
ENDROOT
BRANCH   4   7
HETATM    7  C   UNL     1      27.188  40.378  49.977  1.00  0.00     0.266 C 
HETATM    8  N   UNL     1      28.120  41.170  50.647  1.00  0.00    -0.284 N 
HETATM    9  H   UNL     1      28.907  41.580  50.160  1.00  0.00     0.184 HD
HETATM   10  O   UNL     1      26.151  39.958  50.488  1.00  0.00    -0.266 OA
BRANCH   8  11
HETATM   11  N   UNL     1      27.953  41.561  51.999  1.00  0.00    -0.220 NA
HETATM   12  C   UNL     1      29.202  41.499  52.807  1.00  0.00     0.153 C 
HETATM   13  C   UNL     1      29.174  42.711  53.681  1.00  0.00    -0.036 A 
HETATM   14  C   UNL     1      28.113  43.535  53.314  1.00  0.00    -0.036 A 
HETATM   15  C   UNL     1      30.049  43.077  54.691  1.00  0.00     0.009 A 
HETATM   16  C   UNL     1      27.360  42.914  52.180  1.00  0.00     0.153 C 
HETATM   17  C   UNL     1      27.898  44.749  53.942  1.00  0.00     0.009 A 
HETATM   18  C   UNL     1      28.772  45.130  54.963  1.00  0.00     0.001 A 
HETATM   19  C   UNL     1      29.841  44.298  55.335  1.00  0.00     0.001 A 
ENDBRANCH   8  11
ENDBRANCH   4   7
BRANCH   1  20
HETATM   20  C   UNL     1      28.259  39.295  44.312  1.00  0.00     0.139 A 
HETATM   21  C   UNL     1      28.875  37.918  44.070  1.00  0.00     0.054 C 
HETATM   22  N   UNL     1      29.073  40.334  43.705  1.00  0.00    -0.321 N 
HETATM   23  C   UNL     1      28.422  41.014  42.709  1.00  0.00     0.324 A 
HETATM   24  H   UNL     1      30.042  40.527  43.910  1.00  0.00     0.165 HD
HETATM   25  O   UNL     1      28.920  41.891  42.028  1.00  0.00    -0.247 OA
HETATM   26  N   UNL     1      27.171  40.525  42.594  1.00  0.00    -0.277 N 
HETATM   27  C   UNL     1      26.993  39.465  43.429  1.00  0.00     0.258 A 
HETATM   28  H   UNL     1      26.511  40.820  41.896  1.00  0.00     0.173 HD
HETATM   29  O   UNL     1      25.992  38.762  43.435  1.00  0.00    -0.270 OA
ENDBRANCH   1  20
TORSDOF 3
ENDMDL
MODEL 9
REMARK VINA RESULT:      -7.8     12.834     15.770
REMARK  3 active torsions:
REMARK  status: ('A' for Active; 'I' for Inactive)
REMARK    1  A    between atoms: C_2  and  C_3 
REMARK    2  A    between atoms: C_6  and  C_7 
REMARK       I    between atoms: C_7  and  N_8 
REMARK    3  A    between atoms: N_8  and  N_9 
ROOT
HETATM    1  C   UNL     1      29.668  50.812  41.218  1.00  0.00    -0.021 A 
HETATM    2  C   UNL     1      30.222  49.801  42.026  1.00  0.00     0.011 A 
HETATM    3  C   UNL     1      31.595  49.762  42.318  1.00  0.00     0.018 A 
HETATM    4  C   UNL     1      32.452  50.740  41.806  1.00  0.00     0.033 A 
HETATM    5  C   UNL     1      31.907  51.761  41.017  1.00  0.00     0.018 A 
HETATM    6  C   UNL     1      30.538  51.802  40.736  1.00  0.00     0.011 A 
ENDROOT
BRANCH   4   7
HETATM    7  C   UNL     1      33.922  50.791  42.083  1.00  0.00     0.266 C 
HETATM    8  N   UNL     1      34.420  51.941  42.693  1.00  0.00    -0.284 N 
HETATM    9  H   UNL     1      33.801  52.667  43.031  1.00  0.00     0.184 HD
HETATM   10  O   UNL     1      34.615  49.826  41.767  1.00  0.00    -0.266 OA
BRANCH   8  11
HETATM   11  N   UNL     1      35.793  52.103  43.003  1.00  0.00    -0.220 NA
HETATM   12  C   UNL     1      36.560  52.866  41.981  1.00  0.00     0.153 C 
HETATM   13  C   UNL     1      37.492  53.745  42.752  1.00  0.00    -0.036 A 
HETATM   14  C   UNL     1      37.196  53.670  44.111  1.00  0.00    -0.036 A 
HETATM   15  C   UNL     1      38.491  54.580  42.281  1.00  0.00     0.009 A 
HETATM   16  C   UNL     1      36.057  52.725  44.329  1.00  0.00     0.153 C 
HETATM   17  C   UNL     1      37.888  54.430  45.038  1.00  0.00     0.009 A 
HETATM   18  C   UNL     1      38.899  55.276  44.576  1.00  0.00     0.001 A 
HETATM   19  C   UNL     1      39.200  55.350  43.206  1.00  0.00     0.001 A 
ENDBRANCH   8  11
ENDBRANCH   4   7
BRANCH   1  20
HETATM   20  C   UNL     1      28.167  50.883  40.948  1.00  0.00     0.139 A 
HETATM   21  C   UNL     1      27.583  52.222  41.394  1.00  0.00     0.054 C 
HETATM   22  N   UNL     1      27.447  49.780  41.562  1.00  0.00    -0.321 N 
HETATM   23  C   UNL     1      26.803  48.984  40.651  1.00  0.00     0.324 A 
HETATM   24  H   UNL     1      27.343  49.615  42.552  1.00  0.00     0.165 HD
HETATM   25  O   UNL     1      26.100  48.033  40.935  1.00  0.00    -0.247 OA
HETATM   26  N   UNL     1      27.051  49.454  39.411  1.00  0.00    -0.277 N 
HETATM   27  C   UNL     1      27.774  50.605  39.471  1.00  0.00     0.258 A 
HETATM   28  H   UNL     1      26.646  49.075  38.573  1.00  0.00     0.173 HD
HETATM   29  O   UNL     1      28.028  51.302  38.499  1.00  0.00    -0.270 OA
ENDBRANCH   1  20
TORSDOF 3
ENDMDL
MODEL 10
REMARK VINA RESULT:      -7.7     20.097     22.156
REMARK  3 active torsions:
REMARK  status: ('A' for Active; 'I' for Inactive)
REMARK    1  A    between atoms: C_2  and  C_3 
REMARK    2  A    between atoms: C_6  and  C_7 
REMARK       I    between atoms: C_7  and  N_8 
REMARK    3  A    between atoms: N_8  and  N_9 
ROOT
HETATM    1  C   UNL     1      38.685  50.254  66.734  1.00  0.00    -0.021 A 
HETATM    2  C   UNL     1      38.994  50.348  65.364  1.00  0.00     0.011 A 
HETATM    3  C   UNL     1      39.620  49.296  64.677  1.00  0.00     0.018 A 
HETATM    4  C   UNL     1      39.953  48.116  65.348  1.00  0.00     0.033 A 
HETATM    5  C   UNL     1      39.632  48.005  66.707  1.00  0.00     0.018 A 
HETATM    6  C   UNL     1      39.001  49.051  67.386  1.00  0.00     0.011 A 
ENDROOT
BRANCH   4   7
HETATM    7  C   UNL     1      40.599  46.935  64.693  1.00  0.00     0.266 C 
HETATM    8  N   UNL     1      39.784  45.850  64.379  1.00  0.00    -0.284 N 
HETATM    9  H   UNL     1      38.779  45.898  64.492  1.00  0.00     0.184 HD
HETATM   10  O   UNL     1      41.806  46.978  64.460  1.00  0.00    -0.266 OA
BRANCH   8  11
HETATM   11  N   UNL     1      40.283  44.678  63.758  1.00  0.00    -0.220 NA
HETATM   12  C   UNL     1      40.866  43.690  64.707  1.00  0.00     0.153 C 
HETATM   13  C   UNL     1      40.429  42.350  64.210  1.00  0.00    -0.036 A 
HETATM   14  C   UNL     1      39.513  42.507  63.172  1.00  0.00    -0.036 A 
HETATM   15  C   UNL     1      40.780  41.093  64.672  1.00  0.00     0.009 A 
HETATM   16  C   UNL     1      39.295  43.963  62.905  1.00  0.00     0.153 C 
HETATM   17  C   UNL     1      38.919  41.412  62.569  1.00  0.00     0.009 A 
HETATM   18  C   UNL     1      39.264  40.138  63.025  1.00  0.00     0.001 A 
HETATM   19  C   UNL     1      40.190  39.979  64.070  1.00  0.00     0.001 A 
ENDBRANCH   8  11
ENDBRANCH   4   7
BRANCH   1  20
HETATM   20  C   UNL     1      37.955  51.378  67.465  1.00  0.00     0.139 A 
HETATM   21  C   UNL     1      36.851  50.831  68.368  1.00  0.00     0.054 C 
HETATM   22  N   UNL     1      37.423  52.372  66.549  1.00  0.00    -0.321 N 
HETATM   23  C   UNL     1      37.954  53.621  66.742  1.00  0.00     0.324 A 
HETATM   24  H   UNL     1      36.688  52.225  65.874  1.00  0.00     0.165 HD
HETATM   25  O   UNL     1      37.625  54.617  66.127  1.00  0.00    -0.247 OA
HETATM   26  N   UNL     1      38.862  53.559  67.738  1.00  0.00    -0.277 N 
HETATM   27  C   UNL     1      38.887  52.313  68.284  1.00  0.00     0.258 A 
HETATM   28  H   UNL     1      39.351  54.355  68.106  1.00  0.00     0.173 HD
HETATM   29  O   UNL     1      39.531  52.019  69.282  1.00  0.00    -0.270 OA
ENDBRANCH   1  20
TORSDOF 3
ENDMDL
