MODEL 1
REMARK VINA RESULT:      -8.3      0.000      0.000
REMARK  6 active torsions:
REMARK  status: ('A' for Active; 'I' for Inactive)
REMARK    1  A    between atoms: C_2  and  N_3 
REMARK    2  A    between atoms: N_3  and  C_5 
REMARK    3  A    between atoms: N_3  and  C_26 
REMARK    4  A    between atoms: C_8  and  N_9 
REMARK       I    between atoms: N_9  and  C_10 
REMARK    5  A    between atoms: C_10  and  C_11 
REMARK    6  A    between atoms: C_19  and  O_20 
ROOT
HETATM    1  N   UNL     1      25.093  46.771  51.834  1.00  0.00    -0.321 N 
HETATM    2  C   UNL     1      25.349  46.984  50.486  1.00  0.00     0.280 C 
HETATM    3  O   UNL     1      26.402  46.694  49.927  1.00  0.00    -0.265 OA
HETATM    4  H   UNL     1      24.227  47.190  52.159  1.00  0.00     0.169 HD
ENDROOT
BRANCH   1   5
HETATM    5  C   UNL     1      25.977  46.244  52.790  1.00  0.00     0.035 A 
HETATM    6  C   UNL     1      26.292  44.890  52.892  1.00  0.00     0.032 A 
HETATM    7  C   UNL     1      27.233  44.448  53.830  1.00  0.00     0.039 A 
HETATM    8  C   UNL     1      27.906  45.360  54.648  1.00  0.00     0.134 A 
HETATM    9  C   UNL     1      27.557  46.709  54.578  1.00  0.00     0.039 A 
HETATM   10  C   UNL     1      26.580  47.143  53.671  1.00  0.00     0.032 A 
BRANCH   8  11
HETATM   11  N   UNL     1      28.972  44.842  55.554  1.00  0.00    -0.042 N 
HETATM   12  H   UNL     1      28.450  44.404  56.325  1.00  0.00     0.286 HD
BRANCH  11  13
HETATM   13  C   UNL     1      29.790  43.743  54.904  1.00  0.00     0.237 C 
HETATM   14  C   UNL     1      30.924  43.276  55.800  1.00  0.00     0.035 C 
ENDBRANCH  11  13
BRANCH  11  15
HETATM   15  C   UNL     1      29.780  45.923  56.246  1.00  0.00     0.237 C 
HETATM   16  C   UNL     1      29.516  46.029  57.744  1.00  0.00     0.035 C 
ENDBRANCH  11  15
ENDBRANCH   8  11
ENDBRANCH   1   5
BRANCH   2  17
HETATM   17  C   UNL     1      24.259  47.670  49.816  1.00  0.00     0.150 A 
HETATM   18  O   UNL     1      24.213  49.039  49.878  1.00  0.00    -0.304 OA
HETATM   19  C   UNL     1      23.115  49.438  49.186  1.00  0.00     0.087 A 
HETATM   20  C   UNL     1      22.459  48.342  48.644  1.00  0.00     0.009 A 
HETATM   21  C   UNL     1      22.695  50.756  49.031  1.00  0.00     0.041 A 
HETATM   22  C   UNL     1      23.201  47.193  49.053  1.00  0.00    -0.009 A 
HETATM   23  C   UNL     1      21.307  48.578  47.870  1.00  0.00     0.051 A 
HETATM   24  C   UNL     1      22.921  45.772  48.716  1.00  0.00     0.052 C 
HETATM   25  C   UNL     1      20.852  49.894  47.686  1.00  0.00     0.069 A 
HETATM   26  C   UNL     1      21.539  50.964  48.265  1.00  0.00     0.039 A 
BRANCH  25  27
HETATM   27  O   UNL     1      19.723  49.990  46.916  1.00  0.00    -0.356 OA
HETATM   28  C   UNL     1      19.054  48.778  46.589  1.00  0.00     0.210 C 
ENDBRANCH  25  27
ENDBRANCH   2  17
TORSDOF 6
ENDMDL
MODEL 2
REMARK VINA RESULT:      -7.9      2.539      9.965
REMARK  6 active torsions:
REMARK  status: ('A' for Active; 'I' for Inactive)
REMARK    1  A    between atoms: C_2  and  N_3 
REMARK    2  A    between atoms: N_3  and  C_5 
REMARK    3  A    between atoms: N_3  and  C_26 
REMARK    4  A    between atoms: C_8  and  N_9 
REMARK       I    between atoms: N_9  and  C_10 
REMARK    5  A    between atoms: C_10  and  C_11 
REMARK    6  A    between atoms: C_19  and  O_20 
ROOT
HETATM    1  N   UNL     1      25.848  46.026  51.582  1.00  0.00    -0.321 N 
HETATM    2  C   UNL     1      25.962  46.522  52.874  1.00  0.00     0.280 C 
HETATM    3  O   UNL     1      25.257  47.410  53.340  1.00  0.00    -0.265 OA
HETATM    4  H   UNL     1      26.593  45.390  51.317  1.00  0.00     0.169 HD
ENDROOT
BRANCH   1   5
HETATM    5  C   UNL     1      24.963  46.465  50.584  1.00  0.00     0.035 A 
HETATM    6  C   UNL     1      24.013  45.647  49.974  1.00  0.00     0.032 A 
HETATM    7  C   UNL     1      23.121  46.173  49.031  1.00  0.00     0.039 A 
HETATM    8  C   UNL     1      23.136  47.536  48.720  1.00  0.00     0.134 A 
HETATM    9  C   UNL     1      24.116  48.345  49.295  1.00  0.00     0.039 A 
HETATM   10  C   UNL     1      25.039  47.806  50.203  1.00  0.00     0.032 A 
BRANCH   8  11
HETATM   11  N   UNL     1      22.095  48.058  47.788  1.00  0.00    -0.042 N 
HETATM   12  H   UNL     1      22.630  48.609  47.103  1.00  0.00     0.286 HD
BRANCH  11  13
HETATM   13  C   UNL     1      21.413  46.947  47.013  1.00  0.00     0.237 C 
HETATM   14  C   UNL     1      19.903  46.989  47.175  1.00  0.00     0.035 C 
ENDBRANCH  11  13
BRANCH  11  15
HETATM   15  C   UNL     1      21.161  49.080  48.407  1.00  0.00     0.237 C 
HETATM   16  C   UNL     1      21.436  50.515  47.972  1.00  0.00     0.035 C 
ENDBRANCH  11  15
ENDBRANCH   8  11
ENDBRANCH   1   5
BRANCH   2  17
HETATM   17  C   UNL     1      27.073  45.929  53.598  1.00  0.00     0.150 A 
HETATM   18  O   UNL     1      27.630  44.775  53.109  1.00  0.00    -0.304 OA
HETATM   19  C   UNL     1      28.635  44.423  53.952  1.00  0.00     0.087 A 
HETATM   20  C   UNL     1      28.761  45.356  54.972  1.00  0.00     0.009 A 
HETATM   21  C   UNL     1      29.436  43.292  53.824  1.00  0.00     0.041 A 
HETATM   22  C   UNL     1      27.747  46.334  54.743  1.00  0.00    -0.009 A 
HETATM   23  C   UNL     1      29.776  45.158  55.926  1.00  0.00     0.051 A 
HETATM   24  C   UNL     1      27.474  47.555  55.547  1.00  0.00     0.052 C 
HETATM   25  C   UNL     1      30.609  44.031  55.831  1.00  0.00     0.069 A 
HETATM   26  C   UNL     1      30.433  43.112  54.793  1.00  0.00     0.039 A 
BRANCH  25  27
HETATM   27  O   UNL     1      31.555  43.952  56.818  1.00  0.00    -0.356 OA
HETATM   28  C   UNL     1      31.257  44.585  58.056  1.00  0.00     0.210 C 
ENDBRANCH  25  27
ENDBRANCH   2  17
TORSDOF 6
ENDMDL
MODEL 3
REMARK VINA RESULT:      -7.8      1.586      2.310
REMARK  6 active torsions:
REMARK  status: ('A' for Active; 'I' for Inactive)
REMARK    1  A    between atoms: C_2  and  N_3 
REMARK    2  A    between atoms: N_3  and  C_5 
REMARK    3  A    between atoms: N_3  and  C_26 
REMARK    4  A    between atoms: C_8  and  N_9 
REMARK       I    between atoms: N_9  and  C_10 
REMARK    5  A    between atoms: C_10  and  C_11 
REMARK    6  A    between atoms: C_19  and  O_20 
ROOT
HETATM    1  N   UNL     1      24.357  46.567  50.563  1.00  0.00    -0.321 N 
HETATM    2  C   UNL     1      24.642  47.763  49.918  1.00  0.00     0.280 C 
HETATM    3  O   UNL     1      25.756  48.272  49.863  1.00  0.00    -0.265 OA
HETATM    4  H   UNL     1      23.365  46.360  50.627  1.00  0.00     0.169 HD
ENDROOT
BRANCH   1   5
HETATM    5  C   UNL     1      25.251  45.764  51.288  1.00  0.00     0.035 A 
HETATM    6  C   UNL     1      25.845  44.610  50.781  1.00  0.00     0.032 A 
HETATM    7  C   UNL     1      26.778  43.895  51.542  1.00  0.00     0.039 A 
HETATM    8  C   UNL     1      27.166  44.353  52.805  1.00  0.00     0.134 A 
HETATM    9  C   UNL     1      26.538  45.481  53.332  1.00  0.00     0.039 A 
HETATM   10  C   UNL     1      25.569  46.168  52.587  1.00  0.00     0.032 A 
BRANCH   8  11
HETATM   11  N   UNL     1      28.240  43.609  53.525  1.00  0.00    -0.042 N 
HETATM   12  H   UNL     1      28.976  43.488  52.817  1.00  0.00     0.286 HD
BRANCH  11  13
HETATM   13  C   UNL     1      28.849  44.429  54.646  1.00  0.00     0.237 C 
HETATM   14  C   UNL     1      30.149  43.825  55.148  1.00  0.00     0.035 C 
ENDBRANCH  11  13
BRANCH  11  15
HETATM   15  C   UNL     1      27.871  42.186  53.896  1.00  0.00     0.237 C 
HETATM   16  C   UNL     1      28.606  41.125  53.084  1.00  0.00     0.035 C 
ENDBRANCH  11  15
ENDBRANCH   8  11
ENDBRANCH   1   5
BRANCH   2  17
HETATM   17  C   UNL     1      23.452  48.400  49.380  1.00  0.00     0.150 A 
HETATM   18  O   UNL     1      23.199  49.703  49.723  1.00  0.00    -0.304 OA
HETATM   19  C   UNL     1      22.045  50.066  49.104  1.00  0.00     0.087 A 
HETATM   20  C   UNL     1      21.559  49.020  48.333  1.00  0.00     0.009 A 
HETATM   21  C   UNL     1      21.427  51.308  49.215  1.00  0.00     0.041 A 
HETATM   22  C   UNL     1      22.472  47.937  48.512  1.00  0.00    -0.009 A 
HETATM   23  C   UNL     1      20.377  49.233  47.600  1.00  0.00     0.051 A 
HETATM   24  C   UNL     1      22.409  46.591  47.883  1.00  0.00     0.052 C 
HETATM   25  C   UNL     1      19.724  50.474  47.682  1.00  0.00     0.069 A 
HETATM   26  C   UNL     1      20.245  51.493  48.484  1.00  0.00     0.039 A 
BRANCH  25  27
HETATM   27  O   UNL     1      18.586  50.556  46.923  1.00  0.00    -0.356 OA
HETATM   28  C   UNL     1      17.876  51.788  46.947  1.00  0.00     0.210 C 
ENDBRANCH  25  27
ENDBRANCH   2  17
TORSDOF 6
ENDMDL
MODEL 4
REMARK VINA RESULT:      -7.6      3.202     10.234
REMARK  6 active torsions:
REMARK  status: ('A' for Active; 'I' for Inactive)
REMARK    1  A    between atoms: C_2  and  N_3 
REMARK    2  A    between atoms: N_3  and  C_5 
REMARK    3  A    between atoms: N_3  and  C_26 
REMARK    4  A    between atoms: C_8  and  N_9 
REMARK       I    between atoms: N_9  and  C_10 
REMARK    5  A    between atoms: C_10  and  C_11 
REMARK    6  A    between atoms: C_19  and  O_20 
ROOT
HETATM    1  N   UNL     1      21.739  48.967  49.650  1.00  0.00    -0.321 N 
HETATM    2  C   UNL     1      22.759  48.453  48.862  1.00  0.00     0.280 C 
HETATM    3  O   UNL     1      22.903  48.696  47.669  1.00  0.00    -0.265 OA
HETATM    4  H   UNL     1      21.691  48.560  50.579  1.00  0.00     0.169 HD
ENDROOT
BRANCH   1   5
HETATM    5  C   UNL     1      20.687  49.800  49.234  1.00  0.00     0.035 A 
HETATM    6  C   UNL     1      20.842  51.150  48.925  1.00  0.00     0.032 A 
HETATM    7  C   UNL     1      19.758  51.901  48.454  1.00  0.00     0.039 A 
HETATM    8  C   UNL     1      18.514  51.299  48.242  1.00  0.00     0.134 A 
HETATM    9  C   UNL     1      18.347  49.960  48.595  1.00  0.00     0.039 A 
HETATM   10  C   UNL     1      19.422  49.223  49.111  1.00  0.00     0.032 A 
BRANCH   8  11
HETATM   11  N   UNL     1      17.426  52.123  47.641  1.00  0.00    -0.042 N 
HETATM   12  H   UNL     1      17.517  53.035  48.109  1.00  0.00     0.286 HD
BRANCH  11  13
HETATM   13  C   UNL     1      17.648  52.372  46.161  1.00  0.00     0.237 C 
HETATM   14  C   UNL     1      17.524  51.096  45.347  1.00  0.00     0.035 C 
ENDBRANCH  11  13
BRANCH  11  15
HETATM   15  C   UNL     1      16.026  51.675  48.015  1.00  0.00     0.237 C 
HETATM   16  C   UNL     1      15.529  52.240  49.340  1.00  0.00     0.035 C 
ENDBRANCH  11  15
ENDBRANCH   8  11
ENDBRANCH   1   5
BRANCH   2  17
HETATM   17  C   UNL     1      23.602  47.517  49.586  1.00  0.00     0.150 A 
HETATM   18  O   UNL     1      24.367  47.994  50.620  1.00  0.00    -0.304 OA
HETATM   19  C   UNL     1      25.058  46.941  51.129  1.00  0.00     0.087 A 
HETATM   20  C   UNL     1      24.727  45.773  50.457  1.00  0.00     0.009 A 
HETATM   21  C   UNL     1      25.970  47.008  52.178  1.00  0.00     0.041 A 
HETATM   22  C   UNL     1      23.781  46.147  49.454  1.00  0.00    -0.009 A 
HETATM   23  C   UNL     1      25.336  44.576  50.875  1.00  0.00     0.051 A 
HETATM   24  C   UNL     1      23.103  45.253  48.478  1.00  0.00     0.052 C 
HETATM   25  C   UNL     1      26.260  44.599  51.932  1.00  0.00     0.069 A 
HETATM   26  C   UNL     1      26.572  45.803  52.569  1.00  0.00     0.039 A 
BRANCH  25  27
HETATM   27  O   UNL     1      26.782  43.371  52.242  1.00  0.00    -0.356 OA
HETATM   28  C   UNL     1      27.735  43.318  53.297  1.00  0.00     0.210 C 
ENDBRANCH  25  27
ENDBRANCH   2  17
TORSDOF 6
ENDMDL
MODEL 5
REMARK VINA RESULT:      -7.5      4.549     10.217
REMARK  6 active torsions:
REMARK  status: ('A' for Active; 'I' for Inactive)
REMARK    1  A    between atoms: C_2  and  N_3 
REMARK    2  A    between atoms: N_3  and  C_5 
REMARK    3  A    between atoms: N_3  and  C_26 
REMARK    4  A    between atoms: C_8  and  N_9 
REMARK       I    between atoms: N_9  and  C_10 
REMARK    5  A    between atoms: C_10  and  C_11 
REMARK    6  A    between atoms: C_19  and  O_20 
ROOT
HETATM    1  N   UNL     1      25.834  43.084  51.825  1.00  0.00    -0.321 N 
HETATM    2  C   UNL     1      26.550  44.273  51.846  1.00  0.00     0.280 C 
HETATM    3  O   UNL     1      26.462  45.150  50.993  1.00  0.00    -0.265 OA
HETATM    4  H   UNL     1      26.126  42.417  52.532  1.00  0.00     0.169 HD
ENDROOT
BRANCH   1   5
HETATM    5  C   UNL     1      24.938  42.655  50.834  1.00  0.00     0.035 A 
HETATM    6  C   UNL     1      23.674  43.208  50.638  1.00  0.00     0.032 A 
HETATM    7  C   UNL     1      22.860  42.770  49.585  1.00  0.00     0.039 A 
HETATM    8  C   UNL     1      23.320  41.804  48.685  1.00  0.00     0.134 A 
HETATM    9  C   UNL     1      24.566  41.217  48.909  1.00  0.00     0.039 A 
HETATM   10  C   UNL     1      25.359  41.624  49.991  1.00  0.00     0.032 A 
BRANCH   8  11
HETATM   11  N   UNL     1      22.453  41.453  47.524  1.00  0.00    -0.042 N 
HETATM   12  H   UNL     1      21.496  41.538  47.894  1.00  0.00     0.286 HD
BRANCH  11  13
HETATM   13  C   UNL     1      22.572  42.460  46.396  1.00  0.00     0.237 C 
HETATM   14  C   UNL     1      21.252  43.159  46.119  1.00  0.00     0.035 C 
ENDBRANCH  11  13
BRANCH  11  15
HETATM   15  C   UNL     1      22.537  39.999  47.101  1.00  0.00     0.237 C 
HETATM   16  C   UNL     1      21.195  39.277  47.094  1.00  0.00     0.035 C 
ENDBRANCH  11  15
ENDBRANCH   8  11
ENDBRANCH   1   5
BRANCH   2  17
HETATM   17  C   UNL     1      27.489  44.337  52.953  1.00  0.00     0.150 A 
HETATM   18  O   UNL     1      28.520  43.433  52.986  1.00  0.00    -0.304 OA
HETATM   19  C   UNL     1      29.248  43.692  54.103  1.00  0.00     0.087 A 
HETATM   20  C   UNL     1      28.719  44.779  54.785  1.00  0.00     0.009 A 
HETATM   21  C   UNL     1      30.369  42.979  54.518  1.00  0.00     0.041 A 
HETATM   22  C   UNL     1      27.576  45.198  54.038  1.00  0.00    -0.009 A 
HETATM   23  C   UNL     1      29.369  45.201  55.959  1.00  0.00     0.051 A 
HETATM   24  C   UNL     1      26.671  46.338  54.341  1.00  0.00     0.052 C 
HETATM   25  C   UNL     1      30.506  44.511  56.411  1.00  0.00     0.069 A 
HETATM   26  C   UNL     1      30.992  43.413  55.697  1.00  0.00     0.039 A 
BRANCH  25  27
HETATM   27  O   UNL     1      31.045  45.019  57.563  1.00  0.00    -0.356 OA
HETATM   28  C   UNL     1      30.391  46.138  58.148  1.00  0.00     0.210 C 
ENDBRANCH  25  27
ENDBRANCH   2  17
TORSDOF 6
ENDMDL
MODEL 6
REMARK VINA RESULT:      -7.5      6.618     10.633
REMARK  6 active torsions:
REMARK  status: ('A' for Active; 'I' for Inactive)
REMARK    1  A    between atoms: C_2  and  N_3 
REMARK    2  A    between atoms: N_3  and  C_5 
REMARK    3  A    between atoms: N_3  and  C_26 
REMARK    4  A    between atoms: C_8  and  N_9 
REMARK       I    between atoms: N_9  and  C_10 
REMARK    5  A    between atoms: C_10  and  C_11 
REMARK    6  A    between atoms: C_19  and  O_20 
ROOT
HETATM    1  N   UNL     1      28.671  40.740  50.620  1.00  0.00    -0.321 N 
HETATM    2  C   UNL     1      27.633  41.128  51.456  1.00  0.00     0.280 C 
HETATM    3  O   UNL     1      26.468  40.768  51.327  1.00  0.00    -0.265 OA
HETATM    4  H   UNL     1      29.541  41.235  50.788  1.00  0.00     0.169 HD
ENDROOT
BRANCH   1   5
HETATM    5  C   UNL     1      28.578  39.926  49.480  1.00  0.00     0.035 A 
HETATM    6  C   UNL     1      28.829  38.554  49.484  1.00  0.00     0.032 A 
HETATM    7  C   UNL     1      28.653  37.796  48.320  1.00  0.00     0.039 A 
HETATM    8  C   UNL     1      28.179  38.391  47.147  1.00  0.00     0.134 A 
HETATM    9  C   UNL     1      27.973  39.770  47.130  1.00  0.00     0.039 A 
HETATM   10  C   UNL     1      28.195  40.536  48.284  1.00  0.00     0.032 A 
BRANCH   8  11
HETATM   11  N   UNL     1      27.912  37.515  45.970  1.00  0.00    -0.042 N 
HETATM   12  H   UNL     1      28.112  36.567  46.315  1.00  0.00     0.286 HD
BRANCH  11  13
HETATM   13  C   UNL     1      26.450  37.529  45.567  1.00  0.00     0.237 C 
HETATM   14  C   UNL     1      25.572  36.836  46.596  1.00  0.00     0.035 C 
ENDBRANCH  11  13
BRANCH  11  15
HETATM   15  C   UNL     1      28.895  37.688  44.829  1.00  0.00     0.237 C 
HETATM   16  C   UNL     1      29.997  36.635  44.795  1.00  0.00     0.035 C 
ENDBRANCH  11  15
ENDBRANCH   8  11
ENDBRANCH   1   5
BRANCH   2  17
HETATM   17  C   UNL     1      28.059  42.085  52.462  1.00  0.00     0.150 A 
HETATM   18  O   UNL     1      29.248  41.864  53.109  1.00  0.00    -0.304 OA
HETATM   19  C   UNL     1      29.422  42.881  53.993  1.00  0.00     0.087 A 
HETATM   20  C   UNL     1      28.371  43.783  53.905  1.00  0.00     0.009 A 
HETATM   21  C   UNL     1      30.497  43.016  54.866  1.00  0.00     0.041 A 
HETATM   22  C   UNL     1      27.485  43.266  52.912  1.00  0.00    -0.009 A 
HETATM   23  C   UNL     1      28.403  44.917  54.738  1.00  0.00     0.051 A 
HETATM   24  C   UNL     1      26.215  43.874  52.432  1.00  0.00     0.052 C 
HETATM   25  C   UNL     1      29.472  45.093  55.631  1.00  0.00     0.069 A 
HETATM   26  C   UNL     1      30.501  44.149  55.692  1.00  0.00     0.039 A 
BRANCH  25  27
HETATM   27  O   UNL     1      29.387  46.234  56.385  1.00  0.00    -0.356 OA
HETATM   28  C   UNL     1      28.976  46.089  57.738  1.00  0.00     0.210 C 
ENDBRANCH  25  27
ENDBRANCH   2  17
TORSDOF 6
ENDMDL
MODEL 7
REMARK VINA RESULT:      -7.3      1.991      3.510
REMARK  6 active torsions:
REMARK  status: ('A' for Active; 'I' for Inactive)
REMARK    1  A    between atoms: C_2  and  N_3 
REMARK    2  A    between atoms: N_3  and  C_5 
REMARK    3  A    between atoms: N_3  and  C_26 
REMARK    4  A    between atoms: C_8  and  N_9 
REMARK       I    between atoms: N_9  and  C_10 
REMARK    5  A    between atoms: C_10  and  C_11 
REMARK    6  A    between atoms: C_19  and  O_20 
ROOT
HETATM    1  N   UNL     1      23.988  47.089  50.121  1.00  0.00    -0.321 N 
HETATM    2  C   UNL     1      24.106  48.326  49.502  1.00  0.00     0.280 C 
HETATM    3  O   UNL     1      25.167  48.919  49.336  1.00  0.00    -0.265 OA
HETATM    4  H   UNL     1      23.029  46.805  50.294  1.00  0.00     0.169 HD
ENDROOT
BRANCH   1   5
HETATM    5  C   UNL     1      25.020  46.329  50.695  1.00  0.00     0.035 A 
HETATM    6  C   UNL     1      25.398  46.420  52.034  1.00  0.00     0.032 A 
HETATM    7  C   UNL     1      26.395  45.583  52.550  1.00  0.00     0.039 A 
HETATM    8  C   UNL     1      26.994  44.610  51.745  1.00  0.00     0.134 A 
HETATM    9  C   UNL     1      26.649  44.549  50.395  1.00  0.00     0.039 A 
HETATM   10  C   UNL     1      25.685  45.421  49.869  1.00  0.00     0.032 A 
BRANCH   8  11
HETATM   11  N   UNL     1      27.973  43.678  52.376  1.00  0.00    -0.042 N 
HETATM   12  H   UNL     1      28.761  43.661  51.715  1.00  0.00     0.286 HD
BRANCH  11  13
HETATM   13  C   UNL     1      28.517  44.219  53.684  1.00  0.00     0.237 C 
HETATM   14  C   UNL     1      29.562  43.297  54.289  1.00  0.00     0.035 C 
ENDBRANCH  11  13
BRANCH  11  15
HETATM   15  C   UNL     1      27.519  42.232  52.418  1.00  0.00     0.237 C 
HETATM   16  C   UNL     1      28.261  41.321  51.446  1.00  0.00     0.035 C 
ENDBRANCH  11  15
ENDBRANCH   8  11
ENDBRANCH   1   5
BRANCH   2  17
HETATM   17  C   UNL     1      22.817  48.891  49.142  1.00  0.00     0.150 A 
HETATM   18  O   UNL     1      21.709  48.087  49.218  1.00  0.00    -0.304 OA
HETATM   19  C   UNL     1      20.642  48.835  48.833  1.00  0.00     0.087 A 
HETATM   20  C   UNL     1      21.039  50.131  48.536  1.00  0.00     0.009 A 
HETATM   21  C   UNL     1      19.329  48.381  48.747  1.00  0.00     0.041 A 
HETATM   22  C   UNL     1      22.453  50.168  48.736  1.00  0.00    -0.009 A 
HETATM   23  C   UNL     1      20.051  51.051  48.142  1.00  0.00     0.051 A 
HETATM   24  C   UNL     1      23.357  51.337  48.569  1.00  0.00     0.052 C 
HETATM   25  C   UNL     1      18.713  50.634  48.045  1.00  0.00     0.069 A 
HETATM   26  C   UNL     1      18.364  49.314  48.341  1.00  0.00     0.039 A 
BRANCH  25  27
HETATM   27  O   UNL     1      17.849  51.622  47.651  1.00  0.00    -0.356 OA
HETATM   28  C   UNL     1      17.223  51.470  46.383  1.00  0.00     0.210 C 
ENDBRANCH  25  27
ENDBRANCH   2  17
TORSDOF 6
ENDMDL
MODEL 8
REMARK VINA RESULT:      -7.2      3.173     10.007
REMARK  6 active torsions:
REMARK  status: ('A' for Active; 'I' for Inactive)
REMARK    1  A    between atoms: C_2  and  N_3 
REMARK    2  A    between atoms: N_3  and  C_5 
REMARK    3  A    between atoms: N_3  and  C_26 
REMARK    4  A    between atoms: C_8  and  N_9 
REMARK       I    between atoms: N_9  and  C_10 
REMARK    5  A    between atoms: C_10  and  C_11 
REMARK    6  A    between atoms: C_19  and  O_20 
ROOT
HETATM    1  N   UNL     1      25.886  45.256  51.671  1.00  0.00    -0.321 N 
HETATM    2  C   UNL     1      27.012  44.446  51.625  1.00  0.00     0.280 C 
HETATM    3  O   UNL     1      27.279  43.683  50.703  1.00  0.00    -0.265 OA
HETATM    4  H   UNL     1      25.752  45.724  52.562  1.00  0.00     0.169 HD
ENDROOT
BRANCH   1   5
HETATM    5  C   UNL     1      24.850  45.319  50.725  1.00  0.00     0.035 A 
HETATM    6  C   UNL     1      23.938  44.288  50.503  1.00  0.00     0.032 A 
HETATM    7  C   UNL     1      22.892  44.449  49.587  1.00  0.00     0.039 A 
HETATM    8  C   UNL     1      22.715  45.661  48.914  1.00  0.00     0.134 A 
HETATM    9  C   UNL     1      23.654  46.676  49.101  1.00  0.00     0.039 A 
HETATM   10  C   UNL     1      24.728  46.495  49.983  1.00  0.00     0.032 A 
BRANCH   8  11
HETATM   11  N   UNL     1      21.523  45.810  48.030  1.00  0.00    -0.042 N 
HETATM   12  H   UNL     1      20.726  45.770  48.679  1.00  0.00     0.286 HD
BRANCH  11  13
HETATM   13  C   UNL     1      21.471  47.172  47.364  1.00  0.00     0.237 C 
HETATM   14  C   UNL     1      20.201  47.926  47.716  1.00  0.00     0.035 C 
ENDBRANCH  11  13
BRANCH  11  15
HETATM   15  C   UNL     1      21.282  44.632  47.105  1.00  0.00     0.237 C 
HETATM   16  C   UNL     1      19.809  44.312  46.881  1.00  0.00     0.035 C 
ENDBRANCH  11  15
ENDBRANCH   8  11
ENDBRANCH   1   5
BRANCH   2  17
HETATM   17  C   UNL     1      27.810  44.536  52.835  1.00  0.00     0.150 A 
HETATM   18  O   UNL     1      27.518  45.527  53.737  1.00  0.00    -0.304 OA
HETATM   19  C   UNL     1      28.393  45.404  54.768  1.00  0.00     0.087 A 
HETATM   20  C   UNL     1      29.235  44.321  54.564  1.00  0.00     0.009 A 
HETATM   21  C   UNL     1      28.448  46.237  55.882  1.00  0.00     0.041 A 
HETATM   22  C   UNL     1      28.858  43.756  53.307  1.00  0.00    -0.009 A 
HETATM   23  C   UNL     1      30.193  44.032  55.553  1.00  0.00     0.051 A 
HETATM   24  C   UNL     1      29.444  42.563  52.642  1.00  0.00     0.052 C 
HETATM   25  C   UNL     1      30.280  44.846  56.694  1.00  0.00     0.069 A 
HETATM   26  C   UNL     1      29.419  45.936  56.849  1.00  0.00     0.039 A 
BRANCH  25  27
HETATM   27  O   UNL     1      31.251  44.462  57.580  1.00  0.00    -0.356 OA
HETATM   28  C   UNL     1      31.998  43.295  57.260  1.00  0.00     0.210 C 
ENDBRANCH  25  27
ENDBRANCH   2  17
TORSDOF 6
ENDMDL
MODEL 9
REMARK VINA RESULT:      -7.0      6.572      8.913
REMARK  6 active torsions:
REMARK  status: ('A' for Active; 'I' for Inactive)
REMARK    1  A    between atoms: C_2  and  N_3 
REMARK    2  A    between atoms: N_3  and  C_5 
REMARK    3  A    between atoms: N_3  and  C_26 
REMARK    4  A    between atoms: C_8  and  N_9 
REMARK       I    between atoms: N_9  and  C_10 
REMARK    5  A    between atoms: C_10  and  C_11 
REMARK    6  A    between atoms: C_19  and  O_20 
ROOT
HETATM    1  N   UNL     1      28.631  41.280  51.584  1.00  0.00    -0.321 N 
HETATM    2  C   UNL     1      27.895  41.538  50.436  1.00  0.00     0.280 C 
HETATM    3  O   UNL     1      27.404  42.627  50.158  1.00  0.00    -0.265 OA
HETATM    4  H   UNL     1      28.847  40.298  51.722  1.00  0.00     0.169 HD
ENDROOT
BRANCH   1   5
HETATM    5  C   UNL     1      28.906  42.174  52.631  1.00  0.00     0.035 A 
HETATM    6  C   UNL     1      30.192  42.558  53.006  1.00  0.00     0.032 A 
HETATM    7  C   UNL     1      30.385  43.506  54.019  1.00  0.00     0.039 A 
HETATM    8  C   UNL     1      29.292  44.117  54.639  1.00  0.00     0.134 A 
HETATM    9  C   UNL     1      28.006  43.699  54.297  1.00  0.00     0.039 A 
HETATM   10  C   UNL     1      27.816  42.716  53.316  1.00  0.00     0.032 A 
BRANCH   8  11
HETATM   11  N   UNL     1      29.558  45.194  55.637  1.00  0.00    -0.042 N 
HETATM   12  H   UNL     1      30.147  45.865  55.126  1.00  0.00     0.286 HD
BRANCH  11  13
HETATM   13  C   UNL     1      28.294  45.936  56.027  1.00  0.00     0.237 C 
HETATM   14  C   UNL     1      28.072  47.168  55.167  1.00  0.00     0.035 C 
ENDBRANCH  11  13
BRANCH  11  15
HETATM   15  C   UNL     1      30.438  44.766  56.795  1.00  0.00     0.237 C 
HETATM   16  C   UNL     1      30.220  45.574  58.069  1.00  0.00     0.035 C 
ENDBRANCH  11  15
ENDBRANCH   8  11
ENDBRANCH   1   5
BRANCH   2  17
HETATM   17  C   UNL     1      27.691  40.348  49.628  1.00  0.00     0.150 A 
HETATM   18  O   UNL     1      27.219  39.216  50.242  1.00  0.00    -0.304 OA
HETATM   19  C   UNL     1      27.118  38.253  49.289  1.00  0.00     0.087 A 
HETATM   20  C   UNL     1      27.489  38.756  48.050  1.00  0.00     0.009 A 
HETATM   21  C   UNL     1      26.698  36.944  49.507  1.00  0.00     0.041 A 
HETATM   22  C   UNL     1      27.862  40.117  48.270  1.00  0.00    -0.009 A 
HETATM   23  C   UNL     1      27.419  37.895  46.940  1.00  0.00     0.051 A 
HETATM   24  C   UNL     1      28.320  41.102  47.253  1.00  0.00     0.052 C 
HETATM   25  C   UNL     1      26.998  36.567  47.116  1.00  0.00     0.069 A 
HETATM   26  C   UNL     1      26.648  36.102  48.387  1.00  0.00     0.039 A 
BRANCH  25  27
HETATM   27  O   UNL     1      26.974  35.832  45.961  1.00  0.00    -0.356 OA
HETATM   28  C   UNL     1      25.847  35.999  45.108  1.00  0.00     0.210 C 
ENDBRANCH  25  27
ENDBRANCH   2  17
TORSDOF 6
ENDMDL
MODEL 10
REMARK VINA RESULT:      -6.9     13.093     13.538
REMARK  6 active torsions:
REMARK  status: ('A' for Active; 'I' for Inactive)
REMARK    1  A    between atoms: C_2  and  N_3 
REMARK    2  A    between atoms: N_3  and  C_5 
REMARK    3  A    between atoms: N_3  and  C_26 
REMARK    4  A    between atoms: C_8  and  N_9 
REMARK       I    between atoms: N_9  and  C_10 
REMARK    5  A    between atoms: C_10  and  C_11 
REMARK    6  A    between atoms: C_19  and  O_20 
ROOT
HETATM    1  N   UNL     1      34.446  51.824  42.626  1.00  0.00    -0.321 N 
HETATM    2  C   UNL     1      33.276  51.779  43.370  1.00  0.00     0.280 C 
HETATM    3  O   UNL     1      33.234  51.741  44.595  1.00  0.00    -0.265 OA
HETATM    4  H   UNL     1      34.303  51.717  41.627  1.00  0.00     0.169 HD
ENDROOT
BRANCH   1   5
HETATM    5  C   UNL     1      35.762  51.789  43.117  1.00  0.00     0.035 A 
HETATM    6  C   UNL     1      36.253  52.665  44.083  1.00  0.00     0.032 A 
HETATM    7  C   UNL     1      37.559  52.527  44.571  1.00  0.00     0.039 A 
HETATM    8  C   UNL     1      38.375  51.481  44.132  1.00  0.00     0.134 A 
HETATM    9  C   UNL     1      37.900  50.633  43.132  1.00  0.00     0.039 A 
HETATM   10  C   UNL     1      36.609  50.802  42.611  1.00  0.00     0.032 A 
BRANCH   8  11
HETATM   11  N   UNL     1      39.717  51.322  44.763  1.00  0.00    -0.042 N 
HETATM   12  H   UNL     1      39.506  51.012  45.721  1.00  0.00     0.286 HD
BRANCH  11  13
HETATM   13  C   UNL     1      40.525  50.212  44.117  1.00  0.00     0.237 C 
HETATM   14  C   UNL     1      40.890  49.124  45.112  1.00  0.00     0.035 C 
ENDBRANCH  11  13
BRANCH  11  15
HETATM   15  C   UNL     1      40.465  52.624  44.973  1.00  0.00     0.237 C 
HETATM   16  C   UNL     1      40.854  52.889  46.423  1.00  0.00     0.035 C 
ENDBRANCH  11  15
ENDBRANCH   8  11
ENDBRANCH   1   5
BRANCH   2  17
HETATM   17  C   UNL     1      32.090  51.697  42.534  1.00  0.00     0.150 A 
HETATM   18  O   UNL     1      31.701  52.816  41.842  1.00  0.00    -0.304 OA
HETATM   19  C   UNL     1      30.581  52.490  41.147  1.00  0.00     0.087 A 
HETATM   20  C   UNL     1      30.252  51.158  41.353  1.00  0.00     0.009 A 
HETATM   21  C   UNL     1      29.856  53.358  40.335  1.00  0.00     0.041 A 
HETATM   22  C   UNL     1      31.232  50.642  42.255  1.00  0.00    -0.009 A 
HETATM   23  C   UNL     1      29.126  50.645  40.683  1.00  0.00     0.051 A 
HETATM   24  C   UNL     1      31.335  49.253  42.776  1.00  0.00     0.052 C 
HETATM   25  C   UNL     1      28.369  51.486  39.852  1.00  0.00     0.069 A 
HETATM   26  C   UNL     1      28.732  52.825  39.687  1.00  0.00     0.039 A 
BRANCH  25  27
HETATM   27  O   UNL     1      27.300  50.868  39.259  1.00  0.00    -0.356 OA
HETATM   28  C   UNL     1      26.903  49.608  39.786  1.00  0.00     0.210 C 
ENDBRANCH  25  27
ENDBRANCH   2  17
TORSDOF 6
ENDMDL
