MODEL 1
REMARK VINA RESULT:      -8.8      0.000      0.000
REMARK  7 active torsions:
REMARK  status: ('A' for Active; 'I' for Inactive)
REMARK    1  A    between atoms: C_2  and  N_3 
REMARK    2  A    between atoms: N_3  and  N_4 
REMARK       I    between atoms: N_4  and  C_5 
REMARK    3  A    between atoms: C_5  and  C_6 
REMARK    4  A    between atoms: C_6  and  C_7 
REMARK    5  A    between atoms: C_7  and  C_8 
REMARK    6  A    between atoms: C_8  and  N_9 
REMARK       I    between atoms: N_9  and  C_10 
REMARK       I    between atoms: C_10  and  N_11 
REMARK    7  A    between atoms: N_11  and  C_12 
ROOT
HETATM    1  C   UNL     1      29.493  44.902  55.817  1.00  0.00     0.068 A 
HETATM    2  C   UNL     1      28.554  45.070  54.805  1.00  0.00     0.124 A 
HETATM    3  N   UNL     1      28.509  44.254  53.736  1.00  0.00    -0.223 NA
HETATM    4  C   UNL     1      29.428  43.273  53.656  1.00  0.00     0.129 A 
HETATM    5 CL   UNL     1      29.297  42.283  52.262  1.00  0.00    -0.062 Cl
HETATM    6  C   UNL     1      30.408  43.039  54.596  1.00  0.00     0.067 A 
HETATM    7  C   UNL     1      30.434  43.878  55.703  1.00  0.00     0.051 A 
HETATM    8  C   UNL     1      31.419  43.692  56.725  1.00  0.00     0.099 C 
HETATM    9  N   UNL     1      32.219  43.539  57.549  1.00  0.00    -0.191 NA
ENDROOT
BRANCH   2  10
HETATM   10  N   UNL     1      27.545  46.053  54.888  1.00  0.00    -0.186 NA
HETATM   11  H   UNL     1      27.128  45.934  55.823  1.00  0.00     0.154 HD
BRANCH  10  12
HETATM   12  N   UNL     1      26.573  45.962  53.863  1.00  0.00    -0.286 N 
HETATM   13  C   UNL     1      25.818  47.103  53.642  1.00  0.00     0.232 C 
HETATM   14  O   UNL     1      25.807  48.065  54.406  1.00  0.00    -0.272 OA
HETATM   15  H   UNL     1      26.851  45.394  53.066  1.00  0.00     0.184 HD
BRANCH  13  16
HETATM   16  C   UNL     1      25.037  47.089  52.347  1.00  0.00     0.106 C 
BRANCH  16  17
HETATM   17  C   UNL     1      25.945  47.027  51.123  1.00  0.00     0.029 C 
BRANCH  17  18
HETATM   18  C   UNL     1      25.123  46.976  49.838  1.00  0.00     0.125 C 
BRANCH  18  19
HETATM   19  N   UNL     1      23.810  47.560  50.017  1.00  0.00    -0.343 N 
HETATM   20  C   UNL     1      23.300  48.457  49.111  1.00  0.00     0.316 C 
HETATM   21  N   UNL     1      22.038  48.850  49.477  1.00  0.00    -0.339 N 
HETATM   22  O   UNL     1      23.905  48.842  48.122  1.00  0.00    -0.248 OA
HETATM   23  H   UNL     1      21.850  48.764  50.464  1.00  0.00     0.164 HD
HETATM   24  H   UNL     1      23.136  47.041  50.559  1.00  0.00     0.164 HD
BRANCH  21  25
HETATM   25  C   UNL     1      21.267  49.872  48.780  1.00  0.00     0.086 C 
HETATM   26  C   UNL     1      20.536  50.837  49.722  1.00  0.00     0.025 C 
HETATM   27  C   UNL     1      19.806  51.927  48.939  1.00  0.00     0.002 C 
HETATM   28  C   UNL     1      18.861  51.336  47.894  1.00  0.00     0.000 C 
HETATM   29  C   UNL     1      19.582  50.366  46.962  1.00  0.00     0.002 C 
HETATM   30  C   UNL     1      20.311  49.272  47.741  1.00  0.00     0.025 C 
ENDBRANCH  21  25
ENDBRANCH  18  19
ENDBRANCH  17  18
ENDBRANCH  16  17
ENDBRANCH  13  16
ENDBRANCH  10  12
ENDBRANCH   2  10
TORSDOF 7
ENDMDL
MODEL 2
REMARK VINA RESULT:      -8.6      2.159      2.641
REMARK  7 active torsions:
REMARK  status: ('A' for Active; 'I' for Inactive)
REMARK    1  A    between atoms: C_2  and  N_3 
REMARK    2  A    between atoms: N_3  and  N_4 
REMARK       I    between atoms: N_4  and  C_5 
REMARK    3  A    between atoms: C_5  and  C_6 
REMARK    4  A    between atoms: C_6  and  C_7 
REMARK    5  A    between atoms: C_7  and  C_8 
REMARK    6  A    between atoms: C_8  and  N_9 
REMARK       I    between atoms: N_9  and  C_10 
REMARK       I    between atoms: C_10  and  N_11 
REMARK    7  A    between atoms: N_11  and  C_12 
ROOT
HETATM    1  C   UNL     1      29.730  43.501  54.495  1.00  0.00     0.068 A 
HETATM    2  C   UNL     1      28.726  44.079  53.725  1.00  0.00     0.124 A 
HETATM    3  N   UNL     1      28.202  45.280  54.028  1.00  0.00    -0.223 NA
HETATM    4  C   UNL     1      28.661  45.907  55.128  1.00  0.00     0.129 A 
HETATM    5 CL   UNL     1      27.938  47.430  55.437  1.00  0.00    -0.062 Cl
HETATM    6  C   UNL     1      29.638  45.408  55.963  1.00  0.00     0.067 A 
HETATM    7  C   UNL     1      30.182  44.174  55.631  1.00  0.00     0.051 A 
HETATM    8  C   UNL     1      31.206  43.596  56.447  1.00  0.00     0.099 C 
HETATM    9  N   UNL     1      32.033  43.129  57.112  1.00  0.00    -0.191 NA
ENDROOT
BRANCH   2  10
HETATM   10  N   UNL     1      28.264  43.472  52.538  1.00  0.00    -0.186 NA
HETATM   11  H   UNL     1      28.951  43.735  51.815  1.00  0.00     0.154 HD
BRANCH  10  12
HETATM   12  N   UNL     1      26.949  43.854  52.176  1.00  0.00    -0.286 N 
HETATM   13  C   UNL     1      26.793  44.338  50.887  1.00  0.00     0.232 C 
HETATM   14  O   UNL     1      27.735  44.641  50.160  1.00  0.00    -0.272 OA
HETATM   15  H   UNL     1      26.216  43.273  52.576  1.00  0.00     0.184 HD
BRANCH  13  16
HETATM   16  C   UNL     1      25.355  44.419  50.425  1.00  0.00     0.106 C 
BRANCH  16  17
HETATM   17  C   UNL     1      24.703  45.749  50.791  1.00  0.00     0.029 C 
BRANCH  17  18
HETATM   18  C   UNL     1      24.236  46.488  49.540  1.00  0.00     0.125 C 
BRANCH  18  19
HETATM   19  N   UNL     1      23.607  47.751  49.867  1.00  0.00    -0.343 N 
HETATM   20  C   UNL     1      22.384  48.094  49.343  1.00  0.00     0.316 C 
HETATM   21  N   UNL     1      21.982  49.317  49.814  1.00  0.00    -0.339 N 
HETATM   22  O   UNL     1      21.758  47.392  48.563  1.00  0.00    -0.248 OA
HETATM   23  H   UNL     1      22.739  49.914  50.110  1.00  0.00     0.164 HD
HETATM   24  H   UNL     1      23.855  48.186  50.742  1.00  0.00     0.164 HD
BRANCH  21  25
HETATM   25  C   UNL     1      20.778  50.008  49.369  1.00  0.00     0.086 C 
HETATM   26  C   UNL     1      21.049  51.409  48.805  1.00  0.00     0.025 C 
HETATM   27  C   UNL     1      19.764  52.054  48.289  1.00  0.00     0.002 C 
HETATM   28  C   UNL     1      18.674  52.079  49.358  1.00  0.00     0.000 C 
HETATM   29  C   UNL     1      18.410  50.688  49.931  1.00  0.00     0.002 C 
HETATM   30  C   UNL     1      19.692  50.040  50.452  1.00  0.00     0.025 C 
ENDBRANCH  21  25
ENDBRANCH  18  19
ENDBRANCH  17  18
ENDBRANCH  16  17
ENDBRANCH  13  16
ENDBRANCH  10  12
ENDBRANCH   2  10
TORSDOF 7
ENDMDL
MODEL 3
REMARK VINA RESULT:      -8.6      1.467      1.848
REMARK  7 active torsions:
REMARK  status: ('A' for Active; 'I' for Inactive)
REMARK    1  A    between atoms: C_2  and  N_3 
REMARK    2  A    between atoms: N_3  and  N_4 
REMARK       I    between atoms: N_4  and  C_5 
REMARK    3  A    between atoms: C_5  and  C_6 
REMARK    4  A    between atoms: C_6  and  C_7 
REMARK    5  A    between atoms: C_7  and  C_8 
REMARK    6  A    between atoms: C_8  and  N_9 
REMARK       I    between atoms: N_9  and  C_10 
REMARK       I    between atoms: C_10  and  N_11 
REMARK    7  A    between atoms: N_11  and  C_12 
ROOT
HETATM    1  C   UNL     1      27.939  45.496  55.540  1.00  0.00     0.068 A 
HETATM    2  C   UNL     1      27.281  44.898  54.471  1.00  0.00     0.124 A 
HETATM    3  N   UNL     1      27.874  43.962  53.707  1.00  0.00    -0.223 NA
HETATM    4  C   UNL     1      29.148  43.633  53.992  1.00  0.00     0.129 A 
HETATM    5 CL   UNL     1      29.822  42.435  52.969  1.00  0.00    -0.062 Cl
HETATM    6  C   UNL     1      29.888  44.182  55.016  1.00  0.00     0.067 A 
HETATM    7  C   UNL     1      29.261  45.136  55.807  1.00  0.00     0.051 A 
HETATM    8  C   UNL     1      29.964  45.746  56.895  1.00  0.00     0.099 C 
HETATM    9  N   UNL     1      30.537  46.238  57.774  1.00  0.00    -0.191 NA
ENDROOT
BRANCH   2  10
HETATM   10  N   UNL     1      25.929  45.181  54.182  1.00  0.00    -0.186 NA
HETATM   11  H   UNL     1      25.391  44.442  54.658  1.00  0.00     0.154 HD
BRANCH  10  12
HETATM   12  N   UNL     1      25.640  45.233  52.798  1.00  0.00    -0.286 N 
HETATM   13  C   UNL     1      25.813  46.466  52.189  1.00  0.00     0.232 C 
HETATM   14  O   UNL     1      25.984  47.510  52.813  1.00  0.00    -0.272 OA
HETATM   15  H   UNL     1      25.887  44.391  52.282  1.00  0.00     0.184 HD
BRANCH  13  16
HETATM   16  C   UNL     1      25.822  46.417  50.677  1.00  0.00     0.106 C 
BRANCH  16  17
HETATM   17  C   UNL     1      24.415  46.434  50.089  1.00  0.00     0.029 C 
BRANCH  17  18
HETATM   18  C   UNL     1      24.179  47.706  49.279  1.00  0.00     0.125 C 
BRANCH  18  19
HETATM   19  N   UNL     1      23.139  48.528  49.862  1.00  0.00    -0.343 N 
HETATM   20  C   UNL     1      22.062  48.946  49.119  1.00  0.00     0.316 C 
HETATM   21  N   UNL     1      21.201  49.686  49.889  1.00  0.00    -0.339 N 
HETATM   22  O   UNL     1      21.912  48.686  47.935  1.00  0.00    -0.248 OA
HETATM   23  H   UNL     1      21.635  50.125  50.686  1.00  0.00     0.164 HD
HETATM   24  H   UNL     1      22.997  48.468  50.859  1.00  0.00     0.164 HD
BRANCH  21  25
HETATM   25  C   UNL     1      20.016  50.359  49.371  1.00  0.00     0.086 C 
HETATM   26  C   UNL     1      20.291  51.783  48.872  1.00  0.00     0.025 C 
HETATM   27  C   UNL     1      19.032  52.410  48.275  1.00  0.00     0.002 C 
HETATM   28  C   UNL     1      17.862  52.374  49.256  1.00  0.00     0.000 C 
HETATM   29  C   UNL     1      17.594  50.959  49.766  1.00  0.00     0.002 C 
HETATM   30  C   UNL     1      18.849  50.329  50.366  1.00  0.00     0.025 C 
ENDBRANCH  21  25
ENDBRANCH  18  19
ENDBRANCH  17  18
ENDBRANCH  16  17
ENDBRANCH  13  16
ENDBRANCH  10  12
ENDBRANCH   2  10
TORSDOF 7
ENDMDL
MODEL 4
REMARK VINA RESULT:      -8.4      3.987      9.786
REMARK  7 active torsions:
REMARK  status: ('A' for Active; 'I' for Inactive)
REMARK    1  A    between atoms: C_2  and  N_3 
REMARK    2  A    between atoms: N_3  and  N_4 
REMARK       I    between atoms: N_4  and  C_5 
REMARK    3  A    between atoms: C_5  and  C_6 
REMARK    4  A    between atoms: C_6  and  C_7 
REMARK    5  A    between atoms: C_7  and  C_8 
REMARK    6  A    between atoms: C_8  and  N_9 
REMARK       I    between atoms: N_9  and  C_10 
REMARK       I    between atoms: C_10  and  N_11 
REMARK    7  A    between atoms: N_11  and  C_12 
ROOT
HETATM    1  C   UNL     1      24.599  45.578  50.730  1.00  0.00     0.068 A 
HETATM    2  C   UNL     1      24.707  44.579  51.692  1.00  0.00     0.124 A 
HETATM    3  N   UNL     1      25.274  44.807  52.891  1.00  0.00    -0.223 NA
HETATM    4  C   UNL     1      25.766  46.037  53.129  1.00  0.00     0.129 A 
HETATM    5 CL   UNL     1      26.469  46.238  54.680  1.00  0.00    -0.062 Cl
HETATM    6  C   UNL     1      25.724  47.085  52.235  1.00  0.00     0.067 A 
HETATM    7  C   UNL     1      25.122  46.842  51.006  1.00  0.00     0.051 A 
HETATM    8  C   UNL     1      25.035  47.883  50.029  1.00  0.00     0.099 C 
HETATM    9  N   UNL     1      24.967  48.729  49.239  1.00  0.00    -0.191 NA
ENDROOT
BRANCH   2  10
HETATM   10  N   UNL     1      24.153  43.297  51.492  1.00  0.00    -0.186 NA
HETATM   11  H   UNL     1      23.514  43.152  52.289  1.00  0.00     0.154 HD
BRANCH  10  12
HETATM   12  N   UNL     1      25.118  42.266  51.399  1.00  0.00    -0.286 N 
HETATM   13  C   UNL     1      25.369  41.785  50.124  1.00  0.00     0.232 C 
HETATM   14  O   UNL     1      24.665  42.048  49.152  1.00  0.00    -0.272 OA
HETATM   15  H   UNL     1      25.892  42.351  52.054  1.00  0.00     0.184 HD
BRANCH  13  16
HETATM   16  C   UNL     1      26.618  40.940  50.013  1.00  0.00     0.106 C 
BRANCH  16  17
HETATM   17  C   UNL     1      27.316  40.758  51.358  1.00  0.00     0.029 C 
BRANCH  17  18
HETATM   18  C   UNL     1      28.479  41.735  51.504  1.00  0.00     0.125 C 
BRANCH  18  19
HETATM   19  N   UNL     1      28.366  42.527  52.710  1.00  0.00    -0.343 N 
HETATM   20  C   UNL     1      29.481  42.949  53.393  1.00  0.00     0.316 C 
HETATM   21  N   UNL     1      29.126  43.702  54.482  1.00  0.00    -0.339 N 
HETATM   22  O   UNL     1      30.625  42.677  53.059  1.00  0.00    -0.248 OA
HETATM   23  H   UNL     1      28.199  43.510  54.831  1.00  0.00     0.164 HD
HETATM   24  H   UNL     1      27.533  43.083  52.830  1.00  0.00     0.164 HD
BRANCH  21  25
HETATM   25  C   UNL     1      30.073  44.211  55.467  1.00  0.00     0.086 C 
HETATM   26  C   UNL     1      30.734  43.110  56.305  1.00  0.00     0.025 C 
HETATM   27  C   UNL     1      31.767  43.694  57.267  1.00  0.00     0.002 C 
HETATM   28  C   UNL     1      31.166  44.787  58.148  1.00  0.00     0.000 C 
HETATM   29  C   UNL     1      30.496  45.879  57.317  1.00  0.00     0.002 C 
HETATM   30  C   UNL     1      29.459  45.300  56.356  1.00  0.00     0.025 C 
ENDBRANCH  21  25
ENDBRANCH  18  19
ENDBRANCH  17  18
ENDBRANCH  16  17
ENDBRANCH  13  16
ENDBRANCH  10  12
ENDBRANCH   2  10
TORSDOF 7
ENDMDL
MODEL 5
REMARK VINA RESULT:      -8.3      3.122     10.712
REMARK  7 active torsions:
REMARK  status: ('A' for Active; 'I' for Inactive)
REMARK    1  A    between atoms: C_2  and  N_3 
REMARK    2  A    between atoms: N_3  and  N_4 
REMARK       I    between atoms: N_4  and  C_5 
REMARK    3  A    between atoms: C_5  and  C_6 
REMARK    4  A    between atoms: C_6  and  C_7 
REMARK    5  A    between atoms: C_7  and  C_8 
REMARK    6  A    between atoms: C_8  and  N_9 
REMARK       I    between atoms: N_9  and  C_10 
REMARK       I    between atoms: C_10  and  N_11 
REMARK    7  A    between atoms: N_11  and  C_12 
ROOT
HETATM    1  C   UNL     1      21.069  49.031  48.711  1.00  0.00     0.068 A 
HETATM    2  C   UNL     1      22.072  48.075  48.589  1.00  0.00     0.124 A 
HETATM    3  N   UNL     1      23.344  48.414  48.312  1.00  0.00    -0.223 NA
HETATM    4  C   UNL     1      23.621  49.718  48.126  1.00  0.00     0.129 A 
HETATM    5 CL   UNL     1      25.264  50.057  47.777  1.00  0.00    -0.062 Cl
HETATM    6  C   UNL     1      22.694  50.735  48.207  1.00  0.00     0.067 A 
HETATM    7  C   UNL     1      21.387  50.375  48.509  1.00  0.00     0.051 A 
HETATM    8  C   UNL     1      20.370  51.377  48.618  1.00  0.00     0.099 C 
HETATM    9  N   UNL     1      19.550  52.190  48.703  1.00  0.00    -0.191 NA
ENDROOT
BRANCH   2  10
HETATM   10  N   UNL     1      21.824  46.707  48.832  1.00  0.00    -0.186 NA
HETATM   11  H   UNL     1      21.171  46.690  49.630  1.00  0.00     0.154 HD
BRANCH  10  12
HETATM   12  N   UNL     1      22.992  45.953  49.092  1.00  0.00    -0.286 N 
HETATM   13  C   UNL     1      22.793  44.614  49.391  1.00  0.00     0.232 C 
HETATM   14  O   UNL     1      21.691  44.134  49.645  1.00  0.00    -0.272 OA
HETATM   15  H   UNL     1      23.799  46.217  48.532  1.00  0.00     0.184 HD
BRANCH  13  16
HETATM   16  C   UNL     1      24.049  43.772  49.335  1.00  0.00     0.106 C 
BRANCH  16  17
HETATM   17  C   UNL     1      24.417  43.189  50.696  1.00  0.00     0.029 C 
BRANCH  17  18
HETATM   18  C   UNL     1      24.691  44.299  51.707  1.00  0.00     0.125 C 
BRANCH  18  19
HETATM   19  N   UNL     1      26.101  44.399  52.024  1.00  0.00    -0.343 N 
HETATM   20  C   UNL     1      26.560  44.182  53.301  1.00  0.00     0.316 C 
HETATM   21  N   UNL     1      27.925  44.305  53.352  1.00  0.00    -0.339 N 
HETATM   22  O   UNL     1      25.834  43.919  54.248  1.00  0.00    -0.248 OA
HETATM   23  H   UNL     1      28.313  44.886  52.624  1.00  0.00     0.164 HD
HETATM   24  H   UNL     1      26.762  44.240  51.280  1.00  0.00     0.164 HD
BRANCH  21  25
HETATM   25  C   UNL     1      28.705  44.236  54.581  1.00  0.00     0.086 C 
HETATM   26  C   UNL     1      29.057  45.611  55.161  1.00  0.00     0.025 C 
HETATM   27  C   UNL     1      29.811  45.476  56.483  1.00  0.00     0.002 C 
HETATM   28  C   UNL     1      31.048  44.592  56.342  1.00  0.00     0.000 C 
HETATM   29  C   UNL     1      30.703  43.226  55.753  1.00  0.00     0.002 C 
HETATM   30  C   UNL     1      29.953  43.356  54.428  1.00  0.00     0.025 C 
ENDBRANCH  21  25
ENDBRANCH  18  19
ENDBRANCH  17  18
ENDBRANCH  16  17
ENDBRANCH  13  16
ENDBRANCH  10  12
ENDBRANCH   2  10
TORSDOF 7
ENDMDL
MODEL 6
REMARK VINA RESULT:      -8.2      3.324     10.895
REMARK  7 active torsions:
REMARK  status: ('A' for Active; 'I' for Inactive)
REMARK    1  A    between atoms: C_2  and  N_3 
REMARK    2  A    between atoms: N_3  and  N_4 
REMARK       I    between atoms: N_4  and  C_5 
REMARK    3  A    between atoms: C_5  and  C_6 
REMARK    4  A    between atoms: C_6  and  C_7 
REMARK    5  A    between atoms: C_7  and  C_8 
REMARK    6  A    between atoms: C_8  and  N_9 
REMARK       I    between atoms: N_9  and  C_10 
REMARK       I    between atoms: C_10  and  N_11 
REMARK    7  A    between atoms: N_11  and  C_12 
ROOT
HETATM    1  C   UNL     1      22.521  47.334  48.687  1.00  0.00     0.068 A 
HETATM    2  C   UNL     1      23.038  48.437  49.358  1.00  0.00     0.124 A 
HETATM    3  N   UNL     1      22.466  49.652  49.271  1.00  0.00    -0.223 NA
HETATM    4  C   UNL     1      21.380  49.781  48.486  1.00  0.00     0.129 A 
HETATM    5 CL   UNL     1      20.718  51.361  48.435  1.00  0.00    -0.062 Cl
HETATM    6  C   UNL     1      20.806  48.754  47.768  1.00  0.00     0.067 A 
HETATM    7  C   UNL     1      21.396  47.501  47.878  1.00  0.00     0.051 A 
HETATM    8  C   UNL     1      20.852  46.384  47.167  1.00  0.00     0.099 C 
HETATM    9  N   UNL     1      20.409  45.482  46.589  1.00  0.00    -0.191 NA
ENDROOT
BRANCH   2  10
HETATM   10  N   UNL     1      24.141  48.322  50.230  1.00  0.00    -0.186 NA
HETATM   11  H   UNL     1      24.972  48.450  49.633  1.00  0.00     0.154 HD
BRANCH  10  12
HETATM   12  N   UNL     1      24.185  47.096  50.936  1.00  0.00    -0.286 N 
HETATM   13  C   UNL     1      25.327  46.872  51.689  1.00  0.00     0.232 C 
HETATM   14  O   UNL     1      26.343  47.557  51.596  1.00  0.00    -0.272 OA
HETATM   15  H   UNL     1      23.287  46.786  51.300  1.00  0.00     0.184 HD
BRANCH  13  16
HETATM   16  C   UNL     1      25.205  45.735  52.678  1.00  0.00     0.106 C 
BRANCH  16  17
HETATM   17  C   UNL     1      25.363  44.370  52.014  1.00  0.00     0.029 C 
BRANCH  17  18
HETATM   18  C   UNL     1      26.835  44.049  51.773  1.00  0.00     0.125 C 
BRANCH  18  19
HETATM   19  N   UNL     1      27.694  44.728  52.720  1.00  0.00    -0.343 N 
HETATM   20  C   UNL     1      28.173  44.084  53.835  1.00  0.00     0.316 C 
HETATM   21  N   UNL     1      28.982  44.916  54.565  1.00  0.00    -0.339 N 
HETATM   22  O   UNL     1      27.900  42.927  54.121  1.00  0.00    -0.248 OA
HETATM   23  H   UNL     1      28.796  45.898  54.426  1.00  0.00     0.164 HD
HETATM   24  H   UNL     1      28.243  45.504  52.384  1.00  0.00     0.164 HD
BRANCH  21  25
HETATM   25  C   UNL     1      29.562  44.565  55.856  1.00  0.00     0.086 C 
HETATM   26  C   UNL     1      29.779  45.772  56.777  1.00  0.00     0.025 C 
HETATM   27  C   UNL     1      30.320  45.337  58.138  1.00  0.00     0.002 C 
HETATM   28  C   UNL     1      31.589  44.498  58.001  1.00  0.00     0.000 C 
HETATM   29  C   UNL     1      31.380  43.303  57.075  1.00  0.00     0.002 C 
HETATM   30  C   UNL     1      30.843  43.733  55.711  1.00  0.00     0.025 C 
ENDBRANCH  21  25
ENDBRANCH  18  19
ENDBRANCH  17  18
ENDBRANCH  16  17
ENDBRANCH  13  16
ENDBRANCH  10  12
ENDBRANCH   2  10
TORSDOF 7
ENDMDL
MODEL 7
REMARK VINA RESULT:      -8.1      4.219      8.904
REMARK  7 active torsions:
REMARK  status: ('A' for Active; 'I' for Inactive)
REMARK    1  A    between atoms: C_2  and  N_3 
REMARK    2  A    between atoms: N_3  and  N_4 
REMARK       I    between atoms: N_4  and  C_5 
REMARK    3  A    between atoms: C_5  and  C_6 
REMARK    4  A    between atoms: C_6  and  C_7 
REMARK    5  A    between atoms: C_7  and  C_8 
REMARK    6  A    between atoms: C_8  and  N_9 
REMARK       I    between atoms: N_9  and  C_10 
REMARK       I    between atoms: C_10  and  N_11 
REMARK    7  A    between atoms: N_11  and  C_12 
ROOT
HETATM    1  C   UNL     1      27.615  41.210  49.235  1.00  0.00     0.068 A 
HETATM    2  C   UNL     1      27.090  42.393  49.742  1.00  0.00     0.124 A 
HETATM    3  N   UNL     1      27.187  42.711  51.045  1.00  0.00    -0.223 NA
HETATM    4  C   UNL     1      27.790  41.828  51.864  1.00  0.00     0.129 A 
HETATM    5 CL   UNL     1      27.868  42.315  53.506  1.00  0.00    -0.062 Cl
HETATM    6  C   UNL     1      28.323  40.623  51.461  1.00  0.00     0.067 A 
HETATM    7  C   UNL     1      28.231  40.314  50.110  1.00  0.00     0.051 A 
HETATM    8  C   UNL     1      28.769  39.083  49.615  1.00  0.00     0.099 C 
HETATM    9  N   UNL     1      29.204  38.085  49.218  1.00  0.00    -0.191 NA
ENDROOT
BRANCH   2  10
HETATM   10  N   UNL     1      26.501  43.362  48.901  1.00  0.00    -0.186 NA
HETATM   11  H   UNL     1      26.941  43.220  47.978  1.00  0.00     0.154 HD
BRANCH  10  12
HETATM   12  N   UNL     1      26.662  44.691  49.360  1.00  0.00    -0.286 N 
HETATM   13  C   UNL     1      25.493  45.368  49.670  1.00  0.00     0.232 C 
HETATM   14  O   UNL     1      24.375  44.961  49.367  1.00  0.00    -0.272 OA
HETATM   15  H   UNL     1      27.485  44.842  49.938  1.00  0.00     0.184 HD
BRANCH  13  16
HETATM   16  C   UNL     1      25.704  46.640  50.461  1.00  0.00     0.106 C 
BRANCH  16  17
HETATM   17  C   UNL     1      25.117  46.553  51.866  1.00  0.00     0.029 C 
BRANCH  17  18
HETATM   18  C   UNL     1      26.052  47.194  52.888  1.00  0.00     0.125 C 
BRANCH  18  19
HETATM   19  N   UNL     1      26.749  46.200  53.675  1.00  0.00    -0.343 N 
HETATM   20  C   UNL     1      27.807  46.543  54.482  1.00  0.00     0.316 C 
HETATM   21  N   UNL     1      28.287  45.444  55.146  1.00  0.00    -0.339 N 
HETATM   22  O   UNL     1      28.246  47.680  54.578  1.00  0.00    -0.248 OA
HETATM   23  H   UNL     1      28.095  44.568  54.684  1.00  0.00     0.164 HD
HETATM   24  H   UNL     1      26.243  45.367  53.934  1.00  0.00     0.164 HD
BRANCH  21  25
HETATM   25  C   UNL     1      29.469  45.457  55.999  1.00  0.00     0.086 C 
HETATM   26  C   UNL     1      30.239  44.130  55.998  1.00  0.00     0.025 C 
HETATM   27  C   UNL     1      31.504  44.225  56.849  1.00  0.00     0.002 C 
HETATM   28  C   UNL     1      31.196  44.696  58.269  1.00  0.00     0.000 C 
HETATM   29  C   UNL     1      30.419  46.011  58.274  1.00  0.00     0.002 C 
HETATM   30  C   UNL     1      29.151  45.919  57.427  1.00  0.00     0.025 C 
ENDBRANCH  21  25
ENDBRANCH  18  19
ENDBRANCH  17  18
ENDBRANCH  16  17
ENDBRANCH  13  16
ENDBRANCH  10  12
ENDBRANCH   2  10
TORSDOF 7
ENDMDL
MODEL 8
REMARK VINA RESULT:      -8.1      4.777     10.538
REMARK  7 active torsions:
REMARK  status: ('A' for Active; 'I' for Inactive)
REMARK    1  A    between atoms: C_2  and  N_3 
REMARK    2  A    between atoms: N_3  and  N_4 
REMARK       I    between atoms: N_4  and  C_5 
REMARK    3  A    between atoms: C_5  and  C_6 
REMARK    4  A    between atoms: C_6  and  C_7 
REMARK    5  A    between atoms: C_7  and  C_8 
REMARK    6  A    between atoms: C_8  and  N_9 
REMARK       I    between atoms: N_9  and  C_10 
REMARK       I    between atoms: C_10  and  N_11 
REMARK    7  A    between atoms: N_11  and  C_12 
ROOT
HETATM    1  C   UNL     1      20.828  49.150  49.008  1.00  0.00     0.068 A 
HETATM    2  C   UNL     1      19.583  49.103  49.626  1.00  0.00     0.124 A 
HETATM    3  N   UNL     1      18.791  50.187  49.709  1.00  0.00    -0.223 NA
HETATM    4  C   UNL     1      19.252  51.343  49.196  1.00  0.00     0.129 A 
HETATM    5 CL   UNL     1      18.179  52.671  49.347  1.00  0.00    -0.062 Cl
HETATM    6  C   UNL     1      20.477  51.494  48.583  1.00  0.00     0.067 A 
HETATM    7  C   UNL     1      21.279  50.364  48.489  1.00  0.00     0.051 A 
HETATM    8  C   UNL     1      22.562  50.442  47.859  1.00  0.00     0.099 C 
HETATM    9  N   UNL     1      23.601  50.509  47.349  1.00  0.00    -0.191 NA
ENDROOT
BRANCH   2  10
HETATM   10  N   UNL     1      19.050  47.895  50.123  1.00  0.00    -0.186 NA
HETATM   11  H   UNL     1      19.124  47.970  51.149  1.00  0.00     0.154 HD
BRANCH  10  12
HETATM   12  N   UNL     1      19.701  46.738  49.633  1.00  0.00    -0.286 N 
HETATM   13  C   UNL     1      19.050  46.065  48.611  1.00  0.00     0.232 C 
HETATM   14  O   UNL     1      17.888  46.293  48.284  1.00  0.00    -0.272 OA
HETATM   15  H   UNL     1      20.716  46.801  49.611  1.00  0.00     0.184 HD
BRANCH  13  16
HETATM   16  C   UNL     1      19.908  45.050  47.890  1.00  0.00     0.106 C 
BRANCH  16  17
HETATM   17  C   UNL     1      21.398  45.280  48.123  1.00  0.00     0.029 C 
BRANCH  17  18
HETATM   18  C   UNL     1      21.960  44.258  49.107  1.00  0.00     0.125 C 
BRANCH  18  19
HETATM   19  N   UNL     1      23.088  44.787  49.844  1.00  0.00    -0.343 N 
HETATM   20  C   UNL     1      23.802  44.000  50.715  1.00  0.00     0.316 C 
HETATM   21  N   UNL     1      24.834  44.709  51.274  1.00  0.00    -0.339 N 
HETATM   22  O   UNL     1      23.534  42.830  50.948  1.00  0.00    -0.248 OA
HETATM   23  H   UNL     1      24.687  45.706  51.289  1.00  0.00     0.164 HD
HETATM   24  H   UNL     1      23.579  45.574  49.449  1.00  0.00     0.164 HD
BRANCH  21  25
HETATM   25  C   UNL     1      25.713  44.188  52.314  1.00  0.00     0.086 C 
HETATM   26  C   UNL     1      25.237  44.512  53.735  1.00  0.00     0.025 C 
HETATM   27  C   UNL     1      26.156  43.882  54.781  1.00  0.00     0.002 C 
HETATM   28  C   UNL     1      27.614  44.283  54.570  1.00  0.00     0.000 C 
HETATM   29  C   UNL     1      28.087  43.974  53.152  1.00  0.00     0.002 C 
HETATM   30  C   UNL     1      27.175  44.605  52.102  1.00  0.00     0.025 C 
ENDBRANCH  21  25
ENDBRANCH  18  19
ENDBRANCH  17  18
ENDBRANCH  16  17
ENDBRANCH  13  16
ENDBRANCH  10  12
ENDBRANCH   2  10
TORSDOF 7
ENDMDL
MODEL 9
REMARK VINA RESULT:      -8.0      2.273      3.134
REMARK  7 active torsions:
REMARK  status: ('A' for Active; 'I' for Inactive)
REMARK    1  A    between atoms: C_2  and  N_3 
REMARK    2  A    between atoms: N_3  and  N_4 
REMARK       I    between atoms: N_4  and  C_5 
REMARK    3  A    between atoms: C_5  and  C_6 
REMARK    4  A    between atoms: C_6  and  C_7 
REMARK    5  A    between atoms: C_7  and  C_8 
REMARK    6  A    between atoms: C_8  and  N_9 
REMARK       I    between atoms: N_9  and  C_10 
REMARK       I    between atoms: C_10  and  N_11 
REMARK    7  A    between atoms: N_11  and  C_12 
ROOT
HETATM    1  C   UNL     1      26.757  45.579  53.880  1.00  0.00     0.068 A 
HETATM    2  C   UNL     1      27.235  44.371  53.384  1.00  0.00     0.124 A 
HETATM    3  N   UNL     1      28.395  43.839  53.810  1.00  0.00    -0.223 NA
HETATM    4  C   UNL     1      29.106  44.529  54.722  1.00  0.00     0.129 A 
HETATM    5 CL   UNL     1      30.568  43.778  55.206  1.00  0.00    -0.062 Cl
HETATM    6  C   UNL     1      28.725  45.741  55.258  1.00  0.00     0.067 A 
HETATM    7  C   UNL     1      27.518  46.272  54.822  1.00  0.00     0.051 A 
HETATM    8  C   UNL     1      27.054  47.524  55.340  1.00  0.00     0.099 C 
HETATM    9  N   UNL     1      26.682  48.538  55.759  1.00  0.00    -0.191 NA
ENDROOT
BRANCH   2  10
HETATM   10  N   UNL     1      26.487  43.599  52.469  1.00  0.00    -0.186 NA
HETATM   11  H   UNL     1      27.054  42.754  52.303  1.00  0.00     0.154 HD
BRANCH  10  12
HETATM   12  N   UNL     1      26.187  44.276  51.263  1.00  0.00    -0.286 N 
HETATM   13  C   UNL     1      24.860  44.632  51.083  1.00  0.00     0.232 C 
HETATM   14  O   UNL     1      23.946  44.210  51.787  1.00  0.00    -0.272 OA
HETATM   15  H   UNL     1      26.914  44.912  50.943  1.00  0.00     0.184 HD
BRANCH  13  16
HETATM   16  C   UNL     1      24.629  45.628  49.969  1.00  0.00     0.106 C 
BRANCH  16  17
HETATM   17  C   UNL     1      24.914  47.062  50.406  1.00  0.00     0.029 C 
BRANCH  17  18
HETATM   18  C   UNL     1      24.347  48.060  49.399  1.00  0.00     0.125 C 
BRANCH  18  19
HETATM   19  N   UNL     1      23.187  48.750  49.923  1.00  0.00    -0.343 N 
HETATM   20  C   UNL     1      22.141  49.106  49.106  1.00  0.00     0.316 C 
HETATM   21  N   UNL     1      21.152  49.722  49.829  1.00  0.00    -0.339 N 
HETATM   22  O   UNL     1      22.117  48.895  47.903  1.00  0.00    -0.248 OA
HETATM   23  H   UNL     1      21.473  50.157  50.680  1.00  0.00     0.164 HD
HETATM   24  H   UNL     1      22.969  48.626  50.899  1.00  0.00     0.164 HD
BRANCH  21  25
HETATM   25  C   UNL     1      19.955  50.309  49.238  1.00  0.00     0.086 C 
HETATM   26  C   UNL     1      19.626  51.704  49.782  1.00  0.00     0.025 C 
HETATM   27  C   UNL     1      18.407  52.298  49.076  1.00  0.00     0.002 C 
HETATM   28  C   UNL     1      17.200  51.366  49.150  1.00  0.00     0.000 C 
HETATM   29  C   UNL     1      17.528  49.971  48.621  1.00  0.00     0.002 C 
HETATM   30  C   UNL     1      18.743  49.372  49.326  1.00  0.00     0.025 C 
ENDBRANCH  21  25
ENDBRANCH  18  19
ENDBRANCH  17  18
ENDBRANCH  16  17
ENDBRANCH  13  16
ENDBRANCH  10  12
ENDBRANCH   2  10
TORSDOF 7
ENDMDL
MODEL 10
REMARK VINA RESULT:      -7.9      1.651      2.613
REMARK  7 active torsions:
REMARK  status: ('A' for Active; 'I' for Inactive)
REMARK    1  A    between atoms: C_2  and  N_3 
REMARK    2  A    between atoms: N_3  and  N_4 
REMARK       I    between atoms: N_4  and  C_5 
REMARK    3  A    between atoms: C_5  and  C_6 
REMARK    4  A    between atoms: C_6  and  C_7 
REMARK    5  A    between atoms: C_7  and  C_8 
REMARK    6  A    between atoms: C_8  and  N_9 
REMARK       I    between atoms: N_9  and  C_10 
REMARK       I    between atoms: C_10  and  N_11 
REMARK    7  A    between atoms: N_11  and  C_12 
ROOT
HETATM    1  C   UNL     1      27.653  43.398  53.365  1.00  0.00     0.068 A 
HETATM    2  C   UNL     1      27.634  44.499  54.215  1.00  0.00     0.124 A 
HETATM    3  N   UNL     1      28.662  44.779  55.035  1.00  0.00    -0.223 NA
HETATM    4  C   UNL     1      29.715  43.939  55.032  1.00  0.00     0.129 A 
HETATM    5 CL   UNL     1      30.978  44.372  56.108  1.00  0.00    -0.062 Cl
HETATM    6  C   UNL     1      29.818  42.815  54.242  1.00  0.00     0.067 A 
HETATM    7  C   UNL     1      28.757  42.545  53.388  1.00  0.00     0.051 A 
HETATM    8  C   UNL     1      28.795  41.399  52.531  1.00  0.00     0.099 C 
HETATM    9  N   UNL     1      28.829  40.469  51.840  1.00  0.00    -0.191 NA
ENDROOT
BRANCH   2  10
HETATM   10  N   UNL     1      26.570  45.426  54.201  1.00  0.00    -0.186 NA
HETATM   11  H   UNL     1      25.870  45.042  54.854  1.00  0.00     0.154 HD
BRANCH  10  12
HETATM   12  N   UNL     1      26.023  45.648  52.915  1.00  0.00    -0.286 N 
HETATM   13  C   UNL     1      25.625  46.947  52.643  1.00  0.00     0.232 C 
HETATM   14  O   UNL     1      25.528  47.819  53.503  1.00  0.00    -0.272 OA
HETATM   15  H   UNL     1      26.450  45.099  52.173  1.00  0.00     0.184 HD
BRANCH  13  16
HETATM   16  C   UNL     1      25.363  47.222  51.179  1.00  0.00     0.106 C 
BRANCH  16  17
HETATM   17  C   UNL     1      25.436  45.958  50.329  1.00  0.00     0.029 C 
BRANCH  17  18
HETATM   18  C   UNL     1      24.528  46.070  49.107  1.00  0.00     0.125 C 
BRANCH  18  19
HETATM   19  N   UNL     1      23.189  46.485  49.470  1.00  0.00    -0.343 N 
HETATM   20  C   UNL     1      22.619  47.610  48.926  1.00  0.00     0.316 C 
HETATM   21  N   UNL     1      21.344  47.784  49.398  1.00  0.00    -0.339 N 
HETATM   22  O   UNL     1      23.190  48.344  48.133  1.00  0.00    -0.248 OA
HETATM   23  H   UNL     1      21.174  47.353  50.294  1.00  0.00     0.164 HD
HETATM   24  H   UNL     1      22.550  45.775  49.797  1.00  0.00     0.164 HD
BRANCH  21  25
HETATM   25  C   UNL     1      20.510  48.940  49.091  1.00  0.00     0.086 C 
HETATM   26  C   UNL     1      20.174  49.073  47.601  1.00  0.00     0.025 C 
HETATM   27  C   UNL     1      19.241  50.257  47.349  1.00  0.00     0.002 C 
HETATM   28  C   UNL     1      19.810  51.556  47.916  1.00  0.00     0.000 C 
HETATM   29  C   UNL     1      20.158  51.423  49.397  1.00  0.00     0.002 C 
HETATM   30  C   UNL     1      21.094  50.243  49.653  1.00  0.00     0.025 C 
ENDBRANCH  21  25
ENDBRANCH  18  19
ENDBRANCH  17  18
ENDBRANCH  16  17
ENDBRANCH  13  16
ENDBRANCH  10  12
ENDBRANCH   2  10
TORSDOF 7
ENDMDL
