MODEL 1
REMARK VINA RESULT:      -8.5      0.000      0.000
REMARK  3 active torsions:
REMARK  status: ('A' for Active; 'I' for Inactive)
REMARK    1  A    between atoms: C_4  and  C_5 
REMARK    2  A    between atoms: C_14  and  C_15 
REMARK       I    between atoms: C_15  and  N_16 
REMARK    3  A    between atoms: N_16  and  C_17 
ROOT
HETATM    1  C   UNL     1      25.548  43.671  51.784  1.00  0.00     0.222 A 
HETATM    2  N   UNL     1      25.115  43.401  50.416  1.00  0.00    -0.090 N 
HETATM    3  C   UNL     1      25.657  42.445  49.606  1.00  0.00     0.735 A 
HETATM    4  N   UNL     1      24.977  42.422  48.485  1.00  0.00     0.030 NA
HETATM    5  N   UNL     1      23.969  43.355  48.640  1.00  0.00     0.033 NA
HETATM    6  N   UNL     1      24.027  43.935  49.834  1.00  0.00     0.012 NA
HETATM    7  N   UNL     1      26.694  41.716  50.057  1.00  0.00    -0.191 N 
HETATM    8  C   UNL     1      27.232  41.860  51.332  1.00  0.00     0.037 A 
HETATM    9  C   UNL     1      28.374  40.928  51.663  1.00  0.00     0.070 C 
HETATM   10  C   UNL     1      26.714  42.776  52.191  1.00  0.00     0.064 A 
HETATM   11  H   UNL     1      27.103  41.010  49.450  1.00  0.00     0.184 HD
ENDROOT
BRANCH  10  12
HETATM   12  C   UNL     1      27.351  43.010  53.524  1.00  0.00     0.256 C 
HETATM   13  N   UNL     1      28.480  43.801  53.487  1.00  0.00    -0.323 N 
HETATM   14  H   UNL     1      28.828  44.114  52.591  1.00  0.00     0.169 HD
HETATM   15  O   UNL     1      26.861  42.491  54.521  1.00  0.00    -0.267 OA
BRANCH  13  16
HETATM   16  C   UNL     1      29.266  44.215  54.588  1.00  0.00     0.035 A 
HETATM   17  C   UNL     1      30.360  43.503  55.082  1.00  0.00     0.029 A 
HETATM   18  C   UNL     1      31.073  43.976  56.189  1.00  0.00     0.002 A 
HETATM   19  C   UNL     1      30.702  45.166  56.807  1.00  0.00     0.000 A 
HETATM   20  C   UNL     1      29.614  45.886  56.322  1.00  0.00     0.002 A 
HETATM   21  C   UNL     1      28.898  45.411  55.220  1.00  0.00     0.029 A 
ENDBRANCH  13  16
ENDBRANCH  10  12
BRANCH   1  22
HETATM   22  C   UNL     1      25.808  45.135  51.948  1.00  0.00     0.083 A 
HETATM   23  O   UNL     1      25.755  45.610  53.228  1.00  0.00    -0.317 OA
HETATM   24  C   UNL     1      26.035  46.941  53.175  1.00  0.00     0.049 A 
HETATM   25  C   UNL     1      26.017  47.673  54.457  1.00  0.00     0.076 C 
HETATM   26  C   UNL     1      26.276  47.323  51.873  1.00  0.00     0.035 A 
HETATM   27  C   UNL     1      26.135  46.159  51.081  1.00  0.00     0.038 A 
ENDBRANCH   1  22
TORSDOF 3
ENDMDL
MODEL 2
REMARK VINA RESULT:      -8.4      1.983      4.047
REMARK  3 active torsions:
REMARK  status: ('A' for Active; 'I' for Inactive)
REMARK    1  A    between atoms: C_4  and  C_5 
REMARK    2  A    between atoms: C_14  and  C_15 
REMARK       I    between atoms: C_15  and  N_16 
REMARK    3  A    between atoms: N_16  and  C_17 
ROOT
HETATM    1  C   UNL     1      27.089  45.212  51.744  1.00  0.00     0.222 A 
HETATM    2  N   UNL     1      26.260  46.025  50.857  1.00  0.00    -0.090 N 
HETATM    3  C   UNL     1      25.496  47.081  51.263  1.00  0.00     0.735 A 
HETATM    4  N   UNL     1      24.953  47.627  50.202  1.00  0.00     0.030 NA
HETATM    5  N   UNL     1      25.438  46.912  49.123  1.00  0.00     0.033 NA
HETATM    6  N   UNL     1      26.267  45.950  49.515  1.00  0.00     0.012 NA
HETATM    7  N   UNL     1      25.449  47.390  52.572  1.00  0.00    -0.191 N 
HETATM    8  C   UNL     1      26.170  46.706  53.545  1.00  0.00     0.037 A 
HETATM    9  C   UNL     1      26.009  47.223  54.955  1.00  0.00     0.070 C 
HETATM   10  C   UNL     1      26.970  45.665  53.195  1.00  0.00     0.064 A 
HETATM   11  H   UNL     1      24.873  48.172  52.875  1.00  0.00     0.184 HD
ENDROOT
BRANCH  10  12
HETATM   12  C   UNL     1      27.667  44.858  54.244  1.00  0.00     0.256 C 
HETATM   13  N   UNL     1      28.915  45.331  54.593  1.00  0.00    -0.323 N 
HETATM   14  H   UNL     1      29.291  46.127  54.098  1.00  0.00     0.169 HD
HETATM   15  O   UNL     1      27.118  43.859  54.694  1.00  0.00    -0.267 OA
BRANCH  13  16
HETATM   16  C   UNL     1      29.786  44.795  55.571  1.00  0.00     0.035 A 
HETATM   17  C   UNL     1      30.508  43.612  55.413  1.00  0.00     0.029 A 
HETATM   18  C   UNL     1      31.335  43.143  56.440  1.00  0.00     0.002 A 
HETATM   19  C   UNL     1      31.449  43.855  57.631  1.00  0.00     0.000 A 
HETATM   20  C   UNL     1      30.734  45.037  57.799  1.00  0.00     0.002 A 
HETATM   21  C   UNL     1      29.904  45.503  56.775  1.00  0.00     0.029 A 
ENDBRANCH  13  16
ENDBRANCH  10  12
BRANCH   1  22
HETATM   22  C   UNL     1      26.789  43.764  51.522  1.00  0.00     0.083 A 
HETATM   23  O   UNL     1      27.873  42.931  51.482  1.00  0.00    -0.317 OA
HETATM   24  C   UNL     1      27.401  41.668  51.295  1.00  0.00     0.049 A 
HETATM   25  C   UNL     1      28.409  40.593  51.203  1.00  0.00     0.076 C 
HETATM   26  C   UNL     1      26.025  41.681  51.222  1.00  0.00     0.035 A 
HETATM   27  C   UNL     1      25.628  43.030  51.374  1.00  0.00     0.038 A 
ENDBRANCH   1  22
TORSDOF 3
ENDMDL
MODEL 3
REMARK VINA RESULT:      -8.4      1.393      1.778
REMARK  3 active torsions:
REMARK  status: ('A' for Active; 'I' for Inactive)
REMARK    1  A    between atoms: C_4  and  C_5 
REMARK    2  A    between atoms: C_14  and  C_15 
REMARK       I    between atoms: C_15  and  N_16 
REMARK    3  A    between atoms: N_16  and  C_17 
ROOT
HETATM    1  C   UNL     1      25.589  43.779  51.843  1.00  0.00     0.222 A 
HETATM    2  N   UNL     1      24.501  43.337  50.973  1.00  0.00    -0.090 N 
HETATM    3  C   UNL     1      24.588  42.303  50.087  1.00  0.00     0.735 A 
HETATM    4  N   UNL     1      23.410  42.131  49.538  1.00  0.00     0.030 NA
HETATM    5  N   UNL     1      22.578  43.055  50.141  1.00  0.00     0.033 NA
HETATM    6  N   UNL     1      23.232  43.775  51.047  1.00  0.00     0.012 NA
HETATM    7  N   UNL     1      25.759  41.654  49.951  1.00  0.00    -0.191 N 
HETATM    8  C   UNL     1      26.894  41.962  50.695  1.00  0.00     0.037 A 
HETATM    9  C   UNL     1      28.104  41.100  50.420  1.00  0.00     0.070 C 
HETATM   10  C   UNL     1      26.857  42.963  51.613  1.00  0.00     0.064 A 
HETATM   11  H   UNL     1      25.827  40.889  49.284  1.00  0.00     0.184 HD
ENDROOT
BRANCH  10  12
HETATM   12  C   UNL     1      28.098  43.369  52.343  1.00  0.00     0.256 C 
HETATM   13  N   UNL     1      27.963  43.419  53.715  1.00  0.00    -0.323 N 
HETATM   14  H   UNL     1      27.056  43.242  54.123  1.00  0.00     0.169 HD
HETATM   15  O   UNL     1      29.107  43.640  51.703  1.00  0.00    -0.267 OA
BRANCH  13  16
HETATM   16  C   UNL     1      28.967  43.738  54.658  1.00  0.00     0.035 A 
HETATM   17  C   UNL     1      30.008  42.881  55.016  1.00  0.00     0.029 A 
HETATM   18  C   UNL     1      30.951  43.270  55.974  1.00  0.00     0.002 A 
HETATM   19  C   UNL     1      30.864  44.521  56.578  1.00  0.00     0.000 A 
HETATM   20  C   UNL     1      29.831  45.385  56.228  1.00  0.00     0.002 A 
HETATM   21  C   UNL     1      28.886  44.995  55.275  1.00  0.00     0.029 A 
ENDBRANCH  13  16
ENDBRANCH  10  12
BRANCH   1  22
HETATM   22  C   UNL     1      25.772  45.257  51.704  1.00  0.00     0.083 A 
HETATM   23  O   UNL     1      26.225  45.689  50.489  1.00  0.00    -0.317 OA
HETATM   24  C   UNL     1      26.307  47.046  50.551  1.00  0.00     0.049 A 
HETATM   25  C   UNL     1      26.796  47.736  49.341  1.00  0.00     0.076 C 
HETATM   26  C   UNL     1      25.902  47.490  51.792  1.00  0.00     0.035 A 
HETATM   27  C   UNL     1      25.552  46.338  52.535  1.00  0.00     0.038 A 
ENDBRANCH   1  22
TORSDOF 3
ENDMDL
MODEL 4
REMARK VINA RESULT:      -8.1      2.217      3.470
REMARK  3 active torsions:
REMARK  status: ('A' for Active; 'I' for Inactive)
REMARK    1  A    between atoms: C_4  and  C_5 
REMARK    2  A    between atoms: C_14  and  C_15 
REMARK       I    between atoms: C_15  and  N_16 
REMARK    3  A    between atoms: N_16  and  C_17 
ROOT
HETATM    1  C   UNL     1      26.392  41.749  51.751  1.00  0.00     0.222 A 
HETATM    2  N   UNL     1      26.870  40.826  50.724  1.00  0.00    -0.090 N 
HETATM    3  C   UNL     1      28.168  40.427  50.584  1.00  0.00     0.735 A 
HETATM    4  N   UNL     1      28.224  39.540  49.621  1.00  0.00     0.030 NA
HETATM    5  N   UNL     1      26.920  39.363  49.199  1.00  0.00     0.033 NA
HETATM    6  N   UNL     1      26.081  40.123  49.895  1.00  0.00     0.012 NA
HETATM    7  N   UNL     1      29.103  40.939  51.407  1.00  0.00    -0.191 N 
HETATM    8  C   UNL     1      28.812  41.839  52.427  1.00  0.00     0.037 A 
HETATM    9  C   UNL     1      29.992  42.274  53.264  1.00  0.00     0.070 C 
HETATM   10  C   UNL     1      27.533  42.248  52.632  1.00  0.00     0.064 A 
HETATM   11  H   UNL     1      30.071  40.648  51.297  1.00  0.00     0.184 HD
ENDROOT
BRANCH  10  12
HETATM   12  C   UNL     1      27.225  43.293  53.658  1.00  0.00     0.256 C 
HETATM   13  N   UNL     1      27.479  44.586  53.251  1.00  0.00    -0.323 N 
HETATM   14  H   UNL     1      27.895  44.739  52.343  1.00  0.00     0.169 HD
HETATM   15  O   UNL     1      26.803  42.947  54.756  1.00  0.00    -0.267 OA
BRANCH  13  16
HETATM   16  C   UNL     1      27.257  45.770  53.991  1.00  0.00     0.035 A 
HETATM   17  C   UNL     1      28.012  46.156  55.098  1.00  0.00     0.029 A 
HETATM   18  C   UNL     1      27.712  47.338  55.786  1.00  0.00     0.002 A 
HETATM   19  C   UNL     1      26.658  48.145  55.367  1.00  0.00     0.000 A 
HETATM   20  C   UNL     1      25.898  47.771  54.263  1.00  0.00     0.002 A 
HETATM   21  C   UNL     1      26.194  46.588  53.580  1.00  0.00     0.029 A 
ENDBRANCH  13  16
ENDBRANCH  10  12
BRANCH   1  22
HETATM   22  C   UNL     1      25.585  42.834  51.112  1.00  0.00     0.083 A 
HETATM   23  O   UNL     1      26.289  43.924  50.682  1.00  0.00    -0.317 OA
HETATM   24  C   UNL     1      25.395  44.782  50.118  1.00  0.00     0.049 A 
HETATM   25  C   UNL     1      25.937  46.052  49.593  1.00  0.00     0.076 C 
HETATM   26  C   UNL     1      24.125  44.249  50.174  1.00  0.00     0.035 A 
HETATM   27  C   UNL     1      24.247  42.991  50.809  1.00  0.00     0.038 A 
ENDBRANCH   1  22
TORSDOF 3
ENDMDL
MODEL 5
REMARK VINA RESULT:      -7.8      2.363      6.777
REMARK  3 active torsions:
REMARK  status: ('A' for Active; 'I' for Inactive)
REMARK    1  A    between atoms: C_4  and  C_5 
REMARK    2  A    between atoms: C_14  and  C_15 
REMARK       I    between atoms: C_15  and  N_16 
REMARK    3  A    between atoms: N_16  and  C_17 
ROOT
HETATM    1  C   UNL     1      28.130  43.916  54.618  1.00  0.00     0.222 A 
HETATM    2  N   UNL     1      29.428  43.923  55.291  1.00  0.00    -0.090 N 
HETATM    3  C   UNL     1      30.039  45.039  55.784  1.00  0.00     0.735 A 
HETATM    4  N   UNL     1      31.141  44.670  56.390  1.00  0.00     0.030 NA
HETATM    5  N   UNL     1      31.173  43.292  56.302  1.00  0.00     0.033 NA
HETATM    6  N   UNL     1      30.108  42.824  55.659  1.00  0.00     0.012 NA
HETATM    7  N   UNL     1      29.450  46.237  55.614  1.00  0.00    -0.191 N 
HETATM    8  C   UNL     1      28.221  46.402  54.983  1.00  0.00     0.037 A 
HETATM    9  C   UNL     1      27.712  47.823  54.917  1.00  0.00     0.070 C 
HETATM   10  C   UNL     1      27.553  45.323  54.499  1.00  0.00     0.064 A 
HETATM   11  H   UNL     1      29.911  47.070  55.974  1.00  0.00     0.184 HD
ENDROOT
BRANCH  10  12
HETATM   12  C   UNL     1      26.283  45.500  53.729  1.00  0.00     0.256 C 
HETATM   13  N   UNL     1      26.456  45.671  52.372  1.00  0.00    -0.323 N 
HETATM   14  H   UNL     1      27.395  45.722  52.002  1.00  0.00     0.169 HD
HETATM   15  O   UNL     1      25.214  45.502  54.330  1.00  0.00    -0.267 OA
BRANCH  13  16
HETATM   16  C   UNL     1      25.443  45.828  51.397  1.00  0.00     0.035 A 
HETATM   17  C   UNL     1      24.693  44.777  50.868  1.00  0.00     0.029 A 
HETATM   18  C   UNL     1      23.721  45.019  49.892  1.00  0.00     0.002 A 
HETATM   19  C   UNL     1      23.487  46.315  49.440  1.00  0.00     0.000 A 
HETATM   20  C   UNL     1      24.227  47.372  49.962  1.00  0.00     0.002 A 
HETATM   21  C   UNL     1      25.202  47.129  50.933  1.00  0.00     0.029 A 
ENDBRANCH  13  16
ENDBRANCH  10  12
BRANCH   1  22
HETATM   22  C   UNL     1      28.243  43.183  53.320  1.00  0.00     0.083 A 
HETATM   23  O   UNL     1      27.085  42.632  52.845  1.00  0.00    -0.317 OA
HETATM   24  C   UNL     1      27.383  42.032  51.661  1.00  0.00     0.049 A 
HETATM   25  C   UNL     1      26.273  41.348  50.968  1.00  0.00     0.076 C 
HETATM   26  C   UNL     1      28.718  42.201  51.365  1.00  0.00     0.035 A 
HETATM   27  C   UNL     1      29.273  42.947  52.431  1.00  0.00     0.038 A 
ENDBRANCH   1  22
TORSDOF 3
ENDMDL
MODEL 6
REMARK VINA RESULT:      -7.8     13.268     15.329
REMARK  3 active torsions:
REMARK  status: ('A' for Active; 'I' for Inactive)
REMARK    1  A    between atoms: C_4  and  C_5 
REMARK    2  A    between atoms: C_14  and  C_15 
REMARK       I    between atoms: C_15  and  N_16 
REMARK    3  A    between atoms: N_16  and  C_17 
ROOT
HETATM    1  C   UNL     1      31.769  50.649  39.072  1.00  0.00     0.222 A 
HETATM    2  N   UNL     1      32.838  51.506  39.579  1.00  0.00    -0.090 N 
HETATM    3  C   UNL     1      33.695  51.164  40.586  1.00  0.00     0.735 A 
HETATM    4  N   UNL     1      34.572  52.128  40.724  1.00  0.00     0.030 NA
HETATM    5  N   UNL     1      34.266  53.056  39.747  1.00  0.00     0.033 NA
HETATM    6  N   UNL     1      33.226  52.665  39.019  1.00  0.00     0.012 NA
HETATM    7  N   UNL     1      33.539  49.978  41.203  1.00  0.00    -0.191 N 
HETATM    8  C   UNL     1      32.561  49.055  40.847  1.00  0.00     0.037 A 
HETATM    9  C   UNL     1      32.567  47.767  41.639  1.00  0.00     0.070 C 
HETATM   10  C   UNL     1      31.700  49.329  39.834  1.00  0.00     0.064 A 
HETATM   11  H   UNL     1      34.172  49.727  41.958  1.00  0.00     0.184 HD
ENDROOT
BRANCH  10  12
HETATM   12  C   UNL     1      30.581  48.389  39.513  1.00  0.00     0.256 C 
HETATM   13  N   UNL     1      29.464  48.538  40.307  1.00  0.00    -0.323 N 
HETATM   14  H   UNL     1      29.489  49.206  41.065  1.00  0.00     0.169 HD
HETATM   15  O   UNL     1      30.729  47.568  38.615  1.00  0.00    -0.267 OA
BRANCH  13  16
HETATM   16  C   UNL     1      28.251  47.815  40.215  1.00  0.00     0.035 A 
HETATM   17  C   UNL     1      28.127  46.454  40.492  1.00  0.00     0.029 A 
HETATM   18  C   UNL     1      26.891  45.811  40.357  1.00  0.00     0.002 A 
HETATM   19  C   UNL     1      25.768  46.527  39.950  1.00  0.00     0.000 A 
HETATM   20  C   UNL     1      25.880  47.887  39.673  1.00  0.00     0.002 A 
HETATM   21  C   UNL     1      27.116  48.526  39.802  1.00  0.00     0.029 A 
ENDBRANCH  13  16
ENDBRANCH  10  12
BRANCH   1  22
HETATM   22  C   UNL     1      30.484  51.415  39.045  1.00  0.00     0.083 A 
HETATM   23  O   UNL     1      29.881  51.608  40.256  1.00  0.00    -0.317 OA
HETATM   24  C   UNL     1      28.751  52.333  40.030  1.00  0.00     0.049 A 
HETATM   25  C   UNL     1      27.920  52.649  41.209  1.00  0.00     0.076 C 
HETATM   26  C   UNL     1      28.628  52.614  38.686  1.00  0.00     0.035 A 
HETATM   27  C   UNL     1      29.748  52.027  38.050  1.00  0.00     0.038 A 
ENDBRANCH   1  22
TORSDOF 3
ENDMDL
MODEL 7
REMARK VINA RESULT:      -7.8      1.780      2.437
REMARK  3 active torsions:
REMARK  status: ('A' for Active; 'I' for Inactive)
REMARK    1  A    between atoms: C_4  and  C_5 
REMARK    2  A    between atoms: C_14  and  C_15 
REMARK       I    between atoms: C_15  and  N_16 
REMARK    3  A    between atoms: N_16  and  C_17 
ROOT
HETATM    1  C   UNL     1      25.732  41.761  50.973  1.00  0.00     0.222 A 
HETATM    2  N   UNL     1      25.347  41.334  49.630  1.00  0.00    -0.090 N 
HETATM    3  C   UNL     1      26.077  40.487  48.847  1.00  0.00     0.735 A 
HETATM    4  N   UNL     1      25.401  40.258  47.748  1.00  0.00     0.030 NA
HETATM    5  N   UNL     1      24.211  40.945  47.890  1.00  0.00     0.033 NA
HETATM    6  N   UNL     1      24.157  41.580  49.057  1.00  0.00     0.012 NA
HETATM    7  N   UNL     1      27.261  40.033  49.300  1.00  0.00    -0.191 N 
HETATM    8  C   UNL     1      27.775  40.357  50.552  1.00  0.00     0.037 A 
HETATM    9  C   UNL     1      29.104  39.724  50.890  1.00  0.00     0.070 C 
HETATM   10  C   UNL     1      27.077  41.172  51.385  1.00  0.00     0.064 A 
HETATM   11  H   UNL     1      27.809  39.410  48.713  1.00  0.00     0.184 HD
ENDROOT
BRANCH  10  12
HETATM   12  C   UNL     1      27.667  41.608  52.689  1.00  0.00     0.256 C 
HETATM   13  N   UNL     1      28.293  42.837  52.650  1.00  0.00    -0.323 N 
HETATM   14  H   UNL     1      28.363  43.321  51.767  1.00  0.00     0.169 HD
HETATM   15  O   UNL     1      27.579  40.869  53.663  1.00  0.00    -0.267 OA
BRANCH  13  16
HETATM   16  C   UNL     1      28.908  43.513  53.729  1.00  0.00     0.035 A 
HETATM   17  C   UNL     1      28.423  44.693  54.294  1.00  0.00     0.029 A 
HETATM   18  C   UNL     1      29.105  45.308  55.350  1.00  0.00     0.002 A 
HETATM   19  C   UNL     1      30.276  44.745  55.852  1.00  0.00     0.000 A 
HETATM   20  C   UNL     1      30.768  43.567  55.298  1.00  0.00     0.002 A 
HETATM   21  C   UNL     1      30.089  42.956  54.240  1.00  0.00     0.029 A 
ENDBRANCH  13  16
ENDBRANCH  10  12
BRANCH   1  22
HETATM   22  C   UNL     1      25.655  43.252  51.066  1.00  0.00     0.083 A 
HETATM   23  O   UNL     1      26.471  43.943  50.215  1.00  0.00    -0.317 OA
HETATM   24  C   UNL     1      26.247  45.268  50.432  1.00  0.00     0.049 A 
HETATM   25  C   UNL     1      27.042  46.215  49.625  1.00  0.00     0.076 C 
HETATM   26  C   UNL     1      25.288  45.433  51.408  1.00  0.00     0.035 A 
HETATM   27  C   UNL     1      24.901  44.134  51.814  1.00  0.00     0.038 A 
ENDBRANCH   1  22
TORSDOF 3
ENDMDL
MODEL 8
REMARK VINA RESULT:      -7.6      5.347      8.886
REMARK  3 active torsions:
REMARK  status: ('A' for Active; 'I' for Inactive)
REMARK    1  A    between atoms: C_4  and  C_5 
REMARK    2  A    between atoms: C_14  and  C_15 
REMARK       I    between atoms: C_15  and  N_16 
REMARK    3  A    between atoms: N_16  and  C_17 
ROOT
HETATM    1  C   UNL     1      23.553  46.294  49.686  1.00  0.00     0.222 A 
HETATM    2  N   UNL     1      24.788  45.599  50.042  1.00  0.00    -0.090 N 
HETATM    3  C   UNL     1      26.032  46.159  50.002  1.00  0.00     0.735 A 
HETATM    4  N   UNL     1      26.892  45.284  50.462  1.00  0.00     0.030 NA
HETATM    5  N   UNL     1      26.143  44.183  50.832  1.00  0.00     0.033 NA
HETATM    6  N   UNL     1      24.848  44.382  50.610  1.00  0.00     0.012 NA
HETATM    7  N   UNL     1      26.166  47.425  49.566  1.00  0.00    -0.191 N 
HETATM    8  C   UNL     1      25.090  48.217  49.177  1.00  0.00     0.037 A 
HETATM    9  C   UNL     1      25.441  49.623  48.747  1.00  0.00     0.070 C 
HETATM   10  C   UNL     1      23.826  47.722  49.224  1.00  0.00     0.064 A 
HETATM   11  H   UNL     1      27.094  47.840  49.527  1.00  0.00     0.184 HD
ENDROOT
BRANCH  10  12
HETATM   12  C   UNL     1      22.675  48.529  48.712  1.00  0.00     0.256 C 
HETATM   13  N   UNL     1      22.035  49.285  49.672  1.00  0.00    -0.323 N 
HETATM   14  H   UNL     1      22.334  49.206  50.634  1.00  0.00     0.169 HD
HETATM   15  O   UNL     1      22.373  48.455  47.526  1.00  0.00    -0.267 OA
BRANCH  13  16
HETATM   16  C   UNL     1      20.943  50.162  49.476  1.00  0.00     0.035 A 
HETATM   17  C   UNL     1      20.964  51.260  48.615  1.00  0.00     0.029 A 
HETATM   18  C   UNL     1      19.844  52.089  48.494  1.00  0.00     0.002 A 
HETATM   19  C   UNL     1      18.692  51.825  49.231  1.00  0.00     0.000 A 
HETATM   20  C   UNL     1      18.659  50.733  50.092  1.00  0.00     0.002 A 
HETATM   21  C   UNL     1      19.780  49.907  50.216  1.00  0.00     0.029 A 
ENDBRANCH  13  16
ENDBRANCH  10  12
BRANCH   1  22
HETATM   22  C   UNL     1      22.776  45.468  48.711  1.00  0.00     0.083 A 
HETATM   23  O   UNL     1      23.458  45.063  47.597  1.00  0.00    -0.317 OA
HETATM   24  C   UNL     1      22.601  44.316  46.851  1.00  0.00     0.049 A 
HETATM   25  C   UNL     1      23.124  43.782  45.577  1.00  0.00     0.076 C 
HETATM   26  C   UNL     1      21.377  44.229  47.479  1.00  0.00     0.035 A 
HETATM   27  C   UNL     1      21.490  44.966  48.681  1.00  0.00     0.038 A 
ENDBRANCH   1  22
TORSDOF 3
ENDMDL
MODEL 9
REMARK VINA RESULT:      -7.5      2.301      4.783
REMARK  3 active torsions:
REMARK  status: ('A' for Active; 'I' for Inactive)
REMARK    1  A    between atoms: C_4  and  C_5 
REMARK    2  A    between atoms: C_14  and  C_15 
REMARK       I    between atoms: C_15  and  N_16 
REMARK    3  A    between atoms: N_16  and  C_17 
ROOT
HETATM    1  C   UNL     1      25.691  42.669  48.857  1.00  0.00     0.222 A 
HETATM    2  N   UNL     1      24.353  42.446  48.315  1.00  0.00    -0.090 N 
HETATM    3  C   UNL     1      23.233  43.120  48.710  1.00  0.00     0.735 A 
HETATM    4  N   UNL     1      22.232  42.728  47.962  1.00  0.00     0.030 NA
HETATM    5  N   UNL     1      22.767  41.828  47.060  1.00  0.00     0.033 NA
HETATM    6  N   UNL     1      24.074  41.676  47.249  1.00  0.00     0.012 NA
HETATM    7  N   UNL     1      23.331  44.028  49.698  1.00  0.00    -0.191 N 
HETATM    8  C   UNL     1      24.531  44.346  50.328  1.00  0.00     0.037 A 
HETATM    9  C   UNL     1      24.441  45.413  51.393  1.00  0.00     0.070 C 
HETATM   10  C   UNL     1      25.681  43.728  49.955  1.00  0.00     0.064 A 
HETATM   11  H   UNL     1      22.496  44.524  49.999  1.00  0.00     0.184 HD
ENDROOT
BRANCH  10  12
HETATM   12  C   UNL     1      26.956  43.987  50.694  1.00  0.00     0.256 C 
HETATM   13  N   UNL     1      27.040  43.368  51.923  1.00  0.00    -0.323 N 
HETATM   14  H   UNL     1      26.244  42.845  52.262  1.00  0.00     0.169 HD
HETATM   15  O   UNL     1      27.801  44.718  50.191  1.00  0.00    -0.267 OA
BRANCH  13  16
HETATM   16  C   UNL     1      28.130  43.406  52.824  1.00  0.00     0.035 A 
HETATM   17  C   UNL     1      28.165  44.185  53.980  1.00  0.00     0.029 A 
HETATM   18  C   UNL     1      29.294  44.178  54.808  1.00  0.00     0.002 A 
HETATM   19  C   UNL     1      30.394  43.388  54.487  1.00  0.00     0.000 A 
HETATM   20  C   UNL     1      30.370  42.605  53.337  1.00  0.00     0.002 A 
HETATM   21  C   UNL     1      29.245  42.616  52.508  1.00  0.00     0.029 A 
ENDBRANCH  13  16
ENDBRANCH  10  12
BRANCH   1  22
HETATM   22  C   UNL     1      26.289  41.360  49.266  1.00  0.00     0.083 A 
HETATM   23  O   UNL     1      27.486  41.046  48.684  1.00  0.00    -0.317 OA
HETATM   24  C   UNL     1      27.875  39.844  49.191  1.00  0.00     0.049 A 
HETATM   25  C   UNL     1      29.147  39.293  48.685  1.00  0.00     0.076 C 
HETATM   26  C   UNL     1      26.944  39.389  50.100  1.00  0.00     0.035 A 
HETATM   27  C   UNL     1      25.924  40.368  50.154  1.00  0.00     0.038 A 
ENDBRANCH   1  22
TORSDOF 3
ENDMDL
MODEL 10
REMARK VINA RESULT:      -7.5     13.476     15.376
REMARK  3 active torsions:
REMARK  status: ('A' for Active; 'I' for Inactive)
REMARK    1  A    between atoms: C_4  and  C_5 
REMARK    2  A    between atoms: C_14  and  C_15 
REMARK       I    between atoms: C_15  and  N_16 
REMARK    3  A    between atoms: N_16  and  C_17 
ROOT
HETATM    1  C   UNL     1      29.289  49.429  39.214  1.00  0.00     0.222 A 
HETATM    2  N   UNL     1      27.854  49.270  39.442  1.00  0.00    -0.090 N 
HETATM    3  C   UNL     1      26.914  50.217  39.155  1.00  0.00     0.735 A 
HETATM    4  N   UNL     1      25.731  49.712  39.407  1.00  0.00     0.030 NA
HETATM    5  N   UNL     1      25.959  48.411  39.814  1.00  0.00     0.033 NA
HETATM    6  N   UNL     1      27.256  48.122  39.805  1.00  0.00     0.012 NA
HETATM    7  N   UNL     1      27.312  51.407  38.667  1.00  0.00    -0.191 N 
HETATM    8  C   UNL     1      28.642  51.720  38.407  1.00  0.00     0.037 A 
HETATM    9  C   UNL     1      28.884  53.097  37.833  1.00  0.00     0.070 C 
HETATM   10  C   UNL     1      29.617  50.805  38.646  1.00  0.00     0.064 A 
HETATM   11  H   UNL     1      26.612  52.115  38.461  1.00  0.00     0.184 HD
ENDROOT
BRANCH  10  12
HETATM   12  C   UNL     1      31.058  51.168  38.467  1.00  0.00     0.256 C 
HETATM   13  N   UNL     1      31.695  51.564  39.624  1.00  0.00    -0.323 N 
HETATM   14  H   UNL     1      31.158  51.638  40.477  1.00  0.00     0.169 HD
HETATM   15  O   UNL     1      31.555  51.111  37.348  1.00  0.00    -0.267 OA
BRANCH  13  16
HETATM   16  C   UNL     1      33.054  51.931  39.765  1.00  0.00     0.035 A 
HETATM   17  C   UNL     1      33.595  53.129  39.297  1.00  0.00     0.029 A 
HETATM   18  C   UNL     1      34.956  53.407  39.462  1.00  0.00     0.002 A 
HETATM   19  C   UNL     1      35.787  52.489  40.100  1.00  0.00     0.000 A 
HETATM   20  C   UNL     1      35.259  51.292  40.572  1.00  0.00     0.002 A 
HETATM   21  C   UNL     1      33.900  51.013  40.402  1.00  0.00     0.029 A 
ENDBRANCH  13  16
ENDBRANCH  10  12
BRANCH   1  22
HETATM   22  C   UNL     1      30.035  49.081  40.463  1.00  0.00     0.083 A 
HETATM   23  O   UNL     1      31.248  48.476  40.282  1.00  0.00    -0.317 OA
HETATM   24  C   UNL     1      31.776  48.259  41.517  1.00  0.00     0.049 A 
HETATM   25  C   UNL     1      33.093  47.592  41.566  1.00  0.00     0.076 C 
HETATM   26  C   UNL     1      30.919  48.728  42.489  1.00  0.00     0.035 A 
HETATM   27  C   UNL     1      29.798  49.263  41.811  1.00  0.00     0.038 A 
ENDBRANCH   1  22
TORSDOF 3
ENDMDL
