MODEL 1
REMARK VINA RESULT:      -8.4      0.000      0.000
REMARK  6 active torsions:
REMARK  status: ('A' for Active; 'I' for Inactive)
REMARK    1  A    between atoms: C_2  and  O_3 
REMARK    2  A    between atoms: O_3  and  C_4 
REMARK    3  A    between atoms: C_7  and  N_8 
REMARK    4  A    between atoms: N_8  and  C_9 
REMARK    5  A    between atoms: C_9  and  C_10 
REMARK    6  A    between atoms: C_18  and  O_19 
ROOT
HETATM    1  C   UNL     1      27.529  43.231  51.796  1.00  0.00     0.024 A 
HETATM    2  C   UNL     1      28.522  42.110  51.798  1.00  0.00     0.253 A 
HETATM    3  O   UNL     1      28.498  41.228  50.944  1.00  0.00    -0.268 OA
HETATM    4  N   UNL     1      29.465  42.104  52.792  1.00  0.00    -0.322 N 
HETATM    5  C   UNL     1      29.549  43.081  53.788  1.00  0.00     0.045 A 
HETATM    6  C   UNL     1      28.618  44.122  53.800  1.00  0.00    -0.006 A 
HETATM    7  C   UNL     1      30.555  43.018  54.750  1.00  0.00     0.033 A 
HETATM    8  C   UNL     1      30.642  44.014  55.728  1.00  0.00     0.039 A 
HETATM    9  C   UNL     1      29.725  45.067  55.744  1.00  0.00     0.069 A 
HETATM   10  C   UNL     1      28.708  45.110  54.784  1.00  0.00     0.050 A 
HETATM   11  C   UNL     1      27.581  44.160  52.770  1.00  0.00     0.027 A 
HETATM   12  H   UNL     1      30.125  41.339  52.768  1.00  0.00     0.169 HD
ENDROOT
BRANCH   1  13
HETATM   13  C   UNL     1      26.548  43.172  50.652  1.00  0.00     0.136 C 
BRANCH  13  14
HETATM   14  N   UNL     1      26.860  44.179  49.637  1.00  0.00    -0.289 NA
HETATM   15  H   UNL     1      26.916  43.780  48.703  1.00  0.00     0.128 HD
BRANCH  14  16
HETATM   16  C   UNL     1      26.141  45.379  49.593  1.00  0.00     0.008 A 
HETATM   17  C   UNL     1      26.857  46.577  49.732  1.00  0.00     0.026 A 
HETATM   18  C   UNL     1      26.216  47.822  49.753  1.00  0.00     0.038 A 
HETATM   19  C   UNL     1      24.831  47.892  49.648  1.00  0.00     0.068 A 
HETATM   20  C   UNL     1      24.103  46.709  49.542  1.00  0.00     0.038 A 
HETATM   21  C   UNL     1      24.748  45.464  49.534  1.00  0.00     0.026 A 
BRANCH  19  22
HETATM   22  O   UNL     1      24.080  49.035  49.642  1.00  0.00    -0.352 OA
BRANCH  22  23
HETATM   23  C   UNL     1      23.267  49.267  48.494  1.00  0.00     0.171 C 
HETATM   24  C   UNL     1      23.335  50.747  48.160  1.00  0.00     0.034 C 
ENDBRANCH  22  23
ENDBRANCH  19  22
ENDBRANCH  14  16
ENDBRANCH  13  14
ENDBRANCH   1  13
BRANCH   9  25
HETATM   25  O   UNL     1      29.708  46.103  56.637  1.00  0.00    -0.356 OA
HETATM   26  C   UNL     1      30.289  45.862  57.913  1.00  0.00     0.210 C 
ENDBRANCH   9  25
TORSDOF 6
ENDMDL
MODEL 2
REMARK VINA RESULT:      -8.3      2.280      2.962
REMARK  6 active torsions:
REMARK  status: ('A' for Active; 'I' for Inactive)
REMARK    1  A    between atoms: C_2  and  O_3 
REMARK    2  A    between atoms: O_3  and  C_4 
REMARK    3  A    between atoms: C_7  and  N_8 
REMARK    4  A    between atoms: N_8  and  C_9 
REMARK    5  A    between atoms: C_9  and  C_10 
REMARK    6  A    between atoms: C_18  and  O_19 
ROOT
HETATM    1  C   UNL     1      26.566  45.388  52.805  1.00  0.00     0.024 A 
HETATM    2  C   UNL     1      26.446  46.682  53.548  1.00  0.00     0.253 A 
HETATM    3  O   UNL     1      25.597  47.518  53.251  1.00  0.00    -0.268 OA
HETATM    4  N   UNL     1      27.322  46.902  54.578  1.00  0.00    -0.322 N 
HETATM    5  C   UNL     1      28.305  45.989  54.969  1.00  0.00     0.045 A 
HETATM    6  C   UNL     1      28.431  44.786  54.272  1.00  0.00    -0.006 A 
HETATM    7  C   UNL     1      29.142  46.277  56.045  1.00  0.00     0.033 A 
HETATM    8  C   UNL     1      30.108  45.345  56.441  1.00  0.00     0.039 A 
HETATM    9  C   UNL     1      30.236  44.133  55.760  1.00  0.00     0.069 A 
HETATM   10  C   UNL     1      29.403  43.863  54.669  1.00  0.00     0.050 A 
HETATM   11  C   UNL     1      27.531  44.515  53.152  1.00  0.00     0.027 A 
HETATM   12  H   UNL     1      27.217  47.782  55.065  1.00  0.00     0.169 HD
ENDROOT
BRANCH   1  13
HETATM   13  C   UNL     1      25.546  45.220  51.708  1.00  0.00     0.136 C 
BRANCH  13  14
HETATM   14  N   UNL     1      26.036  45.768  50.442  1.00  0.00    -0.289 NA
HETATM   15  H   UNL     1      26.148  45.051  49.730  1.00  0.00     0.128 HD
BRANCH  14  16
HETATM   16  C   UNL     1      25.425  46.895  49.882  1.00  0.00     0.008 A 
HETATM   17  C   UNL     1      26.252  47.956  49.480  1.00  0.00     0.026 A 
HETATM   18  C   UNL     1      25.726  49.144  48.958  1.00  0.00     0.038 A 
HETATM   19  C   UNL     1      24.349  49.301  48.838  1.00  0.00     0.068 A 
HETATM   20  C   UNL     1      23.514  48.269  49.262  1.00  0.00     0.038 A 
HETATM   21  C   UNL     1      24.044  47.087  49.797  1.00  0.00     0.026 A 
BRANCH  19  22
HETATM   22  O   UNL     1      23.704  50.397  48.336  1.00  0.00    -0.352 OA
BRANCH  22  23
HETATM   23  C   UNL     1      22.753  51.034  49.187  1.00  0.00     0.171 C 
HETATM   24  C   UNL     1      21.443  51.146  48.428  1.00  0.00     0.034 C 
ENDBRANCH  22  23
ENDBRANCH  19  22
ENDBRANCH  14  16
ENDBRANCH  13  14
ENDBRANCH   1  13
BRANCH   9  25
HETATM   25  O   UNL     1      31.129  43.139  56.053  1.00  0.00    -0.356 OA
HETATM   26  C   UNL     1      31.922  43.310  57.222  1.00  0.00     0.210 C 
ENDBRANCH   9  25
TORSDOF 6
ENDMDL
MODEL 3
REMARK VINA RESULT:      -7.8      1.112      1.456
REMARK  6 active torsions:
REMARK  status: ('A' for Active; 'I' for Inactive)
REMARK    1  A    between atoms: C_2  and  O_3 
REMARK    2  A    between atoms: O_3  and  C_4 
REMARK    3  A    between atoms: C_7  and  N_8 
REMARK    4  A    between atoms: N_8  and  C_9 
REMARK    5  A    between atoms: C_9  and  C_10 
REMARK    6  A    between atoms: C_18  and  O_19 
ROOT
HETATM    1  C   UNL     1      27.328  43.334  52.371  1.00  0.00     0.024 A 
HETATM    2  C   UNL     1      28.338  42.233  52.267  1.00  0.00     0.253 A 
HETATM    3  O   UNL     1      28.249  41.357  51.411  1.00  0.00    -0.268 OA
HETATM    4  N   UNL     1      29.372  42.239  53.166  1.00  0.00    -0.322 N 
HETATM    5  C   UNL     1      29.533  43.211  54.157  1.00  0.00     0.045 A 
HETATM    6  C   UNL     1      28.587  44.233  54.268  1.00  0.00    -0.006 A 
HETATM    7  C   UNL     1      30.628  43.161  55.017  1.00  0.00     0.033 A 
HETATM    8  C   UNL     1      30.790  44.152  55.992  1.00  0.00     0.039 A 
HETATM    9  C   UNL     1      29.858  45.186  56.105  1.00  0.00     0.069 A 
HETATM   10  C   UNL     1      28.753  45.216  55.248  1.00  0.00     0.050 A 
HETATM   11  C   UNL     1      27.455  44.257  53.343  1.00  0.00     0.027 A 
HETATM   12  H   UNL     1      30.042  41.487  53.072  1.00  0.00     0.169 HD
ENDROOT
BRANCH   1  13
HETATM   13  C   UNL     1      26.243  43.264  51.326  1.00  0.00     0.136 C 
BRANCH  13  14
HETATM   14  N   UNL     1      25.059  44.016  51.743  1.00  0.00    -0.289 NA
HETATM   15  H   UNL     1      25.095  44.276  52.726  1.00  0.00     0.128 HD
BRANCH  14  16
HETATM   16  C   UNL     1      24.617  45.106  50.985  1.00  0.00     0.008 A 
HETATM   17  C   UNL     1      23.763  44.847  49.902  1.00  0.00     0.026 A 
HETATM   18  C   UNL     1      23.312  45.868  49.057  1.00  0.00     0.038 A 
HETATM   19  C   UNL     1      23.722  47.180  49.272  1.00  0.00     0.068 A 
HETATM   20  C   UNL     1      24.595  47.449  50.324  1.00  0.00     0.038 A 
HETATM   21  C   UNL     1      25.054  46.421  51.160  1.00  0.00     0.026 A 
BRANCH  19  22
HETATM   22  O   UNL     1      23.351  48.271  48.536  1.00  0.00    -0.352 OA
BRANCH  22  23
HETATM   23  C   UNL     1      24.063  49.483  48.773  1.00  0.00     0.171 C 
HETATM   24  C   UNL     1      23.433  50.573  47.925  1.00  0.00     0.034 C 
ENDBRANCH  22  23
ENDBRANCH  19  22
ENDBRANCH  14  16
ENDBRANCH  13  14
ENDBRANCH   1  13
BRANCH   9  25
HETATM   25  O   UNL     1      29.908  46.215  57.004  1.00  0.00    -0.356 OA
HETATM   26  C   UNL     1      30.575  45.963  58.235  1.00  0.00     0.210 C 
ENDBRANCH   9  25
TORSDOF 6
ENDMDL
MODEL 4
REMARK VINA RESULT:      -7.8      2.722      8.890
REMARK  6 active torsions:
REMARK  status: ('A' for Active; 'I' for Inactive)
REMARK    1  A    between atoms: C_2  and  O_3 
REMARK    2  A    between atoms: O_3  and  C_4 
REMARK    3  A    between atoms: C_7  and  N_8 
REMARK    4  A    between atoms: N_8  and  C_9 
REMARK    5  A    between atoms: C_9  and  C_10 
REMARK    6  A    between atoms: C_18  and  O_19 
ROOT
HETATM    1  C   UNL     1      25.609  47.436  49.972  1.00  0.00     0.024 A 
HETATM    2  C   UNL     1      26.381  48.553  49.342  1.00  0.00     0.253 A 
HETATM    3  O   UNL     1      27.608  48.587  49.378  1.00  0.00    -0.268 OA
HETATM    4  N   UNL     1      25.665  49.542  48.719  1.00  0.00    -0.322 N 
HETATM    5  C   UNL     1      24.270  49.556  48.639  1.00  0.00     0.045 A 
HETATM    6  C   UNL     1      23.544  48.524  49.236  1.00  0.00    -0.006 A 
HETATM    7  C   UNL     1      23.618  50.586  47.964  1.00  0.00     0.033 A 
HETATM    8  C   UNL     1      22.222  50.578  47.871  1.00  0.00     0.039 A 
HETATM    9  C   UNL     1      21.484  49.545  48.453  1.00  0.00     0.069 A 
HETATM   10  C   UNL     1      22.149  48.527  49.144  1.00  0.00     0.050 A 
HETATM   11  C   UNL     1      24.263  47.457  49.929  1.00  0.00     0.027 A 
HETATM   12  H   UNL     1      26.211  50.282  48.299  1.00  0.00     0.169 HD
ENDROOT
BRANCH   1  13
HETATM   13  C   UNL     1      26.477  46.380  50.610  1.00  0.00     0.136 C 
BRANCH  13  14
HETATM   14  N   UNL     1      25.854  45.844  51.821  1.00  0.00    -0.289 NA
HETATM   15  H   UNL     1      25.508  44.897  51.688  1.00  0.00     0.128 HD
BRANCH  14  16
HETATM   16  C   UNL     1      26.516  45.935  53.050  1.00  0.00     0.008 A 
HETATM   17  C   UNL     1      26.531  47.182  53.694  1.00  0.00     0.026 A 
HETATM   18  C   UNL     1      27.213  47.380  54.901  1.00  0.00     0.038 A 
HETATM   19  C   UNL     1      27.910  46.329  55.487  1.00  0.00     0.068 A 
HETATM   20  C   UNL     1      27.930  45.093  54.843  1.00  0.00     0.038 A 
HETATM   21  C   UNL     1      27.258  44.902  53.628  1.00  0.00     0.026 A 
BRANCH  19  22
HETATM   22  O   UNL     1      28.605  46.378  56.664  1.00  0.00    -0.352 OA
BRANCH  22  23
HETATM   23  C   UNL     1      29.942  45.885  56.646  1.00  0.00     0.171 C 
HETATM   24  C   UNL     1      30.332  45.530  58.070  1.00  0.00     0.034 C 
ENDBRANCH  22  23
ENDBRANCH  19  22
ENDBRANCH  14  16
ENDBRANCH  13  14
ENDBRANCH   1  13
BRANCH   9  25
HETATM   25  O   UNL     1      20.122  49.417  48.424  1.00  0.00    -0.356 OA
HETATM   26  C   UNL     1      19.531  48.603  49.429  1.00  0.00     0.210 C 
ENDBRANCH   9  25
TORSDOF 6
ENDMDL
MODEL 5
REMARK VINA RESULT:      -7.6      1.931      7.654
REMARK  6 active torsions:
REMARK  status: ('A' for Active; 'I' for Inactive)
REMARK    1  A    between atoms: C_2  and  O_3 
REMARK    2  A    between atoms: O_3  and  C_4 
REMARK    3  A    between atoms: C_7  and  N_8 
REMARK    4  A    between atoms: N_8  and  C_9 
REMARK    5  A    between atoms: C_9  and  C_10 
REMARK    6  A    between atoms: C_18  and  O_19 
ROOT
HETATM    1  C   UNL     1      25.330  45.187  50.505  1.00  0.00     0.024 A 
HETATM    2  C   UNL     1      26.727  45.526  50.088  1.00  0.00     0.253 A 
HETATM    3  O   UNL     1      27.651  44.729  50.230  1.00  0.00    -0.268 OA
HETATM    4  N   UNL     1      26.940  46.762  49.539  1.00  0.00    -0.322 N 
HETATM    5  C   UNL     1      25.930  47.710  49.346  1.00  0.00     0.045 A 
HETATM    6  C   UNL     1      24.627  47.405  49.745  1.00  0.00    -0.006 A 
HETATM    7  C   UNL     1      26.224  48.937  48.756  1.00  0.00     0.033 A 
HETATM    8  C   UNL     1      25.202  49.868  48.547  1.00  0.00     0.039 A 
HETATM    9  C   UNL     1      23.891  49.572  48.930  1.00  0.00     0.069 A 
HETATM   10  C   UNL     1      23.612  48.343  49.538  1.00  0.00     0.050 A 
HETATM   11  C   UNL     1      24.356  46.104  50.354  1.00  0.00     0.027 A 
HETATM   12  H   UNL     1      27.892  46.964  49.263  1.00  0.00     0.169 HD
ENDROOT
BRANCH   1  13
HETATM   13  C   UNL     1      25.184  43.797  51.073  1.00  0.00     0.136 C 
BRANCH  13  14
HETATM   14  N   UNL     1      25.050  43.834  52.530  1.00  0.00    -0.289 NA
HETATM   15  H   UNL     1      24.734  42.945  52.910  1.00  0.00     0.128 HD
BRANCH  14  16
HETATM   16  C   UNL     1      26.090  44.338  53.318  1.00  0.00     0.008 A 
HETATM   17  C   UNL     1      27.187  43.500  53.568  1.00  0.00     0.026 A 
HETATM   18  C   UNL     1      28.250  43.900  54.389  1.00  0.00     0.038 A 
HETATM   19  C   UNL     1      28.229  45.153  54.991  1.00  0.00     0.068 A 
HETATM   20  C   UNL     1      27.132  45.985  54.777  1.00  0.00     0.038 A 
HETATM   21  C   UNL     1      26.064  45.575  53.966  1.00  0.00     0.026 A 
BRANCH  19  22
HETATM   22  O   UNL     1      29.200  45.675  55.800  1.00  0.00    -0.352 OA
BRANCH  22  23
HETATM   23  C   UNL     1      28.812  46.042  57.122  1.00  0.00     0.171 C 
HETATM   24  C   UNL     1      30.043  45.983  58.008  1.00  0.00     0.034 C 
ENDBRANCH  22  23
ENDBRANCH  19  22
ENDBRANCH  14  16
ENDBRANCH  13  14
ENDBRANCH   1  13
BRANCH   9  25
HETATM   25  O   UNL     1      22.806  50.388  48.772  1.00  0.00    -0.356 OA
HETATM   26  C   UNL     1      22.106  50.764  49.952  1.00  0.00     0.210 C 
ENDBRANCH   9  25
TORSDOF 6
ENDMDL
MODEL 6
REMARK VINA RESULT:      -7.4      2.877      4.384
REMARK  6 active torsions:
REMARK  status: ('A' for Active; 'I' for Inactive)
REMARK    1  A    between atoms: C_2  and  O_3 
REMARK    2  A    between atoms: O_3  and  C_4 
REMARK    3  A    between atoms: C_7  and  N_8 
REMARK    4  A    between atoms: N_8  and  C_9 
REMARK    5  A    between atoms: C_9  and  C_10 
REMARK    6  A    between atoms: C_18  and  O_19 
ROOT
HETATM    1  C   UNL     1      24.810  46.325  51.002  1.00  0.00     0.024 A 
HETATM    2  C   UNL     1      24.503  44.867  51.151  1.00  0.00     0.253 A 
HETATM    3  O   UNL     1      23.773  44.279  50.358  1.00  0.00    -0.268 OA
HETATM    4  N   UNL     1      25.069  44.208  52.211  1.00  0.00    -0.322 N 
HETATM    5  C   UNL     1      25.913  44.819  53.143  1.00  0.00     0.045 A 
HETATM    6  C   UNL     1      26.192  46.181  53.017  1.00  0.00    -0.006 A 
HETATM    7  C   UNL     1      26.470  44.072  54.178  1.00  0.00     0.033 A 
HETATM    8  C   UNL     1      27.331  44.690  55.093  1.00  0.00     0.039 A 
HETATM    9  C   UNL     1      27.628  46.049  54.971  1.00  0.00     0.069 A 
HETATM   10  C   UNL     1      27.048  46.793  53.938  1.00  0.00     0.050 A 
HETATM   11  C   UNL     1      25.594  46.931  51.913  1.00  0.00     0.027 A 
HETATM   12  H   UNL     1      24.849  43.224  52.286  1.00  0.00     0.169 HD
ENDROOT
BRANCH   1  13
HETATM   13  C   UNL     1      24.167  46.961  49.795  1.00  0.00     0.136 C 
BRANCH  13  14
HETATM   14  N   UNL     1      23.830  48.362  50.053  1.00  0.00    -0.289 NA
HETATM   15  H   UNL     1      24.655  48.957  50.080  1.00  0.00     0.128 HD
BRANCH  14  16
HETATM   16  C   UNL     1      22.822  48.989  49.313  1.00  0.00     0.008 A 
HETATM   17  C   UNL     1      22.933  50.371  49.096  1.00  0.00     0.026 A 
HETATM   18  C   UNL     1      21.946  51.092  48.412  1.00  0.00     0.038 A 
HETATM   19  C   UNL     1      20.812  50.441  47.938  1.00  0.00     0.068 A 
HETATM   20  C   UNL     1      20.673  49.075  48.173  1.00  0.00     0.038 A 
HETATM   21  C   UNL     1      21.657  48.359  48.870  1.00  0.00     0.026 A 
BRANCH  19  22
HETATM   22  O   UNL     1      19.782  51.016  47.246  1.00  0.00    -0.352 OA
BRANCH  22  23
HETATM   23  C   UNL     1      18.547  51.175  47.940  1.00  0.00     0.171 C 
HETATM   24  C   UNL     1      18.591  52.500  48.682  1.00  0.00     0.034 C 
ENDBRANCH  22  23
ENDBRANCH  19  22
ENDBRANCH  14  16
ENDBRANCH  13  14
ENDBRANCH   1  13
BRANCH   9  25
HETATM   25  O   UNL     1      28.458  46.765  55.790  1.00  0.00    -0.356 OA
HETATM   26  C   UNL     1      29.051  46.064  56.876  1.00  0.00     0.210 C 
ENDBRANCH   9  25
TORSDOF 6
ENDMDL
MODEL 7
REMARK VINA RESULT:      -7.4      3.257      5.125
REMARK  6 active torsions:
REMARK  status: ('A' for Active; 'I' for Inactive)
REMARK    1  A    between atoms: C_2  and  O_3 
REMARK    2  A    between atoms: O_3  and  C_4 
REMARK    3  A    between atoms: C_7  and  N_8 
REMARK    4  A    between atoms: N_8  and  C_9 
REMARK    5  A    between atoms: C_9  and  C_10 
REMARK    6  A    between atoms: C_18  and  O_19 
ROOT
HETATM    1  C   UNL     1      26.268  45.421  52.853  1.00  0.00     0.024 A 
HETATM    2  C   UNL     1      26.254  46.754  53.536  1.00  0.00     0.253 A 
HETATM    3  O   UNL     1      25.416  47.608  53.260  1.00  0.00    -0.268 OA
HETATM    4  N   UNL     1      27.213  46.987  54.485  1.00  0.00    -0.322 N 
HETATM    5  C   UNL     1      28.188  46.054  54.849  1.00  0.00     0.045 A 
HETATM    6  C   UNL     1      28.215  44.814  54.207  1.00  0.00    -0.006 A 
HETATM    7  C   UNL     1      29.114  46.359  55.843  1.00  0.00     0.033 A 
HETATM    8  C   UNL     1      30.072  45.408  56.214  1.00  0.00     0.039 A 
HETATM    9  C   UNL     1      30.102  44.159  55.589  1.00  0.00     0.069 A 
HETATM   10  C   UNL     1      29.179  43.871  54.578  1.00  0.00     0.050 A 
HETATM   11  C   UNL     1      27.223  44.527  53.172  1.00  0.00     0.027 A 
HETATM   12  H   UNL     1      27.179  47.893  54.932  1.00  0.00     0.169 HD
ENDROOT
BRANCH   1  13
HETATM   13  C   UNL     1      25.161  45.242  51.845  1.00  0.00     0.136 C 
BRANCH  13  14
HETATM   14  N   UNL     1      24.477  43.962  52.033  1.00  0.00    -0.289 NA
HETATM   15  H   UNL     1      23.578  44.070  52.495  1.00  0.00     0.128 HD
BRANCH  14  16
HETATM   16  C   UNL     1      24.350  43.069  50.963  1.00  0.00     0.008 A 
HETATM   17  C   UNL     1      25.441  42.236  50.674  1.00  0.00     0.026 A 
HETATM   18  C   UNL     1      25.425  41.349  49.590  1.00  0.00     0.038 A 
HETATM   19  C   UNL     1      24.312  41.287  48.759  1.00  0.00     0.068 A 
HETATM   20  C   UNL     1      23.233  42.131  49.015  1.00  0.00     0.038 A 
HETATM   21  C   UNL     1      23.259  43.027  50.093  1.00  0.00     0.026 A 
BRANCH  19  22
HETATM   22  O   UNL     1      24.156  40.463  47.678  1.00  0.00    -0.352 OA
BRANCH  22  23
HETATM   23  C   UNL     1      25.337  39.865  47.147  1.00  0.00     0.171 C 
HETATM   24  C   UNL     1      25.805  40.710  45.976  1.00  0.00     0.034 C 
ENDBRANCH  22  23
ENDBRANCH  19  22
ENDBRANCH  14  16
ENDBRANCH  13  14
ENDBRANCH   1  13
BRANCH   9  25
HETATM   25  O   UNL     1      30.977  43.145  55.866  1.00  0.00    -0.356 OA
HETATM   26  C   UNL     1      31.734  43.258  57.064  1.00  0.00     0.210 C 
ENDBRANCH   9  25
TORSDOF 6
ENDMDL
MODEL 8
REMARK VINA RESULT:      -7.4      4.176      6.769
REMARK  6 active torsions:
REMARK  status: ('A' for Active; 'I' for Inactive)
REMARK    1  A    between atoms: C_2  and  O_3 
REMARK    2  A    between atoms: O_3  and  C_4 
REMARK    3  A    between atoms: C_7  and  N_8 
REMARK    4  A    between atoms: N_8  and  C_9 
REMARK    5  A    between atoms: C_9  and  C_10 
REMARK    6  A    between atoms: C_18  and  O_19 
ROOT
HETATM    1  C   UNL     1      28.586  42.162  53.127  1.00  0.00     0.024 A 
HETATM    2  C   UNL     1      27.446  43.006  52.647  1.00  0.00     0.253 A 
HETATM    3  O   UNL     1      26.688  42.618  51.761  1.00  0.00    -0.268 OA
HETATM    4  N   UNL     1      27.276  44.231  53.234  1.00  0.00    -0.322 N 
HETATM    5  C   UNL     1      28.099  44.726  54.249  1.00  0.00     0.045 A 
HETATM    6  C   UNL     1      29.172  43.951  54.693  1.00  0.00    -0.006 A 
HETATM    7  C   UNL     1      27.843  45.974  54.813  1.00  0.00     0.033 A 
HETATM    8  C   UNL     1      28.661  46.449  55.845  1.00  0.00     0.039 A 
HETATM    9  C   UNL     1      29.730  45.678  56.306  1.00  0.00     0.069 A 
HETATM   10  C   UNL     1      29.988  44.435  55.719  1.00  0.00     0.050 A 
HETATM   11  C   UNL     1      29.405  42.643  54.082  1.00  0.00     0.027 A 
HETATM   12  H   UNL     1      26.496  44.778  52.893  1.00  0.00     0.169 HD
ENDROOT
BRANCH   1  13
HETATM   13  C   UNL     1      28.680  40.820  52.445  1.00  0.00     0.136 C 
BRANCH  13  14
HETATM   14  N   UNL     1      28.824  40.973  50.997  1.00  0.00    -0.289 NA
HETATM   15  H   UNL     1      29.752  41.296  50.735  1.00  0.00     0.128 HD
BRANCH  14  16
HETATM   16  C   UNL     1      28.426  39.942  50.139  1.00  0.00     0.008 A 
HETATM   17  C   UNL     1      29.051  38.694  50.282  1.00  0.00     0.026 A 
HETATM   18  C   UNL     1      28.754  37.619  49.434  1.00  0.00     0.038 A 
HETATM   19  C   UNL     1      27.827  37.777  48.410  1.00  0.00     0.068 A 
HETATM   20  C   UNL     1      27.220  39.020  48.236  1.00  0.00     0.038 A 
HETATM   21  C   UNL     1      27.531  40.097  49.078  1.00  0.00     0.026 A 
BRANCH  19  22
HETATM   22  O   UNL     1      27.434  36.814  47.522  1.00  0.00    -0.352 OA
BRANCH  22  23
HETATM   23  C   UNL     1      27.659  37.079  46.139  1.00  0.00     0.171 C 
HETATM   24  C   UNL     1      29.138  36.886  45.858  1.00  0.00     0.034 C 
ENDBRANCH  22  23
ENDBRANCH  19  22
ENDBRANCH  14  16
ENDBRANCH  13  14
ENDBRANCH   1  13
BRANCH   9  25
HETATM   25  O   UNL     1      30.593  46.023  57.310  1.00  0.00    -0.356 OA
HETATM   26  C   UNL     1      30.985  44.989  58.205  1.00  0.00     0.210 C 
ENDBRANCH   9  25
TORSDOF 6
ENDMDL
MODEL 9
REMARK VINA RESULT:      -7.3      3.828     10.383
REMARK  6 active torsions:
REMARK  status: ('A' for Active; 'I' for Inactive)
REMARK    1  A    between atoms: C_2  and  O_3 
REMARK    2  A    between atoms: O_3  and  C_4 
REMARK    3  A    between atoms: C_7  and  N_8 
REMARK    4  A    between atoms: N_8  and  C_9 
REMARK    5  A    between atoms: C_9  and  C_10 
REMARK    6  A    between atoms: C_18  and  O_19 
ROOT
HETATM    1  C   UNL     1      22.480  48.707  49.122  1.00  0.00     0.024 A 
HETATM    2  C   UNL     1      23.043  50.089  49.003  1.00  0.00     0.253 A 
HETATM    3  O   UNL     1      24.253  50.296  49.049  1.00  0.00    -0.268 OA
HETATM    4  N   UNL     1      22.157  51.121  48.840  1.00  0.00    -0.322 N 
HETATM    5  C   UNL     1      20.771  50.950  48.773  1.00  0.00     0.045 A 
HETATM    6  C   UNL     1      20.238  49.665  48.897  1.00  0.00    -0.006 A 
HETATM    7  C   UNL     1      19.938  52.049  48.579  1.00  0.00     0.033 A 
HETATM    8  C   UNL     1      18.554  51.863  48.492  1.00  0.00     0.039 A 
HETATM    9  C   UNL     1      18.009  50.581  48.601  1.00  0.00     0.069 A 
HETATM   10  C   UNL     1      18.854  49.487  48.815  1.00  0.00     0.050 A 
HETATM   11  C   UNL     1      21.145  48.534  49.092  1.00  0.00     0.027 A 
HETATM   12  H   UNL     1      22.564  52.042  48.759  1.00  0.00     0.169 HD
ENDROOT
BRANCH   1  13
HETATM   13  C   UNL     1      23.528  47.633  49.271  1.00  0.00     0.136 C 
BRANCH  13  14
HETATM   14  N   UNL     1      24.305  47.821  50.497  1.00  0.00    -0.289 NA
HETATM   15  H   UNL     1      23.752  48.235  51.244  1.00  0.00     0.128 HD
BRANCH  14  16
HETATM   16  C   UNL     1      25.073  46.769  51.010  1.00  0.00     0.008 A 
HETATM   17  C   UNL     1      25.442  46.827  52.362  1.00  0.00     0.026 A 
HETATM   18  C   UNL     1      26.253  45.846  52.948  1.00  0.00     0.038 A 
HETATM   19  C   UNL     1      26.725  44.786  52.182  1.00  0.00     0.068 A 
HETATM   20  C   UNL     1      26.393  44.732  50.829  1.00  0.00     0.038 A 
HETATM   21  C   UNL     1      25.592  45.722  50.244  1.00  0.00     0.026 A 
BRANCH  19  22
HETATM   22  O   UNL     1      27.510  43.757  52.625  1.00  0.00    -0.352 OA
BRANCH  22  23
HETATM   23  C   UNL     1      28.656  44.106  53.399  1.00  0.00     0.171 C 
HETATM   24  C   UNL     1      29.741  43.081  53.121  1.00  0.00     0.034 C 
ENDBRANCH  22  23
ENDBRANCH  19  22
ENDBRANCH  14  16
ENDBRANCH  13  14
ENDBRANCH   1  13
BRANCH   9  25
HETATM   25  O   UNL     1      16.680  50.266  48.523  1.00  0.00    -0.356 OA
HETATM   26  C   UNL     1      15.754  51.333  48.694  1.00  0.00     0.210 C 
ENDBRANCH   9  25
TORSDOF 6
ENDMDL
MODEL 10
REMARK VINA RESULT:      -7.3      3.305      6.057
REMARK  6 active torsions:
REMARK  status: ('A' for Active; 'I' for Inactive)
REMARK    1  A    between atoms: C_2  and  O_3 
REMARK    2  A    between atoms: O_3  and  C_4 
REMARK    3  A    between atoms: C_7  and  N_8 
REMARK    4  A    between atoms: N_8  and  C_9 
REMARK    5  A    between atoms: C_9  and  C_10 
REMARK    6  A    between atoms: C_18  and  O_19 
ROOT
HETATM    1  C   UNL     1      26.374  44.077  52.579  1.00  0.00     0.024 A 
HETATM    2  C   UNL     1      26.144  45.501  52.980  1.00  0.00     0.253 A 
HETATM    3  O   UNL     1      25.205  46.152  52.530  1.00  0.00    -0.268 OA
HETATM    4  N   UNL     1      27.022  46.055  53.874  1.00  0.00    -0.322 N 
HETATM    5  C   UNL     1      28.105  45.366  54.427  1.00  0.00     0.045 A 
HETATM    6  C   UNL     1      28.333  44.041  54.047  1.00  0.00    -0.006 A 
HETATM    7  C   UNL     1      28.938  45.993  55.350  1.00  0.00     0.033 A 
HETATM    8  C   UNL     1      30.005  45.286  55.914  1.00  0.00     0.039 A 
HETATM    9  C   UNL     1      30.238  43.957  55.552  1.00  0.00     0.069 A 
HETATM   10  C   UNL     1      29.405  43.343  54.610  1.00  0.00     0.050 A 
HETATM   11  C   UNL     1      27.433  43.414  53.081  1.00  0.00     0.027 A 
HETATM   12  H   UNL     1      26.842  47.016  54.130  1.00  0.00     0.169 HD
ENDROOT
BRANCH   1  13
HETATM   13  C   UNL     1      25.345  43.542  51.615  1.00  0.00     0.136 C 
BRANCH  13  14
HETATM   14  N   UNL     1      25.929  43.313  50.293  1.00  0.00    -0.289 NA
HETATM   15  H   UNL     1      26.616  44.021  50.047  1.00  0.00     0.128 HD
BRANCH  14  16
HETATM   16  C   UNL     1      26.417  42.047  49.951  1.00  0.00     0.008 A 
HETATM   17  C   UNL     1      27.226  41.944  48.809  1.00  0.00     0.026 A 
HETATM   18  C   UNL     1      27.717  40.711  48.361  1.00  0.00     0.038 A 
HETATM   19  C   UNL     1      27.394  39.544  49.046  1.00  0.00     0.068 A 
HETATM   20  C   UNL     1      26.565  39.626  50.164  1.00  0.00     0.038 A 
HETATM   21  C   UNL     1      26.066  40.861  50.601  1.00  0.00     0.026 A 
BRANCH  19  22
HETATM   22  O   UNL     1      27.812  38.281  48.729  1.00  0.00    -0.352 OA
BRANCH  22  23
HETATM   23  C   UNL     1      29.213  38.091  48.544  1.00  0.00     0.171 C 
HETATM   24  C   UNL     1      29.843  37.885  49.910  1.00  0.00     0.034 C 
ENDBRANCH  22  23
ENDBRANCH  19  22
ENDBRANCH  14  16
ENDBRANCH  13  14
ENDBRANCH   1  13
BRANCH   9  25
HETATM   25  O   UNL     1      31.236  43.157  56.036  1.00  0.00    -0.356 OA
HETATM   26  C   UNL     1      31.734  43.463  57.333  1.00  0.00     0.210 C 
ENDBRANCH   9  25
TORSDOF 6
ENDMDL
