MODEL 1
REMARK VINA RESULT:      -8.3      0.000      0.000
REMARK  8 active torsions:
REMARK  status: ('A' for Active; 'I' for Inactive)
REMARK    1  A    between atoms: C_2  and  C_3 
REMARK    2  A    between atoms: C_3  and  O_4 
REMARK    3  A    between atoms: O_4  and  C_5 
REMARK    4  A    between atoms: C_6  and  O_7 
REMARK    5  A    between atoms: C_10  and  C_11 
REMARK    6  A    between atoms: C_11  and  N_12 
REMARK    7  A    between atoms: N_12  and  C_13 
REMARK    8  A    between atoms: C_20  and  C_21 
REMARK       I    between atoms: C_21  and  N_22 
ROOT
HETATM    1  C   UNL     1      25.424  46.989  50.646  1.00  0.00     0.009 A 
HETATM    2  C   UNL     1      24.230  47.497  50.103  1.00  0.00     0.039 A 
HETATM    3  C   UNL     1      24.261  48.522  49.134  1.00  0.00     0.030 A 
HETATM    4  C   UNL     1      25.490  49.042  48.755  1.00  0.00     0.063 A 
HETATM    5  N   UNL     1      25.206  50.007  47.831  1.00  0.00    -0.277 N 
HETATM    6  H   UNL     1      25.866  50.602  47.343  1.00  0.00     0.189 HD
HETATM    7  N   UNL     1      23.897  50.159  47.568  1.00  0.00    -0.168 NA
HETATM    8  C   UNL     1      23.300  49.248  48.370  1.00  0.00     0.156 A 
HETATM    9  C   UNL     1      26.698  48.599  49.294  1.00  0.00     0.034 A 
HETATM   10  C   UNL     1      26.634  47.574  50.252  1.00  0.00     0.026 A 
ENDROOT
BRANCH   1  11
HETATM   11  N   UNL     1      25.330  46.026  51.658  1.00  0.00    -0.289 NA
HETATM   12  H   UNL     1      24.369  45.878  51.959  1.00  0.00     0.128 HD
BRANCH  11  13
HETATM   13  C   UNL     1      26.070  44.778  51.540  1.00  0.00     0.131 C 
BRANCH  13  14
HETATM   14  C   UNL     1      27.107  44.705  52.638  1.00  0.00    -0.042 A 
HETATM   15  C   UNL     1      27.102  45.621  53.700  1.00  0.00     0.048 A 
HETATM   16  C   UNL     1      28.057  45.535  54.721  1.00  0.00     0.102 A 
HETATM   17  C   UNL     1      29.018  44.507  54.702  1.00  0.00     0.102 A 
HETATM   18  C   UNL     1      29.038  43.610  53.631  1.00  0.00     0.040 A 
HETATM   19  C   UNL     1      28.093  43.710  52.607  1.00  0.00     0.011 A 
BRANCH  16  20
HETATM   20  O   UNL     1      28.086  46.384  55.801  1.00  0.00    -0.353 OA
HETATM   21  C   UNL     1      27.297  47.562  55.693  1.00  0.00     0.210 C 
ENDBRANCH  16  20
BRANCH  17  22
HETATM   22  O   UNL     1      29.898  44.481  55.754  1.00  0.00    -0.348 OA
BRANCH  22  23
HETATM   23  C   UNL     1      30.945  43.513  55.714  1.00  0.00     0.175 C 
BRANCH  23  24
HETATM   24  C   UNL     1      31.562  43.435  57.108  1.00  0.00     0.022 C 
HETATM   25  C   UNL     1      31.092  44.572  57.998  1.00  0.00     0.007 C 
ENDBRANCH  23  24
ENDBRANCH  22  23
ENDBRANCH  17  22
ENDBRANCH  13  14
ENDBRANCH  11  13
ENDBRANCH   1  11
BRANCH   8  26
HETATM   26  C   UNL     1      21.839  49.086  48.388  1.00  0.00     0.270 C 
HETATM   27  N   UNL     1      21.262  49.360  49.598  1.00  0.00    -0.365 N 
HETATM   28  H   UNL     1      21.859  49.645  50.366  1.00  0.00     0.159 HD
HETATM   29  H   UNL     1      20.265  49.279  49.708  1.00  0.00     0.159 HD
HETATM   30  O   UNL     1      21.164  48.740  47.424  1.00  0.00    -0.266 OA
ENDBRANCH   8  26
TORSDOF 8
ENDMDL
MODEL 2
REMARK VINA RESULT:      -8.2      3.903      8.147
REMARK  8 active torsions:
REMARK  status: ('A' for Active; 'I' for Inactive)
REMARK    1  A    between atoms: C_2  and  C_3 
REMARK    2  A    between atoms: C_3  and  O_4 
REMARK    3  A    between atoms: O_4  and  C_5 
REMARK    4  A    between atoms: C_6  and  O_7 
REMARK    5  A    between atoms: C_10  and  C_11 
REMARK    6  A    between atoms: C_11  and  N_12 
REMARK    7  A    between atoms: N_12  and  C_13 
REMARK    8  A    between atoms: C_20  and  C_21 
REMARK       I    between atoms: C_21  and  N_22 
ROOT
HETATM    1  C   UNL     1      27.864  42.895  53.486  1.00  0.00     0.009 A 
HETATM    2  C   UNL     1      27.909  43.899  54.471  1.00  0.00     0.039 A 
HETATM    3  C   UNL     1      29.127  44.236  55.098  1.00  0.00     0.030 A 
HETATM    4  C   UNL     1      30.271  43.533  54.750  1.00  0.00     0.063 A 
HETATM    5  N   UNL     1      31.270  44.064  55.516  1.00  0.00    -0.277 N 
HETATM    6  H   UNL     1      32.245  43.787  55.529  1.00  0.00     0.189 HD
HETATM    7  N   UNL     1      30.879  45.058  56.331  1.00  0.00    -0.168 NA
HETATM    8  C   UNL     1      29.554  45.173  56.085  1.00  0.00     0.156 A 
HETATM    9  C   UNL     1      30.270  42.503  53.809  1.00  0.00     0.034 A 
HETATM   10  C   UNL     1      29.043  42.196  53.199  1.00  0.00     0.026 A 
ENDROOT
BRANCH   1  11
HETATM   11  N   UNL     1      26.617  42.551  52.952  1.00  0.00    -0.289 NA
HETATM   12  H   UNL     1      25.848  42.947  53.488  1.00  0.00     0.128 HD
BRANCH  11  13
HETATM   13  C   UNL     1      26.395  42.641  51.517  1.00  0.00     0.131 C 
BRANCH  13  14
HETATM   14  C   UNL     1      26.388  44.094  51.101  1.00  0.00    -0.042 A 
HETATM   15  C   UNL     1      25.805  45.076  51.915  1.00  0.00     0.048 A 
HETATM   16  C   UNL     1      25.817  46.423  51.529  1.00  0.00     0.102 A 
HETATM   17  C   UNL     1      26.443  46.805  50.327  1.00  0.00     0.102 A 
HETATM   18  C   UNL     1      27.001  45.823  49.504  1.00  0.00     0.040 A 
HETATM   19  C   UNL     1      26.971  44.480  49.887  1.00  0.00     0.011 A 
BRANCH  16  20
HETATM   20  O   UNL     1      25.289  47.434  52.295  1.00  0.00    -0.353 OA
HETATM   21  C   UNL     1      25.702  47.469  53.655  1.00  0.00     0.210 C 
ENDBRANCH  16  20
BRANCH  17  22
HETATM   22  O   UNL     1      26.432  48.147  50.038  1.00  0.00    -0.348 OA
BRANCH  22  23
HETATM   23  C   UNL     1      27.396  48.628  49.104  1.00  0.00     0.175 C 
BRANCH  23  24
HETATM   24  C   UNL     1      26.968  50.027  48.671  1.00  0.00     0.022 C 
HETATM   25  C   UNL     1      25.659  50.005  47.902  1.00  0.00     0.007 C 
ENDBRANCH  23  24
ENDBRANCH  22  23
ENDBRANCH  17  22
ENDBRANCH  13  14
ENDBRANCH  11  13
ENDBRANCH   1  11
BRANCH   8  26
HETATM   26  C   UNL     1      28.729  46.168  56.785  1.00  0.00     0.270 C 
HETATM   27  N   UNL     1      28.822  46.109  58.150  1.00  0.00    -0.365 N 
HETATM   28  H   UNL     1      29.429  45.412  58.564  1.00  0.00     0.159 HD
HETATM   29  H   UNL     1      28.295  46.753  58.717  1.00  0.00     0.159 HD
HETATM   30  O   UNL     1      28.013  46.995  56.231  1.00  0.00    -0.266 OA
ENDBRANCH   8  26
TORSDOF 8
ENDMDL
MODEL 3
REMARK VINA RESULT:      -8.1      0.890      1.991
REMARK  8 active torsions:
REMARK  status: ('A' for Active; 'I' for Inactive)
REMARK    1  A    between atoms: C_2  and  C_3 
REMARK    2  A    between atoms: C_3  and  O_4 
REMARK    3  A    between atoms: O_4  and  C_5 
REMARK    4  A    between atoms: C_6  and  O_7 
REMARK    5  A    between atoms: C_10  and  C_11 
REMARK    6  A    between atoms: C_11  and  N_12 
REMARK    7  A    between atoms: N_12  and  C_13 
REMARK    8  A    between atoms: C_20  and  C_21 
REMARK       I    between atoms: C_21  and  N_22 
ROOT
HETATM    1  C   UNL     1      25.255  47.099  50.577  1.00  0.00     0.009 A 
HETATM    2  C   UNL     1      24.072  47.648  50.049  1.00  0.00     0.039 A 
HETATM    3  C   UNL     1      24.126  48.667  49.074  1.00  0.00     0.030 A 
HETATM    4  C   UNL     1      25.368  49.141  48.675  1.00  0.00     0.063 A 
HETATM    5  N   UNL     1      25.105  50.111  47.751  1.00  0.00    -0.277 N 
HETATM    6  H   UNL     1      25.779  50.680  47.250  1.00  0.00     0.189 HD
HETATM    7  N   UNL     1      23.798  50.310  47.507  1.00  0.00    -0.168 NA
HETATM    8  C   UNL     1      23.181  49.424  48.321  1.00  0.00     0.156 A 
HETATM    9  C   UNL     1      26.567  48.656  49.198  1.00  0.00     0.034 A 
HETATM   10  C   UNL     1      26.480  47.639  50.162  1.00  0.00     0.026 A 
ENDROOT
BRANCH   1  11
HETATM   11  N   UNL     1      25.142  46.144  51.594  1.00  0.00    -0.289 NA
HETATM   12  H   UNL     1      24.174  45.888  51.773  1.00  0.00     0.128 HD
BRANCH  11  13
HETATM   13  C   UNL     1      26.030  44.992  51.607  1.00  0.00     0.131 C 
BRANCH  13  14
HETATM   14  C   UNL     1      26.940  45.074  52.812  1.00  0.00    -0.042 A 
HETATM   15  C   UNL     1      27.965  44.137  53.009  1.00  0.00     0.048 A 
HETATM   16  C   UNL     1      28.814  44.231  54.121  1.00  0.00     0.102 A 
HETATM   17  C   UNL     1      28.658  45.288  55.037  1.00  0.00     0.102 A 
HETATM   18  C   UNL     1      27.622  46.206  54.854  1.00  0.00     0.040 A 
HETATM   19  C   UNL     1      26.769  46.098  53.753  1.00  0.00     0.011 A 
BRANCH  16  20
HETATM   20  O   UNL     1      29.852  43.362  54.353  1.00  0.00    -0.353 OA
HETATM   21  C   UNL     1      30.312  42.621  53.230  1.00  0.00     0.210 C 
ENDBRANCH  16  20
BRANCH  17  22
HETATM   22  O   UNL     1      29.549  45.319  56.082  1.00  0.00    -0.348 OA
BRANCH  22  23
HETATM   23  C   UNL     1      29.171  46.048  57.248  1.00  0.00     0.175 C 
BRANCH  23  24
HETATM   24  C   UNL     1      30.359  46.041  58.207  1.00  0.00     0.022 C 
HETATM   25  C   UNL     1      31.120  44.729  58.153  1.00  0.00     0.007 C 
ENDBRANCH  23  24
ENDBRANCH  22  23
ENDBRANCH  17  22
ENDBRANCH  13  14
ENDBRANCH  11  13
ENDBRANCH   1  11
BRANCH   8  26
HETATM   26  C   UNL     1      21.716  49.316  48.362  1.00  0.00     0.270 C 
HETATM   27  N   UNL     1      21.156  49.759  49.529  1.00  0.00    -0.365 N 
HETATM   28  H   UNL     1      21.766  50.117  50.254  1.00  0.00     0.159 HD
HETATM   29  H   UNL     1      20.156  49.726  49.650  1.00  0.00     0.159 HD
HETATM   30  O   UNL     1      21.024  48.875  47.450  1.00  0.00    -0.266 OA
ENDBRANCH   8  26
TORSDOF 8
ENDMDL
MODEL 4
REMARK VINA RESULT:      -8.0      5.005      7.525
REMARK  8 active torsions:
REMARK  status: ('A' for Active; 'I' for Inactive)
REMARK    1  A    between atoms: C_2  and  C_3 
REMARK    2  A    between atoms: C_3  and  O_4 
REMARK    3  A    between atoms: O_4  and  C_5 
REMARK    4  A    between atoms: C_6  and  O_7 
REMARK    5  A    between atoms: C_10  and  C_11 
REMARK    6  A    between atoms: C_11  and  N_12 
REMARK    7  A    between atoms: N_12  and  C_13 
REMARK    8  A    between atoms: C_20  and  C_21 
REMARK       I    between atoms: C_21  and  N_22 
ROOT
HETATM    1  C   UNL     1      27.085  41.630  50.649  1.00  0.00     0.009 A 
HETATM    2  C   UNL     1      27.751  40.398  50.784  1.00  0.00     0.039 A 
HETATM    3  C   UNL     1      28.169  39.679  49.645  1.00  0.00     0.030 A 
HETATM    4  C   UNL     1      27.879  40.193  48.390  1.00  0.00     0.063 A 
HETATM    5  N   UNL     1      28.388  39.289  47.501  1.00  0.00    -0.277 N 
HETATM    6  H   UNL     1      28.352  39.338  46.489  1.00  0.00     0.189 HD
HETATM    7  N   UNL     1      28.991  38.230  48.067  1.00  0.00    -0.168 NA
HETATM    8  C   UNL     1      28.861  38.457  49.394  1.00  0.00     0.156 A 
HETATM    9  C   UNL     1      27.187  41.390  48.204  1.00  0.00     0.034 A 
HETATM   10  C   UNL     1      26.789  42.085  49.357  1.00  0.00     0.026 A 
ENDROOT
BRANCH   1  11
HETATM   11  N   UNL     1      26.626  42.263  51.810  1.00  0.00    -0.289 NA
HETATM   12  H   UNL     1      27.064  41.888  52.649  1.00  0.00     0.128 HD
BRANCH  11  13
HETATM   13  C   UNL     1      26.513  43.713  51.847  1.00  0.00     0.131 C 
BRANCH  13  14
HETATM   14  C   UNL     1      27.299  44.248  53.022  1.00  0.00    -0.042 A 
HETATM   15  C   UNL     1      26.998  45.496  53.586  1.00  0.00     0.048 A 
HETATM   16  C   UNL     1      27.722  45.977  54.685  1.00  0.00     0.102 A 
HETATM   17  C   UNL     1      28.745  45.192  55.251  1.00  0.00     0.102 A 
HETATM   18  C   UNL     1      29.061  43.960  54.674  1.00  0.00     0.040 A 
HETATM   19  C   UNL     1      28.347  43.494  53.567  1.00  0.00     0.011 A 
BRANCH  16  20
HETATM   20  O   UNL     1      27.456  47.177  55.298  1.00  0.00    -0.353 OA
HETATM   21  C   UNL     1      26.280  47.851  54.871  1.00  0.00     0.210 C 
ENDBRANCH  16  20
BRANCH  17  22
HETATM   22  O   UNL     1      29.385  45.727  56.341  1.00  0.00    -0.348 OA
BRANCH  22  23
HETATM   23  C   UNL     1      30.780  45.467  56.480  1.00  0.00     0.175 C 
BRANCH  23  24
HETATM   24  C   UNL     1      30.962  44.512  57.656  1.00  0.00     0.022 C 
HETATM   25  C   UNL     1      31.793  43.299  57.275  1.00  0.00     0.007 C 
ENDBRANCH  23  24
ENDBRANCH  22  23
ENDBRANCH  17  22
ENDBRANCH  13  14
ENDBRANCH  11  13
ENDBRANCH   1  11
BRANCH   8  26
HETATM   26  C   UNL     1      29.397  37.515  50.387  1.00  0.00     0.270 C 
HETATM   27  N   UNL     1      28.524  36.524  50.744  1.00  0.00    -0.365 N 
HETATM   28  H   UNL     1      27.606  36.509  50.315  1.00  0.00     0.159 HD
HETATM   29  H   UNL     1      28.803  35.829  51.418  1.00  0.00     0.159 HD
HETATM   30  O   UNL     1      30.522  37.579  50.872  1.00  0.00    -0.266 OA
ENDBRANCH   8  26
TORSDOF 8
ENDMDL
MODEL 5
REMARK VINA RESULT:      -7.7      2.297      3.230
REMARK  8 active torsions:
REMARK  status: ('A' for Active; 'I' for Inactive)
REMARK    1  A    between atoms: C_2  and  C_3 
REMARK    2  A    between atoms: C_3  and  O_4 
REMARK    3  A    between atoms: O_4  and  C_5 
REMARK    4  A    between atoms: C_6  and  O_7 
REMARK    5  A    between atoms: C_10  and  C_11 
REMARK    6  A    between atoms: C_11  and  N_12 
REMARK    7  A    between atoms: N_12  and  C_13 
REMARK    8  A    between atoms: C_20  and  C_21 
REMARK       I    between atoms: C_21  and  N_22 
ROOT
HETATM    1  C   UNL     1      25.082  43.348  51.250  1.00  0.00     0.009 A 
HETATM    2  C   UNL     1      24.840  44.708  50.981  1.00  0.00     0.039 A 
HETATM    3  C   UNL     1      24.079  45.093  49.857  1.00  0.00     0.030 A 
HETATM    4  C   UNL     1      23.608  44.107  49.003  1.00  0.00     0.063 A 
HETATM    5  N   UNL     1      22.931  44.772  48.020  1.00  0.00    -0.277 N 
HETATM    6  H   UNL     1      22.458  44.367  47.220  1.00  0.00     0.189 HD
HETATM    7  N   UNL     1      22.916  46.109  48.160  1.00  0.00    -0.168 NA
HETATM    8  C   UNL     1      23.625  46.321  49.292  1.00  0.00     0.156 A 
HETATM    9  C   UNL     1      23.855  42.749  49.205  1.00  0.00     0.034 A 
HETATM   10  C   UNL     1      24.609  42.397  50.335  1.00  0.00     0.026 A 
ENDROOT
BRANCH   1  11
HETATM   11  N   UNL     1      25.905  43.027  52.336  1.00  0.00    -0.289 NA
HETATM   12  H   UNL     1      25.413  42.483  53.041  1.00  0.00     0.128 HD
BRANCH  11  13
HETATM   13  C   UNL     1      27.254  42.535  52.100  1.00  0.00     0.131 C 
BRANCH  13  14
HETATM   14  C   UNL     1      28.195  43.151  53.110  1.00  0.00    -0.042 A 
HETATM   15  C   UNL     1      27.928  44.407  53.676  1.00  0.00     0.048 A 
HETATM   16  C   UNL     1      28.799  44.962  54.623  1.00  0.00     0.102 A 
HETATM   17  C   UNL     1      29.939  44.248  55.036  1.00  0.00     0.102 A 
HETATM   18  C   UNL     1      30.218  43.009  54.454  1.00  0.00     0.040 A 
HETATM   19  C   UNL     1      29.355  42.467  53.498  1.00  0.00     0.011 A 
BRANCH  16  20
HETATM   20  O   UNL     1      28.577  46.173  55.234  1.00  0.00    -0.353 OA
HETATM   21  C   UNL     1      27.367  46.835  54.889  1.00  0.00     0.210 C 
ENDBRANCH  16  20
BRANCH  17  22
HETATM   22  O   UNL     1      30.722  44.854  55.987  1.00  0.00    -0.348 OA
BRANCH  22  23
HETATM   23  C   UNL     1      31.296  44.024  56.995  1.00  0.00     0.175 C 
BRANCH  23  24
HETATM   24  C   UNL     1      31.064  44.700  58.344  1.00  0.00     0.022 C 
HETATM   25  C   UNL     1      30.480  46.092  58.184  1.00  0.00     0.007 C 
ENDBRANCH  23  24
ENDBRANCH  22  23
ENDBRANCH  17  22
ENDBRANCH  13  14
ENDBRANCH  11  13
ENDBRANCH   1  11
BRANCH   8  26
HETATM   26  C   UNL     1      23.850  47.678  49.810  1.00  0.00     0.270 C 
HETATM   27  N   UNL     1      22.760  48.500  49.714  1.00  0.00    -0.365 N 
HETATM   28  H   UNL     1      21.908  48.130  49.309  1.00  0.00     0.159 HD
HETATM   29  H   UNL     1      22.817  49.450  50.044  1.00  0.00     0.159 HD
HETATM   30  O   UNL     1      24.905  48.073  50.295  1.00  0.00    -0.266 OA
ENDBRANCH   8  26
TORSDOF 8
ENDMDL
MODEL 6
REMARK VINA RESULT:      -7.6      3.157      8.827
REMARK  8 active torsions:
REMARK  status: ('A' for Active; 'I' for Inactive)
REMARK    1  A    between atoms: C_2  and  C_3 
REMARK    2  A    between atoms: C_3  and  O_4 
REMARK    3  A    between atoms: O_4  and  C_5 
REMARK    4  A    between atoms: C_6  and  O_7 
REMARK    5  A    between atoms: C_10  and  C_11 
REMARK    6  A    between atoms: C_11  and  N_12 
REMARK    7  A    between atoms: N_12  and  C_13 
REMARK    8  A    between atoms: C_20  and  C_21 
REMARK       I    between atoms: C_21  and  N_22 
ROOT
HETATM    1  C   UNL     1      26.217  44.529  53.314  1.00  0.00     0.009 A 
HETATM    2  C   UNL     1      27.487  44.078  53.716  1.00  0.00     0.039 A 
HETATM    3  C   UNL     1      28.227  44.787  54.686  1.00  0.00     0.030 A 
HETATM    4  C   UNL     1      27.693  45.956  55.207  1.00  0.00     0.063 A 
HETATM    5  N   UNL     1      28.623  46.416  56.095  1.00  0.00    -0.277 N 
HETATM    6  H   UNL     1      28.570  47.257  56.658  1.00  0.00     0.189 HD
HETATM    7  N   UNL     1      29.719  45.645  56.204  1.00  0.00    -0.168 NA
HETATM    8  C   UNL     1      29.488  44.634  55.336  1.00  0.00     0.156 A 
HETATM    9  C   UNL     1      26.456  46.465  54.811  1.00  0.00     0.034 A 
HETATM   10  C   UNL     1      25.741  45.734  53.848  1.00  0.00     0.026 A 
ENDROOT
BRANCH   1  11
HETATM   11  N   UNL     1      25.560  43.829  52.295  1.00  0.00    -0.289 NA
HETATM   12  H   UNL     1      24.549  43.852  52.404  1.00  0.00     0.128 HD
BRANCH  11  13
HETATM   13  C   UNL     1      25.971  44.013  50.911  1.00  0.00     0.131 C 
BRANCH  13  14
HETATM   14  C   UNL     1      25.431  45.329  50.399  1.00  0.00    -0.042 A 
HETATM   15  C   UNL     1      26.240  46.474  50.354  1.00  0.00     0.048 A 
HETATM   16  C   UNL     1      25.735  47.686  49.863  1.00  0.00     0.102 A 
HETATM   17  C   UNL     1      24.413  47.755  49.384  1.00  0.00     0.102 A 
HETATM   18  C   UNL     1      23.600  46.620  49.451  1.00  0.00     0.040 A 
HETATM   19  C   UNL     1      24.104  45.420  49.958  1.00  0.00     0.011 A 
BRANCH  16  20
HETATM   20  O   UNL     1      26.485  48.833  49.767  1.00  0.00    -0.353 OA
HETATM   21  C   UNL     1      27.709  48.722  49.053  1.00  0.00     0.210 C 
ENDBRANCH  16  20
BRANCH  17  22
HETATM   22  O   UNL     1      24.009  48.973  48.896  1.00  0.00    -0.348 OA
BRANCH  22  23
HETATM   23  C   UNL     1      22.619  49.283  48.968  1.00  0.00     0.175 C 
BRANCH  23  24
HETATM   24  C   UNL     1      22.479  50.803  48.962  1.00  0.00     0.022 C 
HETATM   25  C   UNL     1      21.069  51.238  48.605  1.00  0.00     0.007 C 
ENDBRANCH  23  24
ENDBRANCH  22  23
ENDBRANCH  17  22
ENDBRANCH  13  14
ENDBRANCH  11  13
ENDBRANCH   1  11
BRANCH   8  26
HETATM   26  C   UNL     1      30.462  43.550  55.147  1.00  0.00     0.270 C 
HETATM   27  N   UNL     1      31.152  43.216  56.280  1.00  0.00    -0.365 N 
HETATM   28  H   UNL     1      30.950  43.718  57.137  1.00  0.00     0.159 HD
HETATM   29  H   UNL     1      31.842  42.482  56.250  1.00  0.00     0.159 HD
HETATM   30  O   UNL     1      30.665  42.972  54.084  1.00  0.00    -0.266 OA
ENDBRANCH   8  26
TORSDOF 8
ENDMDL
MODEL 7
REMARK VINA RESULT:      -7.5      2.270      3.534
REMARK  8 active torsions:
REMARK  status: ('A' for Active; 'I' for Inactive)
REMARK    1  A    between atoms: C_2  and  C_3 
REMARK    2  A    between atoms: C_3  and  O_4 
REMARK    3  A    between atoms: O_4  and  C_5 
REMARK    4  A    between atoms: C_6  and  O_7 
REMARK    5  A    between atoms: C_10  and  C_11 
REMARK    6  A    between atoms: C_11  and  N_12 
REMARK    7  A    between atoms: N_12  and  C_13 
REMARK    8  A    between atoms: C_20  and  C_21 
REMARK       I    between atoms: C_21  and  N_22 
ROOT
HETATM    1  C   UNL     1      23.398  48.643  49.003  1.00  0.00     0.009 A 
HETATM    2  C   UNL     1      22.023  48.487  49.260  1.00  0.00     0.039 A 
HETATM    3  C   UNL     1      21.129  49.560  49.059  1.00  0.00     0.030 A 
HETATM    4  C   UNL     1      21.638  50.780  48.639  1.00  0.00     0.063 A 
HETATM    5  N   UNL     1      20.558  51.611  48.546  1.00  0.00    -0.277 N 
HETATM    6  H   UNL     1      20.557  52.587  48.272  1.00  0.00     0.189 HD
HETATM    7  N   UNL     1      19.384  51.037  48.863  1.00  0.00    -0.168 NA
HETATM    8  C   UNL     1      19.724  49.768  49.185  1.00  0.00     0.156 A 
HETATM    9  C   UNL     1      22.997  50.995  48.410  1.00  0.00     0.034 A 
HETATM   10  C   UNL     1      23.860  49.906  48.613  1.00  0.00     0.026 A 
ENDROOT
BRANCH   1  11
HETATM   11  N   UNL     1      24.248  47.569  49.291  1.00  0.00    -0.289 NA
HETATM   12  H   UNL     1      24.178  46.828  48.598  1.00  0.00     0.128 HD
BRANCH  11  13
HETATM   13  C   UNL     1      25.625  47.823  49.691  1.00  0.00     0.131 C 
BRANCH  13  14
HETATM   14  C   UNL     1      26.003  46.881  50.811  1.00  0.00    -0.042 A 
HETATM   15  C   UNL     1      25.722  47.198  52.148  1.00  0.00     0.048 A 
HETATM   16  C   UNL     1      26.062  46.312  53.179  1.00  0.00     0.102 A 
HETATM   17  C   UNL     1      26.668  45.079  52.875  1.00  0.00     0.102 A 
HETATM   18  C   UNL     1      26.971  44.774  51.545  1.00  0.00     0.040 A 
HETATM   19  C   UNL     1      26.644  45.670  50.524  1.00  0.00     0.011 A 
BRANCH  16  20
HETATM   20  O   UNL     1      25.787  46.552  54.503  1.00  0.00    -0.353 OA
HETATM   21  C   UNL     1      26.486  47.636  55.101  1.00  0.00     0.210 C 
ENDBRANCH  16  20
BRANCH  17  22
HETATM   22  O   UNL     1      26.944  44.260  53.942  1.00  0.00    -0.348 OA
BRANCH  22  23
HETATM   23  C   UNL     1      28.287  44.231  54.421  1.00  0.00     0.175 C 
BRANCH  23  24
HETATM   24  C   UNL     1      28.867  42.856  54.101  1.00  0.00     0.022 C 
HETATM   25  C   UNL     1      29.968  42.936  53.060  1.00  0.00     0.007 C 
ENDBRANCH  23  24
ENDBRANCH  22  23
ENDBRANCH  17  22
ENDBRANCH  13  14
ENDBRANCH  11  13
ENDBRANCH   1  11
BRANCH   8  26
HETATM   26  C   UNL     1      18.711  48.787  49.599  1.00  0.00     0.270 C 
HETATM   27  N   UNL     1      18.999  48.150  50.776  1.00  0.00    -0.365 N 
HETATM   28  H   UNL     1      19.855  48.391  51.260  1.00  0.00     0.159 HD
HETATM   29  H   UNL     1      18.362  47.461  51.143  1.00  0.00     0.159 HD
HETATM   30  O   UNL     1      17.686  48.537  48.974  1.00  0.00    -0.266 OA
ENDBRANCH   8  26
TORSDOF 8
ENDMDL
MODEL 8
REMARK VINA RESULT:      -7.4      5.480      7.659
REMARK  8 active torsions:
REMARK  status: ('A' for Active; 'I' for Inactive)
REMARK    1  A    between atoms: C_2  and  C_3 
REMARK    2  A    between atoms: C_3  and  O_4 
REMARK    3  A    between atoms: O_4  and  C_5 
REMARK    4  A    between atoms: C_6  and  O_7 
REMARK    5  A    between atoms: C_10  and  C_11 
REMARK    6  A    between atoms: C_11  and  N_12 
REMARK    7  A    between atoms: N_12  and  C_13 
REMARK    8  A    between atoms: C_20  and  C_21 
REMARK       I    between atoms: C_21  and  N_22 
ROOT
HETATM    1  C   UNL     1      27.973  40.925  50.863  1.00  0.00     0.009 A 
HETATM    2  C   UNL     1      28.203  40.018  49.811  1.00  0.00     0.039 A 
HETATM    3  C   UNL     1      27.174  39.699  48.900  1.00  0.00     0.030 A 
HETATM    4  C   UNL     1      25.923  40.268  49.084  1.00  0.00     0.063 A 
HETATM    5  N   UNL     1      25.147  39.772  48.075  1.00  0.00    -0.277 N 
HETATM    6  H   UNL     1      24.168  39.969  47.901  1.00  0.00     0.189 HD
HETATM    7  N   UNL     1      25.786  38.931  47.243  1.00  0.00    -0.168 NA
HETATM    8  C   UNL     1      27.041  38.875  47.744  1.00  0.00     0.156 A 
HETATM    9  C   UNL     1      25.635  41.141  50.134  1.00  0.00     0.034 A 
HETATM   10  C   UNL     1      26.681  41.443  51.020  1.00  0.00     0.026 A 
ENDROOT
BRANCH   1  11
HETATM   11  N   UNL     1      29.006  41.147  51.780  1.00  0.00    -0.289 NA
HETATM   12  H   UNL     1      29.530  41.993  51.570  1.00  0.00     0.128 HD
BRANCH  11  13
HETATM   13  C   UNL     1      28.754  40.993  53.205  1.00  0.00     0.131 C 
BRANCH  13  14
HETATM   14  C   UNL     1      28.818  42.347  53.874  1.00  0.00    -0.042 A 
HETATM   15  C   UNL     1      29.950  42.740  54.604  1.00  0.00     0.048 A 
HETATM   16  C   UNL     1      30.007  44.004  55.208  1.00  0.00     0.102 A 
HETATM   17  C   UNL     1      28.933  44.902  55.061  1.00  0.00     0.102 A 
HETATM   18  C   UNL     1      27.796  44.501  54.355  1.00  0.00     0.040 A 
HETATM   19  C   UNL     1      27.739  43.234  53.770  1.00  0.00     0.011 A 
BRANCH  16  20
HETATM   20  O   UNL     1      31.097  44.456  55.910  1.00  0.00    -0.353 OA
HETATM   21  C   UNL     1      31.404  43.756  57.109  1.00  0.00     0.210 C 
ENDBRANCH  16  20
BRANCH  17  22
HETATM   22  O   UNL     1      29.083  46.127  55.662  1.00  0.00    -0.348 OA
BRANCH  22  23
HETATM   23  C   UNL     1      27.898  46.849  55.993  1.00  0.00     0.175 C 
BRANCH  23  24
HETATM   24  C   UNL     1      27.642  47.861  54.879  1.00  0.00     0.022 C 
HETATM   25  C   UNL     1      26.186  47.870  54.449  1.00  0.00     0.007 C 
ENDBRANCH  23  24
ENDBRANCH  22  23
ENDBRANCH  17  22
ENDBRANCH  13  14
ENDBRANCH  11  13
ENDBRANCH   1  11
BRANCH   8  26
HETATM   26  C   UNL     1      28.079  38.048  47.114  1.00  0.00     0.270 C 
HETATM   27  N   UNL     1      28.647  37.129  47.954  1.00  0.00    -0.365 N 
HETATM   28  H   UNL     1      28.324  37.085  48.913  1.00  0.00     0.159 HD
HETATM   29  H   UNL     1      29.368  36.514  47.612  1.00  0.00     0.159 HD
HETATM   30  O   UNL     1      28.429  38.141  45.942  1.00  0.00    -0.266 OA
ENDBRANCH   8  26
TORSDOF 8
ENDMDL
MODEL 9
REMARK VINA RESULT:      -7.3      3.642      4.749
REMARK  8 active torsions:
REMARK  status: ('A' for Active; 'I' for Inactive)
REMARK    1  A    between atoms: C_2  and  C_3 
REMARK    2  A    between atoms: C_3  and  O_4 
REMARK    3  A    between atoms: O_4  and  C_5 
REMARK    4  A    between atoms: C_6  and  O_7 
REMARK    5  A    between atoms: C_10  and  C_11 
REMARK    6  A    between atoms: C_11  and  N_12 
REMARK    7  A    between atoms: N_12  and  C_13 
REMARK    8  A    between atoms: C_20  and  C_21 
REMARK       I    between atoms: C_21  and  N_22 
ROOT
HETATM    1  C   UNL     1      26.076  41.139  50.490  1.00  0.00     0.009 A 
HETATM    2  C   UNL     1      25.246  42.264  50.338  1.00  0.00     0.039 A 
HETATM    3  C   UNL     1      24.646  42.552  49.094  1.00  0.00     0.030 A 
HETATM    4  C   UNL     1      24.921  41.724  48.016  1.00  0.00     0.063 A 
HETATM    5  N   UNL     1      24.222  42.250  46.967  1.00  0.00    -0.277 N 
HETATM    6  H   UNL     1      24.193  41.905  46.014  1.00  0.00     0.189 HD
HETATM    7  N   UNL     1      23.509  43.350  47.268  1.00  0.00    -0.168 NA
HETATM    8  C   UNL     1      23.764  43.549  48.581  1.00  0.00     0.156 A 
HETATM    9  C   UNL     1      25.768  40.619  48.106  1.00  0.00     0.034 A 
HETATM   10  C   UNL     1      26.345  40.356  49.359  1.00  0.00     0.026 A 
ENDROOT
BRANCH   1  11
HETATM   11  N   UNL     1      26.704  40.944  51.725  1.00  0.00    -0.289 NA
HETATM   12  H   UNL     1      26.355  40.118  52.207  1.00  0.00     0.128 HD
BRANCH  11  13
HETATM   13  C   UNL     1      28.150  41.075  51.831  1.00  0.00     0.131 C 
BRANCH  13  14
HETATM   14  C   UNL     1      28.482  42.201  52.783  1.00  0.00    -0.042 A 
HETATM   15  C   UNL     1      27.585  43.258  52.994  1.00  0.00     0.048 A 
HETATM   16  C   UNL     1      27.896  44.290  53.891  1.00  0.00     0.102 A 
HETATM   17  C   UNL     1      29.106  44.256  54.610  1.00  0.00     0.102 A 
HETATM   18  C   UNL     1      30.010  43.216  54.380  1.00  0.00     0.040 A 
HETATM   19  C   UNL     1      29.702  42.200  53.473  1.00  0.00     0.011 A 
BRANCH  16  20
HETATM   20  O   UNL     1      27.048  45.336  54.162  1.00  0.00    -0.353 OA
HETATM   21  C   UNL     1      25.668  45.011  54.269  1.00  0.00     0.210 C 
ENDBRANCH  16  20
BRANCH  17  22
HETATM   22  O   UNL     1      29.318  45.291  55.486  1.00  0.00    -0.348 OA
BRANCH  22  23
HETATM   23  C   UNL     1      30.517  45.267  56.257  1.00  0.00     0.175 C 
BRANCH  23  24
HETATM   24  C   UNL     1      30.192  45.819  57.643  1.00  0.00     0.022 C 
HETATM   25  C   UNL     1      28.727  46.195  57.771  1.00  0.00     0.007 C 
ENDBRANCH  23  24
ENDBRANCH  22  23
ENDBRANCH  17  22
ENDBRANCH  13  14
ENDBRANCH  11  13
ENDBRANCH   1  11
BRANCH   8  26
HETATM   26  C   UNL     1      23.165  44.673  49.314  1.00  0.00     0.270 C 
HETATM   27  N   UNL     1      22.073  44.331  50.064  1.00  0.00    -0.365 N 
HETATM   28  H   UNL     1      21.766  43.366  50.062  1.00  0.00     0.159 HD
HETATM   29  H   UNL     1      21.595  45.035  50.604  1.00  0.00     0.159 HD
HETATM   30  O   UNL     1      23.582  45.826  49.284  1.00  0.00    -0.266 OA
ENDBRANCH   8  26
TORSDOF 8
ENDMDL
MODEL 10
REMARK VINA RESULT:      -7.2      4.959      9.110
REMARK  8 active torsions:
REMARK  status: ('A' for Active; 'I' for Inactive)
REMARK    1  A    between atoms: C_2  and  C_3 
REMARK    2  A    between atoms: C_3  and  O_4 
REMARK    3  A    between atoms: O_4  and  C_5 
REMARK    4  A    between atoms: C_6  and  O_7 
REMARK    5  A    between atoms: C_10  and  C_11 
REMARK    6  A    between atoms: C_11  and  N_12 
REMARK    7  A    between atoms: N_12  and  C_13 
REMARK    8  A    between atoms: C_20  and  C_21 
REMARK       I    between atoms: C_21  and  N_22 
ROOT
HETATM    1  C   UNL     1      27.266  41.577  50.383  1.00  0.00     0.009 A 
HETATM    2  C   UNL     1      27.979  40.386  50.613  1.00  0.00     0.039 A 
HETATM    3  C   UNL     1      28.218  39.478  49.561  1.00  0.00     0.030 A 
HETATM    4  C   UNL     1      27.705  39.764  48.304  1.00  0.00     0.063 A 
HETATM    5  N   UNL     1      28.080  38.718  47.512  1.00  0.00    -0.277 N 
HETATM    6  H   UNL     1      27.873  38.588  46.528  1.00  0.00     0.189 HD
HETATM    7  N   UNL     1      28.801  37.772  48.140  1.00  0.00    -0.168 NA
HETATM    8  C   UNL     1      28.891  38.229  49.410  1.00  0.00     0.156 A 
HETATM    9  C   UNL     1      26.958  40.912  48.036  1.00  0.00     0.034 A 
HETATM   10  C   UNL     1      26.742  41.799  49.102  1.00  0.00     0.026 A 
ENDROOT
BRANCH   1  11
HETATM   11  N   UNL     1      26.993  42.405  51.478  1.00  0.00    -0.289 NA
HETATM   12  H   UNL     1      26.800  41.871  52.322  1.00  0.00     0.128 HD
BRANCH  11  13
HETATM   13  C   UNL     1      27.835  43.563  51.737  1.00  0.00     0.131 C 
BRANCH  13  14
HETATM   14  C   UNL     1      27.087  44.821  51.359  1.00  0.00    -0.042 A 
HETATM   15  C   UNL     1      26.505  45.638  52.339  1.00  0.00     0.048 A 
HETATM   16  C   UNL     1      25.827  46.811  51.980  1.00  0.00     0.102 A 
HETATM   17  C   UNL     1      25.749  47.192  50.628  1.00  0.00     0.102 A 
HETATM   18  C   UNL     1      26.306  46.365  49.650  1.00  0.00     0.040 A 
HETATM   19  C   UNL     1      26.967  45.189  50.012  1.00  0.00     0.011 A 
BRANCH  16  20
HETATM   20  O   UNL     1      25.262  47.666  52.895  1.00  0.00    -0.353 OA
HETATM   21  C   UNL     1      25.865  47.693  54.182  1.00  0.00     0.210 C 
ENDBRANCH  16  20
BRANCH  17  22
HETATM   22  O   UNL     1      25.089  48.368  50.368  1.00  0.00    -0.348 OA
BRANCH  22  23
HETATM   23  C   UNL     1      25.195  48.906  49.051  1.00  0.00     0.175 C 
BRANCH  23  24
HETATM   24  C   UNL     1      23.785  49.234  48.567  1.00  0.00     0.022 C 
HETATM   25  C   UNL     1      23.391  50.661  48.905  1.00  0.00     0.007 C 
ENDBRANCH  23  24
ENDBRANCH  22  23
ENDBRANCH  17  22
ENDBRANCH  13  14
ENDBRANCH  11  13
ENDBRANCH   1  11
BRANCH   8  26
HETATM   26  C   UNL     1      29.614  37.475  50.444  1.00  0.00     0.270 C 
HETATM   27  N   UNL     1      28.918  36.409  50.947  1.00  0.00    -0.365 N 
HETATM   28  H   UNL     1      27.991  36.222  50.585  1.00  0.00     0.159 HD
HETATM   29  H   UNL     1      29.333  35.831  51.659  1.00  0.00     0.159 HD
HETATM   30  O   UNL     1      30.742  37.745  50.843  1.00  0.00    -0.266 OA
ENDBRANCH   8  26
TORSDOF 8
ENDMDL
