MODEL 1
REMARK VINA RESULT:      -7.7      0.000      0.000
REMARK  6 active torsions:
REMARK  status: ('A' for Active; 'I' for Inactive)
REMARK    1  A    between atoms: C_2  and  C_3 
REMARK    2  A    between atoms: C_3  and  N_4 
REMARK       I    between atoms: N_4  and  C_5 
REMARK    3  A    between atoms: C_5  and  C_6 
REMARK    4  A    between atoms: C_11  and  C_12 
REMARK    5  A    between atoms: C_15  and  O_16 
REMARK    6  A    between atoms: C_21  and  C_22 
ROOT
HETATM    1  C   UNL     1      22.941  49.405  48.664  1.00  0.00     0.170 A 
HETATM    2  N   UNL     1      22.143  50.439  49.036  1.00  0.00    -0.163 NA
HETATM    3  N   UNL     1      20.958  49.853  49.284  1.00  0.00    -0.238 N 
HETATM    4  C   UNL     1      20.974  48.492  49.169  1.00  0.00     0.145 A 
HETATM    5  N   UNL     1      19.878  47.748  49.456  1.00  0.00    -0.365 N 
HETATM    6  C   UNL     1      18.580  48.344  49.750  1.00  0.00     0.118 C 
HETATM    7  C   UNL     1      18.772  49.728  50.399  1.00  0.00     0.066 C 
HETATM    8  C   UNL     1      19.801  50.626  49.688  1.00  0.00     0.221 C 
HETATM    9  C   UNL     1      22.241  48.168  48.743  1.00  0.00     0.115 A 
HETATM   10 CL   UNL     1      22.826  46.613  48.400  1.00  0.00    -0.077 Cl
HETATM   11  H   UNL     1      19.867  46.748  49.248  1.00  0.00     0.162 HD
ENDROOT
BRANCH   6  12
HETATM   12  C   UNL     1      17.624  48.307  48.570  1.00  0.00    -0.035 A 
HETATM   13  C   UNL     1      16.321  48.821  48.624  1.00  0.00     0.012 A 
HETATM   14  C   UNL     1      15.490  48.793  47.500  1.00  0.00     0.037 A 
HETATM   15  C   UNL     1      15.940  48.264  46.290  1.00  0.00     0.068 A 
HETATM   16  C   UNL     1      17.232  47.750  46.219  1.00  0.00     0.037 A 
HETATM   17  C   UNL     1      18.065  47.774  47.345  1.00  0.00     0.012 A 
BRANCH  15  18
HETATM   18  O   UNL     1      15.031  48.309  45.271  1.00  0.00    -0.356 OA
HETATM   19  C   UNL     1      13.662  48.426  45.636  1.00  0.00     0.210 C 
ENDBRANCH  15  18
ENDBRANCH   6  12
BRANCH   8  20
HETATM   20  C   UNL     1      19.243  51.388  48.507  1.00  0.00     0.409 C 
HETATM   21  F   UNL     1      19.420  50.768  47.326  1.00  0.00    -0.169 F 
HETATM   22  F   UNL     1      17.907  51.580  48.664  1.00  0.00    -0.169 F 
HETATM   23  F   UNL     1      19.790  52.622  48.403  1.00  0.00    -0.169 F 
ENDBRANCH   8  20
BRANCH   1  24
HETATM   24  C   UNL     1      24.332  49.640  48.248  1.00  0.00     0.273 C 
HETATM   25  N   UNL     1      25.249  49.005  49.061  1.00  0.00    -0.356 N 
HETATM   26  H   UNL     1      24.856  48.522  49.865  1.00  0.00     0.162 HD
HETATM   27  O   UNL     1      24.652  50.340  47.293  1.00  0.00    -0.266 OA
BRANCH  25  28
HETATM   28  C   UNL     1      26.674  49.204  48.946  1.00  0.00     0.122 C 
BRANCH  28  29
HETATM   29  C   UNL     1      27.466  47.932  49.239  1.00  0.00     0.015 C 
HETATM   30  C   UNL     1      26.587  46.799  49.750  1.00  0.00     0.006 C 
ENDBRANCH  28  29
ENDBRANCH  25  28
ENDBRANCH   1  24
TORSDOF 6
ENDMDL
MODEL 2
REMARK VINA RESULT:      -7.5      2.953      3.985
REMARK  6 active torsions:
REMARK  status: ('A' for Active; 'I' for Inactive)
REMARK    1  A    between atoms: C_2  and  C_3 
REMARK    2  A    between atoms: C_3  and  N_4 
REMARK       I    between atoms: N_4  and  C_5 
REMARK    3  A    between atoms: C_5  and  C_6 
REMARK    4  A    between atoms: C_11  and  C_12 
REMARK    5  A    between atoms: C_15  and  O_16 
REMARK    6  A    between atoms: C_21  and  C_22 
ROOT
HETATM    1  C   UNL     1      22.406  48.378  48.844  1.00  0.00     0.170 A 
HETATM    2  N   UNL     1      21.285  47.658  48.580  1.00  0.00    -0.163 NA
HETATM    3  N   UNL     1      20.446  48.561  48.044  1.00  0.00    -0.238 N 
HETATM    4  C   UNL     1      20.994  49.802  47.875  1.00  0.00     0.145 A 
HETATM    5  N   UNL     1      20.301  50.804  47.281  1.00  0.00    -0.365 N 
HETATM    6  C   UNL     1      18.891  50.680  46.928  1.00  0.00     0.118 C 
HETATM    7  C   UNL     1      18.553  49.210  46.616  1.00  0.00     0.066 C 
HETATM    8  C   UNL     1      19.101  48.200  47.641  1.00  0.00     0.221 C 
HETATM    9  C   UNL     1      22.260  49.725  48.408  1.00  0.00     0.115 A 
HETATM   10 CL   UNL     1      23.394  50.984  48.504  1.00  0.00    -0.077 Cl
HETATM   11  H   UNL     1      20.675  51.753  47.274  1.00  0.00     0.162 HD
ENDROOT
BRANCH   6  12
HETATM   12  C   UNL     1      17.965  51.363  47.921  1.00  0.00    -0.035 A 
HETATM   13  C   UNL     1      18.430  52.092  49.025  1.00  0.00     0.012 A 
HETATM   14  C   UNL     1      17.538  52.731  49.892  1.00  0.00     0.037 A 
HETATM   15  C   UNL     1      16.161  52.670  49.674  1.00  0.00     0.068 A 
HETATM   16  C   UNL     1      15.683  51.950  48.582  1.00  0.00     0.037 A 
HETATM   17  C   UNL     1      16.575  51.307  47.714  1.00  0.00     0.012 A 
BRANCH  15  18
HETATM   18  O   UNL     1      15.406  53.346  50.589  1.00  0.00    -0.356 OA
HETATM   19  C   UNL     1      13.995  53.230  50.470  1.00  0.00     0.210 C 
ENDBRANCH  15  18
ENDBRANCH   6  12
BRANCH   8  20
HETATM   20  C   UNL     1      18.222  48.021  48.859  1.00  0.00     0.409 C 
HETATM   21  F   UNL     1      16.919  48.266  48.633  1.00  0.00    -0.169 F 
HETATM   22  F   UNL     1      18.317  46.746  49.321  1.00  0.00    -0.169 F 
HETATM   23  F   UNL     1      18.613  48.820  49.880  1.00  0.00    -0.169 F 
ENDBRANCH   8  20
BRANCH   1  24
HETATM   24  C   UNL     1      23.564  47.754  49.501  1.00  0.00     0.273 C 
HETATM   25  N   UNL     1      23.459  46.379  49.577  1.00  0.00    -0.356 N 
HETATM   26  H   UNL     1      22.584  45.990  49.236  1.00  0.00     0.162 HD
HETATM   27  O   UNL     1      24.516  48.381  49.953  1.00  0.00    -0.266 OA
BRANCH  25  28
HETATM   28  C   UNL     1      24.395  45.557  50.307  1.00  0.00     0.122 C 
BRANCH  28  29
HETATM   29  C   UNL     1      25.489  44.982  49.410  1.00  0.00     0.015 C 
HETATM   30  C   UNL     1      26.877  45.475  49.790  1.00  0.00     0.006 C 
ENDBRANCH  28  29
ENDBRANCH  25  28
ENDBRANCH   1  24
TORSDOF 6
ENDMDL
MODEL 3
REMARK VINA RESULT:      -7.4     10.328     14.232
REMARK  6 active torsions:
REMARK  status: ('A' for Active; 'I' for Inactive)
REMARK    1  A    between atoms: C_2  and  C_3 
REMARK    2  A    between atoms: C_3  and  N_4 
REMARK       I    between atoms: N_4  and  C_5 
REMARK    3  A    between atoms: C_5  and  C_6 
REMARK    4  A    between atoms: C_11  and  C_12 
REMARK    5  A    between atoms: C_15  and  O_16 
REMARK    6  A    between atoms: C_21  and  C_22 
ROOT
HETATM    1  C   UNL     1      26.617  49.534  38.268  1.00  0.00     0.170 A 
HETATM    2  N   UNL     1      27.197  50.732  38.001  1.00  0.00    -0.163 NA
HETATM    3  N   UNL     1      28.496  50.524  38.279  1.00  0.00    -0.238 N 
HETATM    4  C   UNL     1      28.793  49.239  38.632  1.00  0.00     0.145 A 
HETATM    5  N   UNL     1      30.069  48.851  38.873  1.00  0.00    -0.365 N 
HETATM    6  C   UNL     1      31.179  49.795  38.927  1.00  0.00     0.118 C 
HETATM    7  C   UNL     1      30.893  50.997  38.007  1.00  0.00     0.066 C 
HETATM    8  C   UNL     1      29.477  51.585  38.151  1.00  0.00     0.221 C 
HETATM    9  C   UNL     1      27.590  48.573  38.659  1.00  0.00     0.115 A 
HETATM   10 CL   UNL     1      27.345  46.944  39.068  1.00  0.00    -0.077 Cl
HETATM   11  H   UNL     1      30.261  47.923  39.254  1.00  0.00     0.162 HD
ENDROOT
BRANCH   6  12
HETATM   12  C   UNL     1      31.595  50.147  40.345  1.00  0.00    -0.035 A 
HETATM   13  C   UNL     1      32.554  51.128  40.640  1.00  0.00     0.012 A 
HETATM   14  C   UNL     1      32.879  51.439  41.964  1.00  0.00     0.037 A 
HETATM   15  C   UNL     1      32.250  50.791  43.027  1.00  0.00     0.068 A 
HETATM   16  C   UNL     1      31.295  49.816  42.751  1.00  0.00     0.037 A 
HETATM   17  C   UNL     1      30.970  49.500  41.426  1.00  0.00     0.012 A 
BRANCH  15  18
HETATM   18  O   UNL     1      32.654  51.199  44.266  1.00  0.00    -0.356 OA
HETATM   19  C   UNL     1      33.819  52.011  44.328  1.00  0.00     0.210 C 
ENDBRANCH  15  18
ENDBRANCH   6  12
BRANCH   8  20
HETATM   20  C   UNL     1      29.331  52.570  39.289  1.00  0.00     0.409 C 
HETATM   21  F   UNL     1      28.865  52.025  40.426  1.00  0.00    -0.169 F 
HETATM   22  F   UNL     1      30.534  53.134  39.575  1.00  0.00    -0.169 F 
HETATM   23  F   UNL     1      28.506  53.593  38.962  1.00  0.00    -0.169 F 
ENDBRANCH   8  20
BRANCH   1  24
HETATM   24  C   UNL     1      25.161  49.358  38.142  1.00  0.00     0.273 C 
HETATM   25  N   UNL     1      24.468  49.828  39.240  1.00  0.00    -0.356 N 
HETATM   26  H   UNL     1      25.045  50.166  40.006  1.00  0.00     0.162 HD
HETATM   27  O   UNL     1      24.616  48.835  37.177  1.00  0.00    -0.266 OA
BRANCH  25  28
HETATM   28  C   UNL     1      23.049  49.635  39.417  1.00  0.00     0.122 C 
BRANCH  28  29
HETATM   29  C   UNL     1      22.277  50.952  39.419  1.00  0.00     0.015 C 
HETATM   30  C   UNL     1      21.409  51.120  40.658  1.00  0.00     0.006 C 
ENDBRANCH  28  29
ENDBRANCH  25  28
ENDBRANCH   1  24
TORSDOF 6
ENDMDL
MODEL 4
REMARK VINA RESULT:      -7.4     10.938     13.570
REMARK  6 active torsions:
REMARK  status: ('A' for Active; 'I' for Inactive)
REMARK    1  A    between atoms: C_2  and  C_3 
REMARK    2  A    between atoms: C_3  and  N_4 
REMARK       I    between atoms: N_4  and  C_5 
REMARK    3  A    between atoms: C_5  and  C_6 
REMARK    4  A    between atoms: C_11  and  C_12 
REMARK    5  A    between atoms: C_15  and  O_16 
REMARK    6  A    between atoms: C_21  and  C_22 
ROOT
HETATM    1  C   UNL     1      33.736  51.748  42.313  1.00  0.00     0.170 A 
HETATM    2  N   UNL     1      33.483  51.928  40.991  1.00  0.00    -0.163 NA
HETATM    3  N   UNL     1      32.146  52.062  40.939  1.00  0.00    -0.238 N 
HETATM    4  C   UNL     1      31.536  52.058  42.161  1.00  0.00     0.145 A 
HETATM    5  N   UNL     1      30.201  52.256  42.284  1.00  0.00    -0.365 N 
HETATM    6  C   UNL     1      29.311  52.327  41.131  1.00  0.00     0.118 C 
HETATM    7  C   UNL     1      30.070  52.883  39.912  1.00  0.00     0.066 C 
HETATM    8  C   UNL     1      31.452  52.246  39.679  1.00  0.00     0.221 C 
HETATM    9  C   UNL     1      32.538  51.832  43.076  1.00  0.00     0.115 A 
HETATM   10 CL   UNL     1      32.359  51.694  44.758  1.00  0.00    -0.077 Cl
HETATM   11  H   UNL     1      29.744  52.129  43.187  1.00  0.00     0.162 HD
ENDROOT
BRANCH   6  12
HETATM   12  C   UNL     1      28.546  51.037  40.887  1.00  0.00    -0.035 A 
HETATM   13  C   UNL     1      28.760  49.868  41.632  1.00  0.00     0.012 A 
HETATM   14  C   UNL     1      28.007  48.715  41.391  1.00  0.00     0.037 A 
HETATM   15  C   UNL     1      27.013  48.700  40.412  1.00  0.00     0.068 A 
HETATM   16  C   UNL     1      26.787  49.853  39.665  1.00  0.00     0.037 A 
HETATM   17  C   UNL     1      27.543  51.009  39.902  1.00  0.00     0.012 A 
BRANCH  15  18
HETATM   18  O   UNL     1      26.347  47.514  40.290  1.00  0.00    -0.356 OA
HETATM   19  C   UNL     1      25.031  47.458  40.824  1.00  0.00     0.210 C 
ENDBRANCH  15  18
ENDBRANCH   6  12
BRANCH   8  20
HETATM   20  C   UNL     1      31.410  50.944  38.911  1.00  0.00     0.409 C 
HETATM   21  F   UNL     1      30.320  50.804  38.136  1.00  0.00    -0.169 F 
HETATM   22  F   UNL     1      32.496  50.843  38.101  1.00  0.00    -0.169 F 
HETATM   23  F   UNL     1      31.458  49.873  39.739  1.00  0.00    -0.169 F 
ENDBRANCH   8  20
BRANCH   1  24
HETATM   24  C   UNL     1      35.106  51.502  42.790  1.00  0.00     0.273 C 
HETATM   25  N   UNL     1      35.533  52.448  43.701  1.00  0.00    -0.356 N 
HETATM   26  H   UNL     1      34.885  53.212  43.871  1.00  0.00     0.162 HD
HETATM   27  O   UNL     1      35.807  50.571  42.410  1.00  0.00    -0.266 OA
BRANCH  25  28
HETATM   28  C   UNL     1      36.887  52.507  44.199  1.00  0.00     0.122 C 
BRANCH  28  29
HETATM   29  C   UNL     1      37.463  53.920  44.156  1.00  0.00     0.015 C 
HETATM   30  C   UNL     1      37.667  54.511  45.544  1.00  0.00     0.006 C 
ENDBRANCH  28  29
ENDBRANCH  25  28
ENDBRANCH   1  24
TORSDOF 6
ENDMDL
MODEL 5
REMARK VINA RESULT:      -7.3     24.410     25.926
REMARK  6 active torsions:
REMARK  status: ('A' for Active; 'I' for Inactive)
REMARK    1  A    between atoms: C_2  and  C_3 
REMARK    2  A    between atoms: C_3  and  N_4 
REMARK       I    between atoms: N_4  and  C_5 
REMARK    3  A    between atoms: C_5  and  C_6 
REMARK    4  A    between atoms: C_11  and  C_12 
REMARK    5  A    between atoms: C_15  and  O_16 
REMARK    6  A    between atoms: C_21  and  C_22 
ROOT
HETATM    1  C   UNL     1      37.674  46.335  66.148  1.00  0.00     0.170 A 
HETATM    2  N   UNL     1      38.627  46.360  65.181  1.00  0.00    -0.163 NA
HETATM    3  N   UNL     1      38.365  45.263  64.449  1.00  0.00    -0.238 N 
HETATM    4  C   UNL     1      37.250  44.580  64.845  1.00  0.00     0.145 A 
HETATM    5  N   UNL     1      36.811  43.492  64.165  1.00  0.00    -0.365 N 
HETATM    6  C   UNL     1      37.570  42.889  63.076  1.00  0.00     0.118 C 
HETATM    7  C   UNL     1      38.413  43.964  62.363  1.00  0.00     0.066 C 
HETATM    8  C   UNL     1      39.187  44.898  63.311  1.00  0.00     0.221 C 
HETATM    9  C   UNL     1      36.789  45.235  65.962  1.00  0.00     0.115 A 
HETATM   10 CL   UNL     1      35.442  44.808  66.901  1.00  0.00    -0.077 Cl
HETATM   11  H   UNL     1      36.052  42.923  64.542  1.00  0.00     0.162 HD
ENDROOT
BRANCH   6  12
HETATM   12  C   UNL     1      38.329  41.642  63.497  1.00  0.00    -0.035 A 
HETATM   13  C   UNL     1      38.330  41.153  64.812  1.00  0.00     0.012 A 
HETATM   14  C   UNL     1      39.018  39.982  65.143  1.00  0.00     0.037 A 
HETATM   15  C   UNL     1      39.711  39.260  64.171  1.00  0.00     0.068 A 
HETATM   16  C   UNL     1      39.719  39.730  62.860  1.00  0.00     0.037 A 
HETATM   17  C   UNL     1      39.033  40.906  62.527  1.00  0.00     0.012 A 
BRANCH  15  18
HETATM   18  O   UNL     1      40.328  38.130  64.628  1.00  0.00    -0.356 OA
HETATM   19  C   UNL     1      40.319  37.917  66.033  1.00  0.00     0.210 C 
ENDBRANCH  15  18
ENDBRANCH   6  12
BRANCH   8  20
HETATM   20  C   UNL     1      40.511  44.339  63.782  1.00  0.00     0.409 C 
HETATM   21  F   UNL     1      40.443  43.693  64.960  1.00  0.00    -0.169 F 
HETATM   22  F   UNL     1      40.999  43.459  62.868  1.00  0.00    -0.169 F 
HETATM   23  F   UNL     1      41.448  45.309  63.906  1.00  0.00    -0.169 F 
ENDBRANCH   8  20
BRANCH   1  24
HETATM   24  C   UNL     1      37.649  47.356  67.207  1.00  0.00     0.273 C 
HETATM   25  N   UNL     1      37.220  48.587  66.753  1.00  0.00    -0.356 N 
HETATM   26  H   UNL     1      37.044  48.645  65.753  1.00  0.00     0.162 HD
HETATM   27  O   UNL     1      37.990  47.148  68.366  1.00  0.00    -0.266 OA
BRANCH  25  28
HETATM   28  C   UNL     1      37.251  49.780  67.565  1.00  0.00     0.122 C 
BRANCH  28  29
HETATM   29  C   UNL     1      38.300  50.783  67.087  1.00  0.00     0.015 C 
HETATM   30  C   UNL     1      37.682  51.999  66.412  1.00  0.00     0.006 C 
ENDBRANCH  28  29
ENDBRANCH  25  28
ENDBRANCH   1  24
TORSDOF 6
ENDMDL
MODEL 6
REMARK VINA RESULT:      -7.3     11.209     15.378
REMARK  6 active torsions:
REMARK  status: ('A' for Active; 'I' for Inactive)
REMARK    1  A    between atoms: C_2  and  C_3 
REMARK    2  A    between atoms: C_3  and  N_4 
REMARK       I    between atoms: N_4  and  C_5 
REMARK    3  A    between atoms: C_5  and  C_6 
REMARK    4  A    between atoms: C_11  and  C_12 
REMARK    5  A    between atoms: C_15  and  O_16 
REMARK    6  A    between atoms: C_21  and  C_22 
ROOT
HETATM    1  C   UNL     1      28.478  50.635  40.019  1.00  0.00     0.170 A 
HETATM    2  N   UNL     1      29.035  49.512  40.543  1.00  0.00    -0.163 NA
HETATM    3  N   UNL     1      30.095  49.974  41.228  1.00  0.00    -0.238 N 
HETATM    4  C   UNL     1      30.203  51.336  41.240  1.00  0.00     0.145 A 
HETATM    5  N   UNL     1      31.177  51.960  41.947  1.00  0.00    -0.365 N 
HETATM    6  C   UNL     1      32.255  51.233  42.607  1.00  0.00     0.118 C 
HETATM    7  C   UNL     1      31.768  49.832  43.023  1.00  0.00     0.066 C 
HETATM    8  C   UNL     1      30.993  49.076  41.928  1.00  0.00     0.221 C 
HETATM    9  C   UNL     1      29.182  51.797  40.443  1.00  0.00     0.115 A 
HETATM   10 CL   UNL     1      28.847  53.417  40.065  1.00  0.00    -0.077 Cl
HETATM   11  H   UNL     1      31.320  52.966  41.847  1.00  0.00     0.162 HD
ENDROOT
BRANCH   6  12
HETATM   12  C   UNL     1      33.559  51.262  41.828  1.00  0.00    -0.035 A 
HETATM   13  C   UNL     1      33.657  51.754  40.518  1.00  0.00     0.012 A 
HETATM   14  C   UNL     1      34.887  51.790  39.854  1.00  0.00     0.037 A 
HETATM   15  C   UNL     1      36.052  51.350  40.482  1.00  0.00     0.068 A 
HETATM   16  C   UNL     1      35.973  50.860  41.783  1.00  0.00     0.037 A 
HETATM   17  C   UNL     1      34.741  50.820  42.449  1.00  0.00     0.012 A 
BRANCH  15  18
HETATM   18  O   UNL     1      37.184  51.452  39.725  1.00  0.00    -0.356 OA
HETATM   19  C   UNL     1      37.127  52.312  38.594  1.00  0.00     0.210 C 
ENDBRANCH  15  18
ENDBRANCH   6  12
BRANCH   8  20
HETATM   20  C   UNL     1      31.876  48.347  40.940  1.00  0.00     0.409 C 
HETATM   21  F   UNL     1      32.123  49.040  39.814  1.00  0.00    -0.169 F 
HETATM   22  F   UNL     1      33.077  48.061  41.509  1.00  0.00    -0.169 F 
HETATM   23  F   UNL     1      31.342  47.158  40.574  1.00  0.00    -0.169 F 
ENDBRANCH   8  20
BRANCH   1  24
HETATM   24  C   UNL     1      27.303  50.552  39.137  1.00  0.00     0.273 C 
HETATM   25  N   UNL     1      26.182  50.072  39.783  1.00  0.00    -0.356 N 
HETATM   26  H   UNL     1      26.326  49.781  40.747  1.00  0.00     0.162 HD
HETATM   27  O   UNL     1      27.316  50.856  37.949  1.00  0.00    -0.266 OA
BRANCH  25  28
HETATM   28  C   UNL     1      24.951  49.760  39.097  1.00  0.00     0.122 C 
BRANCH  28  29
HETATM   29  C   UNL     1      24.427  48.367  39.442  1.00  0.00     0.015 C 
HETATM   30  C   UNL     1      25.299  47.650  40.463  1.00  0.00     0.006 C 
ENDBRANCH  28  29
ENDBRANCH  25  28
ENDBRANCH   1  24
TORSDOF 6
ENDMDL
MODEL 7
REMARK VINA RESULT:      -7.0     12.324     14.720
REMARK  6 active torsions:
REMARK  status: ('A' for Active; 'I' for Inactive)
REMARK    1  A    between atoms: C_2  and  C_3 
REMARK    2  A    between atoms: C_3  and  N_4 
REMARK       I    between atoms: N_4  and  C_5 
REMARK    3  A    between atoms: C_5  and  C_6 
REMARK    4  A    between atoms: C_11  and  C_12 
REMARK    5  A    between atoms: C_15  and  O_16 
REMARK    6  A    between atoms: C_21  and  C_22 
ROOT
HETATM    1  C   UNL     1      34.282  52.441  40.078  1.00  0.00     0.170 A 
HETATM    2  N   UNL     1      33.028  52.948  40.206  1.00  0.00    -0.163 NA
HETATM    3  N   UNL     1      32.385  52.021  40.936  1.00  0.00    -0.238 N 
HETATM    4  C   UNL     1      33.176  50.987  41.350  1.00  0.00     0.145 A 
HETATM    5  N   UNL     1      32.694  50.009  42.155  1.00  0.00    -0.365 N 
HETATM    6  C   UNL     1      31.282  49.904  42.502  1.00  0.00     0.118 C 
HETATM    7  C   UNL     1      30.635  51.302  42.505  1.00  0.00     0.066 C 
HETATM    8  C   UNL     1      30.984  52.166  41.280  1.00  0.00     0.221 C 
HETATM    9  C   UNL     1      34.411  51.216  40.789  1.00  0.00     0.115 A 
HETATM   10 CL   UNL     1      35.786  50.233  40.937  1.00  0.00    -0.077 Cl
HETATM   11  H   UNL     1      33.260  49.182  42.354  1.00  0.00     0.162 HD
ENDROOT
BRANCH   6  12
HETATM   12  C   UNL     1      30.545  48.849  41.693  1.00  0.00    -0.035 A 
HETATM   13  C   UNL     1      29.178  48.579  41.852  1.00  0.00     0.012 A 
HETATM   14  C   UNL     1      28.538  47.621  41.060  1.00  0.00     0.037 A 
HETATM   15  C   UNL     1      29.240  46.916  40.082  1.00  0.00     0.068 A 
HETATM   16  C   UNL     1      30.598  47.173  39.910  1.00  0.00     0.037 A 
HETATM   17  C   UNL     1      31.241  48.130  40.705  1.00  0.00     0.012 A 
BRANCH  15  18
HETATM   18  O   UNL     1      28.491  46.020  39.374  1.00  0.00    -0.356 OA
HETATM   19  C   UNL     1      27.940  44.928  40.099  1.00  0.00     0.210 C 
ENDBRANCH  15  18
ENDBRANCH   6  12
BRANCH   8  20
HETATM   20  C   UNL     1      30.118  51.897  40.069  1.00  0.00     0.409 C 
HETATM   21  F   UNL     1      28.899  51.413  40.366  1.00  0.00    -0.169 F 
HETATM   22  F   UNL     1      29.935  53.043  39.361  1.00  0.00    -0.169 F 
HETATM   23  F   UNL     1      30.705  51.022  39.219  1.00  0.00    -0.169 F 
ENDBRANCH   8  20
BRANCH   1  24
HETATM   24  C   UNL     1      35.300  53.144  39.281  1.00  0.00     0.273 C 
HETATM   25  N   UNL     1      35.248  54.515  39.436  1.00  0.00    -0.356 N 
HETATM   26  H   UNL     1      34.486  54.859  40.015  1.00  0.00     0.162 HD
HETATM   27  O   UNL     1      36.100  52.581  38.541  1.00  0.00    -0.266 OA
BRANCH  25  28
HETATM   28  C   UNL     1      36.042  55.427  38.648  1.00  0.00     0.122 C 
BRANCH  28  29
HETATM   29  C   UNL     1      35.516  56.860  38.708  1.00  0.00     0.015 C 
HETATM   30  C   UNL     1      34.477  57.056  39.802  1.00  0.00     0.006 C 
ENDBRANCH  28  29
ENDBRANCH  25  28
ENDBRANCH   1  24
TORSDOF 6
ENDMDL
MODEL 8
REMARK VINA RESULT:      -6.9     11.521     13.812
REMARK  6 active torsions:
REMARK  status: ('A' for Active; 'I' for Inactive)
REMARK    1  A    between atoms: C_2  and  C_3 
REMARK    2  A    between atoms: C_3  and  N_4 
REMARK       I    between atoms: N_4  and  C_5 
REMARK    3  A    between atoms: C_5  and  C_6 
REMARK    4  A    between atoms: C_11  and  C_12 
REMARK    5  A    between atoms: C_15  and  O_16 
REMARK    6  A    between atoms: C_21  and  C_22 
ROOT
HETATM    1  C   UNL     1      32.765  52.066  39.988  1.00  0.00     0.170 A 
HETATM    2  N   UNL     1      31.567  52.568  39.592  1.00  0.00    -0.163 NA
HETATM    3  N   UNL     1      30.672  51.808  40.245  1.00  0.00    -0.238 N 
HETATM    4  C   UNL     1      31.228  50.899  41.099  1.00  0.00     0.145 A 
HETATM    5  N   UNL     1      30.459  50.106  41.885  1.00  0.00    -0.365 N 
HETATM    6  C   UNL     1      29.006  50.056  41.764  1.00  0.00     0.118 C 
HETATM    7  C   UNL     1      28.472  51.412  41.266  1.00  0.00     0.066 C 
HETATM    8  C   UNL     1      29.245  52.002  40.073  1.00  0.00     0.221 C 
HETATM    9  C   UNL     1      32.589  51.022  40.939  1.00  0.00     0.115 A 
HETATM   10 CL   UNL     1      33.786  50.114  41.729  1.00  0.00    -0.077 Cl
HETATM   11  H   UNL     1      30.883  49.350  42.424  1.00  0.00     0.162 HD
ENDROOT
BRANCH   6  12
HETATM   12  C   UNL     1      28.514  48.842  40.994  1.00  0.00    -0.035 A 
HETATM   13  C   UNL     1      29.369  47.834  40.525  1.00  0.00     0.012 A 
HETATM   14  C   UNL     1      28.863  46.719  39.850  1.00  0.00     0.037 A 
HETATM   15  C   UNL     1      27.493  46.572  39.637  1.00  0.00     0.068 A 
HETATM   16  C   UNL     1      26.629  47.563  40.098  1.00  0.00     0.037 A 
HETATM   17  C   UNL     1      27.134  48.682  40.771  1.00  0.00     0.012 A 
BRANCH  15  18
HETATM   18  O   UNL     1      27.135  45.432  38.976  1.00  0.00    -0.356 OA
HETATM   19  C   UNL     1      25.780  45.329  38.558  1.00  0.00     0.210 C 
ENDBRANCH  15  18
ENDBRANCH   6  12
BRANCH   8  20
HETATM   20  C   UNL     1      28.804  51.468  38.728  1.00  0.00     0.409 C 
HETATM   21  F   UNL     1      28.966  52.339  37.716  1.00  0.00    -0.169 F 
HETATM   22  F   UNL     1      29.511  50.350  38.415  1.00  0.00    -0.169 F 
HETATM   23  F   UNL     1      27.502  51.097  38.740  1.00  0.00    -0.169 F 
ENDBRANCH   8  20
BRANCH   1  24
HETATM   24  C   UNL     1      34.023  52.599  39.442  1.00  0.00     0.273 C 
HETATM   25  N   UNL     1      34.140  53.964  39.605  1.00  0.00    -0.356 N 
HETATM   26  H   UNL     1      33.331  54.425  40.011  1.00  0.00     0.162 HD
HETATM   27  O   UNL     1      34.872  51.913  38.884  1.00  0.00    -0.266 OA
BRANCH  25  28
HETATM   28  C   UNL     1      35.211  54.737  39.022  1.00  0.00     0.122 C 
BRANCH  28  29
HETATM   29  C   UNL     1      35.114  56.222  39.367  1.00  0.00     0.015 C 
HETATM   30  C   UNL     1      35.951  57.094  38.443  1.00  0.00     0.006 C 
ENDBRANCH  28  29
ENDBRANCH  25  28
ENDBRANCH   1  24
TORSDOF 6
ENDMDL
MODEL 9
REMARK VINA RESULT:      -6.9      2.788      3.377
REMARK  6 active torsions:
REMARK  status: ('A' for Active; 'I' for Inactive)
REMARK    1  A    between atoms: C_2  and  C_3 
REMARK    2  A    between atoms: C_3  and  N_4 
REMARK       I    between atoms: N_4  and  C_5 
REMARK    3  A    between atoms: C_5  and  C_6 
REMARK    4  A    between atoms: C_11  and  C_12 
REMARK    5  A    between atoms: C_15  and  O_16 
REMARK    6  A    between atoms: C_21  and  C_22 
ROOT
HETATM    1  C   UNL     1      21.249  47.061  48.371  1.00  0.00     0.170 A 
HETATM    2  N   UNL     1      21.666  48.303  48.729  1.00  0.00    -0.163 NA
HETATM    3  N   UNL     1      20.552  48.886  49.205  1.00  0.00    -0.238 N 
HETATM    4  C   UNL     1      19.464  48.061  49.247  1.00  0.00     0.145 A 
HETATM    5  N   UNL     1      18.284  48.477  49.769  1.00  0.00    -0.365 N 
HETATM    6  C   UNL     1      18.048  49.859  50.171  1.00  0.00     0.118 C 
HETATM    7  C   UNL     1      19.369  50.509  50.622  1.00  0.00     0.066 C 
HETATM    8  C   UNL     1      20.558  50.257  49.676  1.00  0.00     0.221 C 
HETATM    9  C   UNL     1      19.875  46.873  48.689  1.00  0.00     0.115 A 
HETATM   10 CL   UNL     1      18.926  45.487  48.449  1.00  0.00    -0.077 Cl
HETATM   11  H   UNL     1      17.450  47.895  49.681  1.00  0.00     0.162 HD
ENDROOT
BRANCH   6  12
HETATM   12  C   UNL     1      17.251  50.650  49.148  1.00  0.00    -0.035 A 
HETATM   13  C   UNL     1      16.951  50.163  47.867  1.00  0.00     0.012 A 
HETATM   14  C   UNL     1      16.185  50.917  46.973  1.00  0.00     0.037 A 
HETATM   15  C   UNL     1      15.687  52.168  47.335  1.00  0.00     0.068 A 
HETATM   16  C   UNL     1      15.974  52.666  48.604  1.00  0.00     0.037 A 
HETATM   17  C   UNL     1      16.744  51.914  49.500  1.00  0.00     0.012 A 
BRANCH  15  18
HETATM   18  O   UNL     1      14.946  52.791  46.371  1.00  0.00    -0.356 OA
HETATM   19  C   UNL     1      14.143  53.888  46.786  1.00  0.00     0.210 C 
ENDBRANCH  15  18
ENDBRANCH   6  12
BRANCH   8  20
HETATM   20  C   UNL     1      20.625  51.211  48.504  1.00  0.00     0.409 C 
HETATM   21  F   UNL     1      20.113  50.712  47.365  1.00  0.00    -0.169 F 
HETATM   22  F   UNL     1      19.941  52.350  48.788  1.00  0.00    -0.169 F 
HETATM   23  F   UNL     1      21.897  51.593  48.242  1.00  0.00    -0.169 F 
ENDBRANCH   8  20
BRANCH   1  24
HETATM   24  C   UNL     1      22.176  46.109  47.739  1.00  0.00     0.273 C 
HETATM   25  N   UNL     1      22.799  45.282  48.652  1.00  0.00    -0.356 N 
HETATM   26  H   UNL     1      22.592  45.478  49.628  1.00  0.00     0.162 HD
HETATM   27  O   UNL     1      22.393  46.062  46.533  1.00  0.00    -0.266 OA
BRANCH  25  28
HETATM   28  C   UNL     1      23.858  44.369  48.294  1.00  0.00     0.122 C 
BRANCH  28  29
HETATM   29  C   UNL     1      25.080  44.510  49.199  1.00  0.00     0.015 C 
HETATM   30  C   UNL     1      24.719  44.497  50.677  1.00  0.00     0.006 C 
ENDBRANCH  28  29
ENDBRANCH  25  28
ENDBRANCH   1  24
TORSDOF 6
ENDMDL
MODEL 10
REMARK VINA RESULT:      -6.9      9.758     13.612
REMARK  6 active torsions:
REMARK  status: ('A' for Active; 'I' for Inactive)
REMARK    1  A    between atoms: C_2  and  C_3 
REMARK    2  A    between atoms: C_3  and  N_4 
REMARK       I    between atoms: N_4  and  C_5 
REMARK    3  A    between atoms: C_5  and  C_6 
REMARK    4  A    between atoms: C_11  and  C_12 
REMARK    5  A    between atoms: C_15  and  O_16 
REMARK    6  A    between atoms: C_21  and  C_22 
ROOT
HETATM    1  C   UNL     1      26.223  48.620  39.836  1.00  0.00     0.170 A 
HETATM    2  N   UNL     1      26.272  49.975  39.912  1.00  0.00    -0.163 NA
HETATM    3  N   UNL     1      27.527  50.269  39.532  1.00  0.00    -0.238 N 
HETATM    4  C   UNL     1      28.261  49.185  39.139  1.00  0.00     0.145 A 
HETATM    5  N   UNL     1      29.521  49.322  38.659  1.00  0.00    -0.365 N 
HETATM    6  C   UNL     1      30.231  50.596  38.674  1.00  0.00     0.118 C 
HETATM    7  C   UNL     1      29.228  51.760  38.568  1.00  0.00     0.066 C 
HETATM    8  C   UNL     1      28.009  51.636  39.502  1.00  0.00     0.221 C 
HETATM    9  C   UNL     1      27.450  48.093  39.347  1.00  0.00     0.115 A 
HETATM   10 CL   UNL     1      27.852  46.468  39.065  1.00  0.00    -0.077 Cl
HETATM   11  H   UNL     1      30.097  48.497  38.487  1.00  0.00     0.162 HD
ENDROOT
BRANCH   6  12
HETATM   12  C   UNL     1      31.235  50.705  39.808  1.00  0.00    -0.035 A 
HETATM   13  C   UNL     1      31.411  49.704  40.775  1.00  0.00     0.012 A 
HETATM   14  C   UNL     1      32.373  49.837  41.781  1.00  0.00     0.037 A 
HETATM   15  C   UNL     1      33.192  50.964  41.843  1.00  0.00     0.068 A 
HETATM   16  C   UNL     1      33.032  51.967  40.890  1.00  0.00     0.037 A 
HETATM   17  C   UNL     1      32.067  51.837  39.883  1.00  0.00     0.012 A 
BRANCH  15  18
HETATM   18  O   UNL     1      34.095  50.960  42.868  1.00  0.00    -0.356 OA
HETATM   19  C   UNL     1      35.385  51.490  42.591  1.00  0.00     0.210 C 
ENDBRANCH  15  18
ENDBRANCH   6  12
BRANCH   8  20
HETATM   20  C   UNL     1      28.258  52.133  40.908  1.00  0.00     0.409 C 
HETATM   21  F   UNL     1      28.693  51.182  41.754  1.00  0.00    -0.169 F 
HETATM   22  F   UNL     1      29.192  53.120  40.897  1.00  0.00    -0.169 F 
HETATM   23  F   UNL     1      27.143  52.678  41.451  1.00  0.00    -0.169 F 
ENDBRANCH   8  20
BRANCH   1  24
HETATM   24  C   UNL     1      25.010  47.888  40.234  1.00  0.00     0.273 C 
HETATM   25  N   UNL     1      25.213  47.074  41.330  1.00  0.00    -0.356 N 
HETATM   26  H   UNL     1      26.169  47.035  41.673  1.00  0.00     0.162 HD
HETATM   27  O   UNL     1      23.936  47.972  39.649  1.00  0.00    -0.266 OA
BRANCH  25  28
HETATM   28  C   UNL     1      24.219  46.147  41.817  1.00  0.00     0.122 C 
BRANCH  28  29
HETATM   29  C   UNL     1      24.760  44.724  41.942  1.00  0.00     0.015 C 
HETATM   30  C   UNL     1      26.267  44.688  42.158  1.00  0.00     0.006 C 
ENDBRANCH  28  29
ENDBRANCH  25  28
ENDBRANCH   1  24
TORSDOF 6
ENDMDL
