MODEL 1
REMARK VINA RESULT:      -9.5      0.000      0.000
REMARK  4 active torsions:
REMARK  status: ('A' for Active; 'I' for Inactive)
REMARK    1  A    between atoms: C_9  and  C_10 
REMARK    2  A    between atoms: C_20  and  C_21 
REMARK       I    between atoms: C_21  and  N_22 
REMARK    3  A    between atoms: N_22  and  C_23 
REMARK    4  A    between atoms: C_24  and  O_25 
ROOT
HETATM    1  C   UNL     1      22.882  43.603  49.492  1.00  0.00     0.070 C 
HETATM    2  C   UNL     1      24.008  44.515  49.910  1.00  0.00     0.037 C 
HETATM    3  N   UNL     1      23.770  45.880  49.759  1.00  0.00    -0.192 N 
HETATM    4  C   UNL     1      24.767  46.790  49.758  1.00  0.00     0.725 A 
HETATM    5  N   UNL     1      26.021  46.412  50.160  1.00  0.00    -0.084 N 
HETATM    6  N   UNL     1      26.911  47.413  49.996  1.00  0.00    -0.149 NA
HETATM    7  C   UNL     1      26.108  48.382  49.542  1.00  0.00     0.275 A 
HETATM    8  N   UNL     1      24.788  48.044  49.385  1.00  0.00    -0.054 NA
HETATM    9  C   UNL     1      26.354  45.066  50.651  1.00  0.00     0.203 C 
HETATM   10  C   UNL     1      25.226  44.092  50.334  1.00  0.00     0.062 C 
HETATM   11  H   UNL     1      22.890  46.151  49.326  1.00  0.00     0.184 HD
ENDROOT
BRANCH  10  12
HETATM   12  C   UNL     1      25.615  42.663  50.333  1.00  0.00     0.256 C 
HETATM   13  N   UNL     1      26.673  42.380  49.506  1.00  0.00    -0.321 N 
HETATM   14  H   UNL     1      26.977  43.086  48.841  1.00  0.00     0.169 HD
HETATM   15  O   UNL     1      24.981  41.880  51.030  1.00  0.00    -0.267 OA
BRANCH  13  16
HETATM   16  C   UNL     1      27.454  41.202  49.486  1.00  0.00     0.068 A 
HETATM   17  C   UNL     1      27.968  40.787  48.239  1.00  0.00     0.095 A 
HETATM   18  C   UNL     1      28.816  39.676  48.170  1.00  0.00     0.039 A 
HETATM   19  C   UNL     1      29.140  38.969  49.328  1.00  0.00     0.003 A 
HETATM   20  C   UNL     1      28.619  39.366  50.557  1.00  0.00     0.002 A 
HETATM   21  C   UNL     1      27.779  40.478  50.637  1.00  0.00     0.032 A 
BRANCH  17  22
HETATM   22  O   UNL     1      27.606  41.557  47.156  1.00  0.00    -0.354 OA
HETATM   23  C   UNL     1      27.736  40.936  45.882  1.00  0.00     0.210 C 
ENDBRANCH  17  22
ENDBRANCH  13  16
ENDBRANCH  10  12
BRANCH   9  24
HETATM   24  C   UNL     1      26.657  45.133  52.157  1.00  0.00    -0.017 A 
HETATM   25  C   UNL     1      27.763  44.452  52.753  1.00  0.00    -0.017 A 
HETATM   26  C   UNL     1      28.002  44.634  54.143  1.00  0.00    -0.025 A 
HETATM   27  C   UNL     1      28.658  43.601  52.058  1.00  0.00     0.013 A 
HETATM   28  C   UNL     1      29.094  44.010  54.767  1.00  0.00     0.012 A 
HETATM   29  C   UNL     1      27.154  45.445  54.908  1.00  0.00     0.012 A 
HETATM   30  C   UNL     1      29.960  43.191  54.049  1.00  0.00     0.001 A 
HETATM   31  C   UNL     1      29.739  42.983  52.696  1.00  0.00     0.001 A 
HETATM   32  C   UNL     1      26.064  46.084  54.331  1.00  0.00     0.002 A 
HETATM   33  C   UNL     1      25.818  45.930  52.973  1.00  0.00     0.010 A 
ENDBRANCH   9  24
TORSDOF 4
ENDMDL
MODEL 2
REMARK VINA RESULT:      -8.9      1.874      2.230
REMARK  4 active torsions:
REMARK  status: ('A' for Active; 'I' for Inactive)
REMARK    1  A    between atoms: C_9  and  C_10 
REMARK    2  A    between atoms: C_20  and  C_21 
REMARK       I    between atoms: C_21  and  N_22 
REMARK    3  A    between atoms: N_22  and  C_23 
REMARK    4  A    between atoms: C_24  and  O_25 
ROOT
HETATM    1  C   UNL     1      22.171  46.102  48.801  1.00  0.00     0.070 C 
HETATM    2  C   UNL     1      23.540  46.535  49.263  1.00  0.00     0.037 C 
HETATM    3  N   UNL     1      23.834  47.887  49.099  1.00  0.00    -0.192 N 
HETATM    4  C   UNL     1      25.098  48.359  49.138  1.00  0.00     0.725 A 
HETATM    5  N   UNL     1      26.105  47.548  49.591  1.00  0.00    -0.084 N 
HETATM    6  N   UNL     1      27.310  48.142  49.461  1.00  0.00    -0.149 NA
HETATM    7  C   UNL     1      26.944  49.333  48.974  1.00  0.00     0.275 A 
HETATM    8  N   UNL     1      25.599  49.509  48.764  1.00  0.00    -0.054 NA
HETATM    9  C   UNL     1      25.893  46.184  50.097  1.00  0.00     0.203 C 
HETATM   10  C   UNL     1      24.496  45.695  49.736  1.00  0.00     0.062 C 
HETATM   11  H   UNL     1      23.136  48.460  48.631  1.00  0.00     0.184 HD
ENDROOT
BRANCH  10  12
HETATM   12  C   UNL     1      24.323  44.224  49.753  1.00  0.00     0.256 C 
HETATM   13  N   UNL     1      24.991  43.579  48.743  1.00  0.00    -0.321 N 
HETATM   14  H   UNL     1      25.377  44.130  47.982  1.00  0.00     0.169 HD
HETATM   15  O   UNL     1      23.618  43.724  50.622  1.00  0.00    -0.267 OA
BRANCH  13  16
HETATM   16  C   UNL     1      25.261  42.195  48.641  1.00  0.00     0.068 A 
HETATM   17  C   UNL     1      24.728  41.512  47.528  1.00  0.00     0.095 A 
HETATM   18  C   UNL     1      25.030  40.160  47.330  1.00  0.00     0.039 A 
HETATM   19  C   UNL     1      25.843  39.483  48.239  1.00  0.00     0.003 A 
HETATM   20  C   UNL     1      26.356  40.151  49.348  1.00  0.00     0.002 A 
HETATM   21  C   UNL     1      26.066  41.502  49.550  1.00  0.00     0.032 A 
BRANCH  17  22
HETATM   22  O   UNL     1      23.950  42.267  46.678  1.00  0.00    -0.354 OA
HETATM   23  C   UNL     1      23.477  41.600  45.512  1.00  0.00     0.210 C 
ENDBRANCH  17  22
ENDBRANCH  13  16
ENDBRANCH  10  12
BRANCH   9  24
HETATM   24  C   UNL     1      26.143  46.158  51.614  1.00  0.00    -0.017 A 
HETATM   25  C   UNL     1      26.976  45.181  52.243  1.00  0.00    -0.017 A 
HETATM   26  C   UNL     1      27.202  45.284  53.643  1.00  0.00    -0.025 A 
HETATM   27  C   UNL     1      27.607  44.104  51.572  1.00  0.00     0.013 A 
HETATM   28  C   UNL     1      28.037  44.366  54.300  1.00  0.00     0.012 A 
HETATM   29  C   UNL     1      26.601  46.308  54.385  1.00  0.00     0.012 A 
HETATM   30  C   UNL     1      28.652  43.329  53.605  1.00  0.00     0.001 A 
HETATM   31  C   UNL     1      28.433  43.195  52.242  1.00  0.00     0.001 A 
HETATM   32  C   UNL     1      25.772  47.240  53.776  1.00  0.00     0.002 A 
HETATM   33  C   UNL     1      25.545  47.166  52.407  1.00  0.00     0.010 A 
ENDBRANCH   9  24
TORSDOF 4
ENDMDL
MODEL 3
REMARK VINA RESULT:      -8.9      3.118      6.547
REMARK  4 active torsions:
REMARK  status: ('A' for Active; 'I' for Inactive)
REMARK    1  A    between atoms: C_9  and  C_10 
REMARK    2  A    between atoms: C_20  and  C_21 
REMARK       I    between atoms: C_21  and  N_22 
REMARK    3  A    between atoms: N_22  and  C_23 
REMARK    4  A    between atoms: C_24  and  O_25 
ROOT
HETATM    1  C   UNL     1      25.768  42.850  50.003  1.00  0.00     0.070 C 
HETATM    2  C   UNL     1      25.680  44.256  50.542  1.00  0.00     0.037 C 
HETATM    3  N   UNL     1      26.574  44.571  51.563  1.00  0.00    -0.192 N 
HETATM    4  C   UNL     1      26.400  45.640  52.369  1.00  0.00     0.725 A 
HETATM    5  N   UNL     1      25.468  46.588  52.036  1.00  0.00    -0.084 N 
HETATM    6  N   UNL     1      25.355  47.524  53.001  1.00  0.00    -0.149 NA
HETATM    7  C   UNL     1      26.291  47.105  53.860  1.00  0.00     0.275 A 
HETATM    8  N   UNL     1      26.957  45.958  53.509  1.00  0.00    -0.054 NA
HETATM    9  C   UNL     1      24.659  46.546  50.809  1.00  0.00     0.203 C 
HETATM   10  C   UNL     1      24.755  45.173  50.156  1.00  0.00     0.062 C 
HETATM   11  H   UNL     1      27.169  43.820  51.905  1.00  0.00     0.184 HD
ENDROOT
BRANCH  10  12
HETATM   12  C   UNL     1      23.654  44.846  49.221  1.00  0.00     0.256 C 
HETATM   13  N   UNL     1      24.070  44.640  47.930  1.00  0.00    -0.321 N 
HETATM   14  H   UNL     1      25.018  44.900  47.674  1.00  0.00     0.169 HD
HETATM   15  O   UNL     1      22.508  44.800  49.653  1.00  0.00    -0.267 OA
BRANCH  13  16
HETATM   16  C   UNL     1      23.336  44.049  46.876  1.00  0.00     0.068 A 
HETATM   17  C   UNL     1      22.442  44.877  46.166  1.00  0.00     0.095 A 
HETATM   18  C   UNL     1      21.750  44.369  45.061  1.00  0.00     0.039 A 
HETATM   19  C   UNL     1      21.930  43.042  44.670  1.00  0.00     0.003 A 
HETATM   20  C   UNL     1      22.799  42.218  45.381  1.00  0.00     0.002 A 
HETATM   21  C   UNL     1      23.500  42.718  46.480  1.00  0.00     0.032 A 
BRANCH  17  22
HETATM   22  O   UNL     1      22.343  46.175  46.615  1.00  0.00    -0.354 OA
HETATM   23  C   UNL     1      21.033  46.734  46.616  1.00  0.00     0.210 C 
ENDBRANCH  17  22
ENDBRANCH  13  16
ENDBRANCH  10  12
BRANCH   9  24
HETATM   24  C   UNL     1      25.109  47.671  49.862  1.00  0.00    -0.017 A 
HETATM   25  C   UNL     1      24.190  48.574  49.243  1.00  0.00    -0.017 A 
HETATM   26  C   UNL     1      24.711  49.626  48.441  1.00  0.00    -0.025 A 
HETATM   27  C   UNL     1      22.781  48.507  49.371  1.00  0.00     0.013 A 
HETATM   28  C   UNL     1      23.849  50.556  47.837  1.00  0.00     0.012 A 
HETATM   29  C   UNL     1      26.092  49.754  48.247  1.00  0.00     0.012 A 
HETATM   30  C   UNL     1      22.470  50.466  47.997  1.00  0.00     0.001 A 
HETATM   31  C   UNL     1      21.936  49.439  48.759  1.00  0.00     0.001 A 
HETATM   32  C   UNL     1      26.981  48.859  48.828  1.00  0.00     0.002 A 
HETATM   33  C   UNL     1      26.496  47.830  49.626  1.00  0.00     0.010 A 
ENDBRANCH   9  24
TORSDOF 4
ENDMDL
MODEL 4
REMARK VINA RESULT:      -8.6      3.144      7.132
REMARK  4 active torsions:
REMARK  status: ('A' for Active; 'I' for Inactive)
REMARK    1  A    between atoms: C_9  and  C_10 
REMARK    2  A    between atoms: C_20  and  C_21 
REMARK       I    between atoms: C_21  and  N_22 
REMARK    3  A    between atoms: N_22  and  C_23 
REMARK    4  A    between atoms: C_24  and  O_25 
ROOT
HETATM    1  C   UNL     1      25.315  42.850  49.476  1.00  0.00     0.070 C 
HETATM    2  C   UNL     1      25.368  44.203  50.140  1.00  0.00     0.037 C 
HETATM    3  N   UNL     1      26.219  44.306  51.238  1.00  0.00    -0.192 N 
HETATM    4  C   UNL     1      26.126  45.315  52.130  1.00  0.00     0.725 A 
HETATM    5  N   UNL     1      25.348  46.403  51.834  1.00  0.00    -0.084 N 
HETATM    6  N   UNL     1      25.286  47.259  52.876  1.00  0.00    -0.149 NA
HETATM    7  C   UNL     1      26.097  46.646  53.746  1.00  0.00     0.275 A 
HETATM    8  N   UNL     1      26.635  45.455  53.327  1.00  0.00    -0.054 NA
HETATM    9  C   UNL     1      24.631  46.577  50.562  1.00  0.00     0.203 C 
HETATM   10  C   UNL     1      24.598  45.265  49.789  1.00  0.00     0.062 C 
HETATM   11  H   UNL     1      26.688  43.455  51.542  1.00  0.00     0.184 HD
ENDROOT
BRANCH  10  12
HETATM   12  C   UNL     1      23.535  45.170  48.762  1.00  0.00     0.256 C 
HETATM   13  N   UNL     1      22.264  45.234  49.276  1.00  0.00    -0.321 N 
HETATM   14  H   UNL     1      22.138  45.151  50.281  1.00  0.00     0.169 HD
HETATM   15  O   UNL     1      23.860  45.035  47.588  1.00  0.00    -0.267 OA
BRANCH  13  16
HETATM   16  C   UNL     1      21.061  45.452  48.566  1.00  0.00     0.068 A 
HETATM   17  C   UNL     1      20.576  44.392  47.773  1.00  0.00     0.095 A 
HETATM   18  C   UNL     1      19.349  44.520  47.113  1.00  0.00     0.039 A 
HETATM   19  C   UNL     1      18.613  45.700  47.226  1.00  0.00     0.003 A 
HETATM   20  C   UNL     1      19.099  46.755  47.994  1.00  0.00     0.002 A 
HETATM   21  C   UNL     1      20.319  46.633  48.662  1.00  0.00     0.032 A 
BRANCH  17  22
HETATM   22  O   UNL     1      21.363  43.263  47.737  1.00  0.00    -0.354 OA
HETATM   23  C   UNL     1      21.499  42.641  46.463  1.00  0.00     0.210 C 
ENDBRANCH  17  22
ENDBRANCH  13  16
ENDBRANCH  10  12
BRANCH   9  24
HETATM   24  C   UNL     1      25.288  47.709  49.757  1.00  0.00    -0.017 A 
HETATM   25  C   UNL     1      24.534  48.743  49.121  1.00  0.00    -0.017 A 
HETATM   26  C   UNL     1      25.237  49.787  48.459  1.00  0.00    -0.025 A 
HETATM   27  C   UNL     1      23.119  48.816  49.101  1.00  0.00     0.013 A 
HETATM   28  C   UNL     1      24.540  50.841  47.846  1.00  0.00     0.012 A 
HETATM   29  C   UNL     1      26.637  49.782  48.416  1.00  0.00     0.012 A 
HETATM   30  C   UNL     1      23.150  50.885  47.859  1.00  0.00     0.001 A 
HETATM   31  C   UNL     1      22.439  49.871  48.482  1.00  0.00     0.001 A 
HETATM   32  C   UNL     1      27.367  48.762  49.011  1.00  0.00     0.002 A 
HETATM   33  C   UNL     1      26.701  47.738  49.673  1.00  0.00     0.010 A 
ENDBRANCH   9  24
TORSDOF 4
ENDMDL
MODEL 5
REMARK VINA RESULT:      -8.6      3.707      7.257
REMARK  4 active torsions:
REMARK  status: ('A' for Active; 'I' for Inactive)
REMARK    1  A    between atoms: C_9  and  C_10 
REMARK    2  A    between atoms: C_20  and  C_21 
REMARK       I    between atoms: C_21  and  N_22 
REMARK    3  A    between atoms: N_22  and  C_23 
REMARK    4  A    between atoms: C_24  and  O_25 
ROOT
HETATM    1  C   UNL     1      23.158  42.376  49.121  1.00  0.00     0.070 C 
HETATM    2  C   UNL     1      22.665  43.546  48.307  1.00  0.00     0.037 C 
HETATM    3  N   UNL     1      21.715  43.249  47.332  1.00  0.00    -0.192 N 
HETATM    4  C   UNL     1      21.436  44.094  46.316  1.00  0.00     0.725 A 
HETATM    5  N   UNL     1      21.906  45.380  46.364  1.00  0.00    -0.084 N 
HETATM    6  N   UNL     1      21.624  46.047  45.225  1.00  0.00    -0.149 NA
HETATM    7  C   UNL     1      20.934  45.114  44.559  1.00  0.00     0.275 A 
HETATM    8  N   UNL     1      20.792  43.905  45.193  1.00  0.00    -0.054 NA
HETATM    9  C   UNL     1      22.668  45.933  47.493  1.00  0.00     0.203 C 
HETATM   10  C   UNL     1      23.141  44.814  48.412  1.00  0.00     0.062 C 
HETATM   11  H   UNL     1      21.474  42.269  47.204  1.00  0.00     0.184 HD
ENDROOT
BRANCH  10  12
HETATM   12  C   UNL     1      24.285  45.163  49.287  1.00  0.00     0.256 C 
HETATM   13  N   UNL     1      23.916  45.543  50.552  1.00  0.00    -0.321 N 
HETATM   14  H   UNL     1      22.936  45.736  50.739  1.00  0.00     0.169 HD
HETATM   15  O   UNL     1      25.418  45.100  48.826  1.00  0.00    -0.267 OA
BRANCH  13  16
HETATM   16  C   UNL     1      24.748  45.663  51.689  1.00  0.00     0.068 A 
HETATM   17  C   UNL     1      25.456  46.872  51.848  1.00  0.00     0.095 A 
HETATM   18  C   UNL     1      26.231  47.081  52.995  1.00  0.00     0.039 A 
HETATM   19  C   UNL     1      26.317  46.089  53.972  1.00  0.00     0.003 A 
HETATM   20  C   UNL     1      25.633  44.886  53.808  1.00  0.00     0.002 A 
HETATM   21  C   UNL     1      24.852  44.673  52.670  1.00  0.00     0.032 A 
BRANCH  17  22
HETATM   22  O   UNL     1      25.295  47.797  50.840  1.00  0.00    -0.354 OA
HETATM   23  C   UNL     1      26.465  48.106  50.089  1.00  0.00     0.210 C 
ENDBRANCH  17  22
ENDBRANCH  13  16
ENDBRANCH  10  12
BRANCH   9  24
HETATM   24  C   UNL     1      21.805  46.967  48.234  1.00  0.00    -0.017 A 
HETATM   25  C   UNL     1      22.235  48.312  48.460  1.00  0.00    -0.017 A 
HETATM   26  C   UNL     1      21.335  49.213  49.091  1.00  0.00    -0.025 A 
HETATM   27  C   UNL     1      23.502  48.828  48.094  1.00  0.00     0.013 A 
HETATM   28  C   UNL     1      21.700  50.552  49.307  1.00  0.00     0.012 A 
HETATM   29  C   UNL     1      20.067  48.780  49.501  1.00  0.00     0.012 A 
HETATM   30  C   UNL     1      22.950  51.026  48.922  1.00  0.00     0.001 A 
HETATM   31  C   UNL     1      23.852  50.163  48.320  1.00  0.00     0.001 A 
HETATM   32  C   UNL     1      19.663  47.466  49.304  1.00  0.00     0.002 A 
HETATM   33  C   UNL     1      20.521  46.571  48.679  1.00  0.00     0.010 A 
ENDBRANCH   9  24
TORSDOF 4
ENDMDL
MODEL 6
REMARK VINA RESULT:      -8.5      2.580      7.039
REMARK  4 active torsions:
REMARK  status: ('A' for Active; 'I' for Inactive)
REMARK    1  A    between atoms: C_9  and  C_10 
REMARK    2  A    between atoms: C_20  and  C_21 
REMARK       I    between atoms: C_21  and  N_22 
REMARK    3  A    between atoms: N_22  and  C_23 
REMARK    4  A    between atoms: C_24  and  O_25 
ROOT
HETATM    1  C   UNL     1      26.204  47.028  52.922  1.00  0.00     0.070 C 
HETATM    2  C   UNL     1      26.393  45.596  52.487  1.00  0.00     0.037 C 
HETATM    3  N   UNL     1      26.538  44.665  53.513  1.00  0.00    -0.192 N 
HETATM    4  C   UNL     1      27.048  43.433  53.301  1.00  0.00     0.725 A 
HETATM    5  N   UNL     1      27.202  42.981  52.017  1.00  0.00    -0.084 N 
HETATM    6  N   UNL     1      27.818  41.781  51.990  1.00  0.00    -0.149 NA
HETATM    7  C   UNL     1      27.956  41.547  53.300  1.00  0.00     0.275 A 
HETATM    8  N   UNL     1      27.494  42.531  54.137  1.00  0.00    -0.054 NA
HETATM    9  C   UNL     1      26.795  43.742  50.826  1.00  0.00     0.203 C 
HETATM   10  C   UNL     1      26.509  45.192  51.196  1.00  0.00     0.062 C 
HETATM   11  H   UNL     1      26.566  45.025  54.464  1.00  0.00     0.184 HD
ENDROOT
BRANCH  10  12
HETATM   12  C   UNL     1      26.561  46.148  50.065  1.00  0.00     0.256 C 
HETATM   13  N   UNL     1      25.478  46.988  50.003  1.00  0.00    -0.321 N 
HETATM   14  H   UNL     1      24.668  46.785  50.582  1.00  0.00     0.169 HD
HETATM   15  O   UNL     1      27.519  46.106  49.302  1.00  0.00    -0.267 OA
BRANCH  13  16
HETATM   16  C   UNL     1      25.353  48.172  49.241  1.00  0.00     0.068 A 
HETATM   17  C   UNL     1      24.052  48.566  48.865  1.00  0.00     0.095 A 
HETATM   18  C   UNL     1      23.859  49.771  48.181  1.00  0.00     0.039 A 
HETATM   19  C   UNL     1      24.952  50.575  47.856  1.00  0.00     0.003 A 
HETATM   20  C   UNL     1      26.240  50.179  48.210  1.00  0.00     0.002 A 
HETATM   21  C   UNL     1      26.441  48.982  48.899  1.00  0.00     0.032 A 
BRANCH  17  22
HETATM   22  O   UNL     1      23.037  47.717  49.244  1.00  0.00    -0.354 OA
HETATM   23  C   UNL     1      21.727  48.090  48.829  1.00  0.00     0.210 C 
ENDBRANCH  17  22
ENDBRANCH  13  16
ENDBRANCH  10  12
BRANCH   9  24
HETATM   24  C   UNL     1      25.583  43.059  50.173  1.00  0.00    -0.017 A 
HETATM   25  C   UNL     1      25.709  42.106  49.116  1.00  0.00    -0.017 A 
HETATM   26  C   UNL     1      24.532  41.476  48.627  1.00  0.00    -0.025 A 
HETATM   27  C   UNL     1      26.933  41.729  48.510  1.00  0.00     0.013 A 
HETATM   28  C   UNL     1      24.609  40.511  47.610  1.00  0.00     0.012 A 
HETATM   29  C   UNL     1      23.279  41.805  49.158  1.00  0.00     0.012 A 
HETATM   30  C   UNL     1      25.832  40.156  47.048  1.00  0.00     0.001 A 
HETATM   31  C   UNL     1      26.992  40.769  47.494  1.00  0.00     0.001 A 
HETATM   32  C   UNL     1      23.156  42.750  50.168  1.00  0.00     0.002 A 
HETATM   33  C   UNL     1      24.293  43.371  50.669  1.00  0.00     0.010 A 
ENDBRANCH   9  24
TORSDOF 4
ENDMDL
MODEL 7
REMARK VINA RESULT:      -8.3     10.018     13.050
REMARK  4 active torsions:
REMARK  status: ('A' for Active; 'I' for Inactive)
REMARK    1  A    between atoms: C_9  and  C_10 
REMARK    2  A    between atoms: C_20  and  C_21 
REMARK       I    between atoms: C_21  and  N_22 
REMARK    3  A    between atoms: N_22  and  C_23 
REMARK    4  A    between atoms: C_24  and  O_25 
ROOT
HETATM    1  C   UNL     1      28.001  51.973  38.640  1.00  0.00     0.070 C 
HETATM    2  C   UNL     1      27.240  50.685  38.829  1.00  0.00     0.037 C 
HETATM    3  N   UNL     1      26.189  50.467  37.940  1.00  0.00    -0.192 N 
HETATM    4  C   UNL     1      25.218  49.561  38.180  1.00  0.00     0.725 A 
HETATM    5  N   UNL     1      25.382  48.653  39.193  1.00  0.00    -0.084 N 
HETATM    6  N   UNL     1      24.277  47.898  39.359  1.00  0.00    -0.149 NA
HETATM    7  C   UNL     1      23.506  48.371  38.372  1.00  0.00     0.275 A 
HETATM    8  N   UNL     1      24.047  49.387  37.625  1.00  0.00    -0.054 NA
HETATM    9  C   UNL     1      26.592  48.562  40.025  1.00  0.00     0.203 C 
HETATM   10  C   UNL     1      27.461  49.798  39.833  1.00  0.00     0.062 C 
HETATM   11  H   UNL     1      25.980  51.211  37.279  1.00  0.00     0.184 HD
ENDROOT
BRANCH  10  12
HETATM   12  C   UNL     1      28.427  50.061  40.926  1.00  0.00     0.256 C 
HETATM   13  N   UNL     1      29.732  49.824  40.576  1.00  0.00    -0.321 N 
HETATM   14  H   UNL     1      29.925  49.330  39.709  1.00  0.00     0.169 HD
HETATM   15  O   UNL     1      28.000  50.438  42.011  1.00  0.00    -0.267 OA
BRANCH  13  16
HETATM   16  C   UNL     1      30.894  50.233  41.271  1.00  0.00     0.068 A 
HETATM   17  C   UNL     1      31.746  51.151  40.623  1.00  0.00     0.095 A 
HETATM   18  C   UNL     1      32.866  51.655  41.293  1.00  0.00     0.039 A 
HETATM   19  C   UNL     1      33.150  51.238  42.594  1.00  0.00     0.003 A 
HETATM   20  C   UNL     1      32.320  50.317  43.229  1.00  0.00     0.002 A 
HETATM   21  C   UNL     1      31.196  49.816  42.570  1.00  0.00     0.032 A 
BRANCH  17  22
HETATM   22  O   UNL     1      31.375  51.516  39.348  1.00  0.00    -0.354 OA
HETATM   23  C   UNL     1      32.333  51.260  38.325  1.00  0.00     0.210 C 
ENDBRANCH  17  22
ENDBRANCH  13  16
ENDBRANCH  10  12
BRANCH   9  24
HETATM   24  C   UNL     1      27.346  47.265  39.688  1.00  0.00    -0.017 A 
HETATM   25  C   UNL     1      27.171  46.056  40.429  1.00  0.00    -0.017 A 
HETATM   26  C   UNL     1      27.860  44.890  39.995  1.00  0.00    -0.025 A 
HETATM   27  C   UNL     1      26.349  45.921  41.574  1.00  0.00     0.013 A 
HETATM   28  C   UNL     1      27.695  43.670  40.672  1.00  0.00     0.012 A 
HETATM   29  C   UNL     1      28.708  44.940  38.881  1.00  0.00     0.012 A 
HETATM   30  C   UNL     1      26.868  43.573  41.786  1.00  0.00     0.001 A 
HETATM   31  C   UNL     1      26.199  44.699  42.240  1.00  0.00     0.001 A 
HETATM   32  C   UNL     1      28.897  46.123  38.179  1.00  0.00     0.002 A 
HETATM   33  C   UNL     1      28.225  47.272  38.578  1.00  0.00     0.010 A 
ENDBRANCH   9  24
TORSDOF 4
ENDMDL
MODEL 8
REMARK VINA RESULT:      -8.0      5.533      9.338
REMARK  4 active torsions:
REMARK  status: ('A' for Active; 'I' for Inactive)
REMARK    1  A    between atoms: C_9  and  C_10 
REMARK    2  A    between atoms: C_20  and  C_21 
REMARK       I    between atoms: C_21  and  N_22 
REMARK    3  A    between atoms: N_22  and  C_23 
REMARK    4  A    between atoms: C_24  and  O_25 
ROOT
HETATM    1  C   UNL     1      23.225  50.895  48.276  1.00  0.00     0.070 C 
HETATM    2  C   UNL     1      21.766  50.520  48.352  1.00  0.00     0.037 C 
HETATM    3  N   UNL     1      20.887  51.562  48.638  1.00  0.00    -0.192 N 
HETATM    4  C   UNL     1      19.627  51.344  49.073  1.00  0.00     0.725 A 
HETATM    5  N   UNL     1      19.102  50.080  49.001  1.00  0.00    -0.084 N 
HETATM    6  N   UNL     1      17.881  50.024  49.573  1.00  0.00    -0.149 NA
HETATM    7  C   UNL     1      17.712  51.306  49.917  1.00  0.00     0.275 A 
HETATM    8  N   UNL     1      18.756  52.148  49.625  1.00  0.00    -0.054 NA
HETATM    9  C   UNL     1      19.812  48.928  48.426  1.00  0.00     0.203 C 
HETATM   10  C   UNL     1      21.289  49.253  48.243  1.00  0.00     0.062 C 
HETATM   11  H   UNL     1      21.296  52.473  48.832  1.00  0.00     0.184 HD
ENDROOT
BRANCH  10  12
HETATM   12  C   UNL     1      22.181  48.075  48.136  1.00  0.00     0.256 C 
HETATM   13  N   UNL     1      22.795  47.739  49.315  1.00  0.00    -0.321 N 
HETATM   14  H   UNL     1      22.755  48.393  50.092  1.00  0.00     0.169 HD
HETATM   15  O   UNL     1      22.303  47.527  47.047  1.00  0.00    -0.267 OA
BRANCH  13  16
HETATM   16  C   UNL     1      23.468  46.533  49.619  1.00  0.00     0.068 A 
HETATM   17  C   UNL     1      24.732  46.635  50.235  1.00  0.00     0.095 A 
HETATM   18  C   UNL     1      25.408  45.476  50.634  1.00  0.00     0.039 A 
HETATM   19  C   UNL     1      24.841  44.221  50.408  1.00  0.00     0.003 A 
HETATM   20  C   UNL     1      23.601  44.118  49.783  1.00  0.00     0.002 A 
HETATM   21  C   UNL     1      22.916  45.269  49.389  1.00  0.00     0.032 A 
BRANCH  17  22
HETATM   22  O   UNL     1      25.202  47.914  50.431  1.00  0.00    -0.354 OA
HETATM   23  C   UNL     1      26.371  48.265  49.698  1.00  0.00     0.210 C 
ENDBRANCH  17  22
ENDBRANCH  13  16
ENDBRANCH  10  12
BRANCH   9  24
HETATM   24  C   UNL     1      19.139  48.522  47.105  1.00  0.00    -0.017 A 
HETATM   25  C   UNL     1      18.786  47.171  46.801  1.00  0.00    -0.017 A 
HETATM   26  C   UNL     1      18.102  46.907  45.582  1.00  0.00    -0.025 A 
HETATM   27  C   UNL     1      19.062  46.057  47.632  1.00  0.00     0.013 A 
HETATM   28  C   UNL     1      17.707  45.600  45.255  1.00  0.00     0.012 A 
HETATM   29  C   UNL     1      17.806  47.949  44.695  1.00  0.00     0.012 A 
HETATM   30  C   UNL     1      17.984  44.532  46.103  1.00  0.00     0.001 A 
HETATM   31  C   UNL     1      18.665  44.760  47.288  1.00  0.00     0.001 A 
HETATM   32  C   UNL     1      18.174  49.257  44.980  1.00  0.00     0.002 A 
HETATM   33  C   UNL     1      18.833  49.541  46.170  1.00  0.00     0.010 A 
ENDBRANCH   9  24
TORSDOF 4
ENDMDL
MODEL 9
REMARK VINA RESULT:      -7.8      5.383      8.381
REMARK  4 active torsions:
REMARK  status: ('A' for Active; 'I' for Inactive)
REMARK    1  A    between atoms: C_9  and  C_10 
REMARK    2  A    between atoms: C_20  and  C_21 
REMARK       I    between atoms: C_21  and  N_22 
REMARK    3  A    between atoms: N_22  and  C_23 
REMARK    4  A    between atoms: C_24  and  O_25 
ROOT
HETATM    1  C   UNL     1      19.155  43.906  46.512  1.00  0.00     0.070 C 
HETATM    2  C   UNL     1      18.925  45.396  46.518  1.00  0.00     0.037 C 
HETATM    3  N   UNL     1      17.626  45.811  46.232  1.00  0.00    -0.192 N 
HETATM    4  C   UNL     1      17.337  47.077  45.865  1.00  0.00     0.725 A 
HETATM    5  N   UNL     1      18.289  48.052  46.010  1.00  0.00    -0.084 N 
HETATM    6  N   UNL     1      17.869  49.227  45.498  1.00  0.00    -0.149 NA
HETATM    7  C   UNL     1      16.631  48.898  45.112  1.00  0.00     0.275 A 
HETATM    8  N   UNL     1      16.264  47.592  45.322  1.00  0.00    -0.054 NA
HETATM    9  C   UNL     1      19.618  47.820  46.596  1.00  0.00     0.203 C 
HETATM   10  C   UNL     1      19.899  46.326  46.698  1.00  0.00     0.062 C 
HETATM   11  H   UNL     1      16.954  45.088  45.985  1.00  0.00     0.184 HD
ENDROOT
BRANCH  10  12
HETATM   12  C   UNL     1      21.331  45.964  46.810  1.00  0.00     0.256 C 
HETATM   13  N   UNL     1      21.699  45.554  48.066  1.00  0.00    -0.321 N 
HETATM   14  H   UNL     1      21.054  45.701  48.838  1.00  0.00     0.169 HD
HETATM   15  O   UNL     1      22.044  46.069  45.819  1.00  0.00    -0.267 OA
BRANCH  13  16
HETATM   16  C   UNL     1      22.890  44.887  48.436  1.00  0.00     0.068 A 
HETATM   17  C   UNL     1      23.861  45.635  49.134  1.00  0.00     0.095 A 
HETATM   18  C   UNL     1      25.023  45.008  49.598  1.00  0.00     0.039 A 
HETATM   19  C   UNL     1      25.229  43.649  49.357  1.00  0.00     0.003 A 
HETATM   20  C   UNL     1      24.279  42.913  48.653  1.00  0.00     0.002 A 
HETATM   21  C   UNL     1      23.114  43.529  48.193  1.00  0.00     0.032 A 
BRANCH  17  22
HETATM   22  O   UNL     1      23.561  46.963  49.337  1.00  0.00    -0.354 OA
HETATM   23  C   UNL     1      24.561  47.732  49.997  1.00  0.00     0.210 C 
ENDBRANCH  17  22
ENDBRANCH  13  16
ENDBRANCH  10  12
BRANCH   9  24
HETATM   24  C   UNL     1      19.702  48.520  47.962  1.00  0.00    -0.017 A 
HETATM   25  C   UNL     1      20.797  49.362  48.332  1.00  0.00    -0.017 A 
HETATM   26  C   UNL     1      20.748  50.022  49.590  1.00  0.00    -0.025 A 
HETATM   27  C   UNL     1      21.941  49.599  47.531  1.00  0.00     0.013 A 
HETATM   28  C   UNL     1      21.785  50.883  49.984  1.00  0.00     0.012 A 
HETATM   29  C   UNL     1      19.660  49.829  50.451  1.00  0.00     0.012 A 
HETATM   30  C   UNL     1      22.888  51.102  49.165  1.00  0.00     0.001 A 
HETATM   31  C   UNL     1      22.968  50.456  47.941  1.00  0.00     0.001 A 
HETATM   32  C   UNL     1      18.611  48.990  50.100  1.00  0.00     0.002 A 
HETATM   33  C   UNL     1      18.632  48.343  48.871  1.00  0.00     0.010 A 
ENDBRANCH   9  24
TORSDOF 4
ENDMDL
MODEL 10
REMARK VINA RESULT:      -7.8     17.277     19.814
REMARK  4 active torsions:
REMARK  status: ('A' for Active; 'I' for Inactive)
REMARK    1  A    between atoms: C_9  and  C_10 
REMARK    2  A    between atoms: C_20  and  C_21 
REMARK       I    between atoms: C_21  and  N_22 
REMARK    3  A    between atoms: N_22  and  C_23 
REMARK    4  A    between atoms: C_24  and  O_25 
ROOT
HETATM    1  C   UNL     1      38.543  46.981  66.720  1.00  0.00     0.070 C 
HETATM    2  C   UNL     1      39.621  46.224  65.987  1.00  0.00     0.037 C 
HETATM    3  N   UNL     1      40.909  46.743  66.099  1.00  0.00    -0.192 N 
HETATM    4  C   UNL     1      41.901  46.400  65.250  1.00  0.00     0.725 A 
HETATM    5  N   UNL     1      41.725  45.335  64.407  1.00  0.00    -0.084 N 
HETATM    6  N   UNL     1      42.768  45.201  63.561  1.00  0.00    -0.149 NA
HETATM    7  C   UNL     1      43.561  46.190  63.991  1.00  0.00     0.275 A 
HETATM    8  N   UNL     1      43.069  46.946  65.026  1.00  0.00    -0.054 NA
HETATM    9  C   UNL     1      40.523  44.488  64.396  1.00  0.00     0.203 C 
HETATM   10  C   UNL     1      39.401  45.150  65.186  1.00  0.00     0.062 C 
HETATM   11  H   UNL     1      41.013  47.617  66.610  1.00  0.00     0.184 HD
ENDROOT
BRANCH  10  12
HETATM   12  C   UNL     1      38.038  44.664  64.865  1.00  0.00     0.256 C 
HETATM   13  N   UNL     1      37.610  43.647  65.679  1.00  0.00    -0.321 N 
HETATM   14  H   UNL     1      38.284  43.188  66.285  1.00  0.00     0.169 HD
HETATM   15  O   UNL     1      37.435  45.178  63.931  1.00  0.00    -0.267 OA
BRANCH  13  16
HETATM   16  C   UNL     1      36.290  43.162  65.824  1.00  0.00     0.068 A 
HETATM   17  C   UNL     1      35.408  43.915  66.627  1.00  0.00     0.095 A 
HETATM   18  C   UNL     1      34.067  43.529  66.740  1.00  0.00     0.039 A 
HETATM   19  C   UNL     1      33.606  42.393  66.074  1.00  0.00     0.003 A 
HETATM   20  C   UNL     1      34.480  41.638  65.294  1.00  0.00     0.002 A 
HETATM   21  C   UNL     1      35.817  42.020  65.170  1.00  0.00     0.032 A 
BRANCH  17  22
HETATM   22  O   UNL     1      35.950  45.027  67.231  1.00  0.00    -0.354 OA
HETATM   23  C   UNL     1      35.944  45.025  68.655  1.00  0.00     0.210 C 
ENDBRANCH  17  22
ENDBRANCH  13  16
ENDBRANCH  10  12
BRANCH   9  24
HETATM   24  C   UNL     1      40.875  43.095  64.944  1.00  0.00    -0.017 A 
HETATM   25  C   UNL     1      40.431  41.887  64.324  1.00  0.00    -0.017 A 
HETATM   26  C   UNL     1      40.869  40.647  64.865  1.00  0.00    -0.025 A 
HETATM   27  C   UNL     1      39.581  41.823  63.192  1.00  0.00     0.013 A 
HETATM   28  C   UNL     1      40.484  39.433  64.272  1.00  0.00     0.012 A 
HETATM   29  C   UNL     1      41.697  40.619  65.995  1.00  0.00     0.012 A 
HETATM   30  C   UNL     1      39.659  39.412  63.152  1.00  0.00     0.001 A 
HETATM   31  C   UNL     1      39.203  40.606  62.616  1.00  0.00     0.001 A 
HETATM   32  C   UNL     1      42.105  41.794  66.611  1.00  0.00     0.002 A 
HETATM   33  C   UNL     1      41.699  43.017  66.093  1.00  0.00     0.010 A 
ENDBRANCH   9  24
TORSDOF 4
ENDMDL
