MODEL 1
REMARK VINA RESULT:     -10.4      0.000      0.000
REMARK  6 active torsions:
REMARK  status: ('A' for Active; 'I' for Inactive)
REMARK    1  A    between atoms: C_2  and  C_3 
REMARK    2  A    between atoms: C_3  and  N_4 
REMARK    3  A    between atoms: C_10  and  S_11 
REMARK    4  A    between atoms: S_11  and  C_12 
REMARK    5  A    between atoms: C_12  and  C_13 
REMARK       I    between atoms: C_13  and  N_14 
REMARK    6  A    between atoms: N_14  and  C_15 
ROOT
HETATM    1  N   UNL     1      24.079  48.678  49.222  1.00  0.00    -0.063 N 
HETATM    2  H   UNL     1      23.794  49.022  50.147  1.00  0.00     0.280 HD
HETATM    3  C   UNL     1      23.466  47.290  49.071  1.00  0.00     0.281 C 
HETATM    4  C   UNL     1      24.242  46.219  49.757  1.00  0.00     0.060 A 
HETATM    5  C   UNL     1      25.444  46.384  50.328  1.00  0.00     0.052 A 
HETATM    6  N   UNL     1      26.156  45.370  50.916  1.00  0.00    -0.228 NA
HETATM    7  C   UNL     1      25.621  44.196  50.929  1.00  0.00     0.169 A 
HETATM    8  N   UNL     1      24.398  43.915  50.404  1.00  0.00    -0.302 N 
HETATM    9  C   UNL     1      23.650  44.868  49.784  1.00  0.00     0.257 A 
HETATM   10  O   UNL     1      22.566  44.655  49.259  1.00  0.00    -0.267 OA
HETATM   11  C   UNL     1      26.120  47.730  50.308  1.00  0.00     0.088 C 
HETATM   12  C   UNL     1      25.592  48.632  49.194  1.00  0.00     0.241 C 
HETATM   13  H   UNL     1      24.042  42.970  50.446  1.00  0.00     0.171 HD
ENDROOT
BRANCH   7  14
HETATM   14  S   UNL     1      26.411  42.808  51.611  1.00  0.00    -0.083 SA
BRANCH  14  15
HETATM   15  C   UNL     1      28.004  43.570  52.054  1.00  0.00     0.185 C 
BRANCH  15  16
HETATM   16  C   UNL     1      28.330  43.506  53.536  1.00  0.00     0.232 C 
HETATM   17  N   UNL     1      29.586  43.970  53.882  1.00  0.00    -0.324 N 
HETATM   18  H   UNL     1      30.290  43.897  53.155  1.00  0.00     0.169 HD
HETATM   19  O   UNL     1      27.482  43.097  54.326  1.00  0.00    -0.272 OA
BRANCH  17  20
HETATM   20  C   UNL     1      30.035  44.223  55.197  1.00  0.00     0.076 A 
HETATM   21  C   UNL     1      29.658  45.343  55.956  1.00  0.00     0.143 A 
HETATM   22  F   UNL     1      28.910  46.321  55.427  1.00  0.00    -0.204 F 
HETATM   23  C   UNL     1      30.139  45.534  57.252  1.00  0.00     0.047 A 
HETATM   24  C   UNL     1      31.021  44.609  57.807  1.00  0.00     0.045 A 
HETATM   25  C   UNL     1      31.424  43.518  57.046  1.00  0.00     0.118 A 
HETATM   26  F   UNL     1      32.285  42.635  57.569  1.00  0.00    -0.206 F 
HETATM   27  C   UNL     1      30.952  43.322  55.749  1.00  0.00     0.074 A 
ENDBRANCH  17  20
ENDBRANCH  15  16
ENDBRANCH  14  15
ENDBRANCH   7  14
BRANCH   1  28
HETATM   28  C   UNL     1      23.544  49.666  48.211  1.00  0.00     0.273 C 
BRANCH  28  29
HETATM   29  C   UNL     1      22.237  50.294  48.609  1.00  0.00    -0.030 A 
HETATM   30  C   UNL     1      22.014  50.694  49.949  1.00  0.00     0.012 A 
HETATM   31  C   UNL     1      20.795  51.260  50.336  1.00  0.00     0.040 A 
HETATM   32  C   UNL     1      19.821  51.412  49.375  1.00  0.00     0.105 A 
HETATM   33  C   UNL     1      20.031  51.034  48.072  1.00  0.00     0.105 A 
HETATM   34  O   UNL     1      18.579  51.925  49.573  1.00  0.00    -0.323 OA
HETATM   35  C   UNL     1      21.221  50.477  47.654  1.00  0.00     0.048 A 
HETATM   36  O   UNL     1      18.947  51.261  47.284  1.00  0.00    -0.323 OA
HETATM   37  C   UNL     1      18.013  51.797  48.250  1.00  0.00     0.352 A 
ENDBRANCH  28  29
ENDBRANCH   1  28
TORSDOF 6
ENDMDL
MODEL 2
REMARK VINA RESULT:     -10.3      3.637     10.653
REMARK  6 active torsions:
REMARK  status: ('A' for Active; 'I' for Inactive)
REMARK    1  A    between atoms: C_2  and  C_3 
REMARK    2  A    between atoms: C_3  and  N_4 
REMARK    3  A    between atoms: C_10  and  S_11 
REMARK    4  A    between atoms: S_11  and  C_12 
REMARK    5  A    between atoms: C_12  and  C_13 
REMARK       I    between atoms: C_13  and  N_14 
REMARK    6  A    between atoms: N_14  and  C_15 
ROOT
HETATM    1  N   UNL     1      28.154  42.783  52.334  1.00  0.00    -0.063 N 
HETATM    2  H   UNL     1      27.504  42.892  53.122  1.00  0.00     0.280 HD
HETATM    3  C   UNL     1      27.920  43.978  51.415  1.00  0.00     0.281 C 
HETATM    4  C   UNL     1      26.739  43.818  50.521  1.00  0.00     0.060 A 
HETATM    5  C   UNL     1      26.017  42.697  50.390  1.00  0.00     0.052 A 
HETATM    6  N   UNL     1      24.960  42.565  49.527  1.00  0.00    -0.228 NA
HETATM    7  C   UNL     1      24.639  43.594  48.816  1.00  0.00     0.169 A 
HETATM    8  N   UNL     1      25.281  44.790  48.882  1.00  0.00    -0.302 N 
HETATM    9  C   UNL     1      26.354  44.982  49.698  1.00  0.00     0.257 A 
HETATM   10  O   UNL     1      26.990  46.024  49.760  1.00  0.00    -0.267 OA
HETATM   11  C   UNL     1      26.376  41.463  51.176  1.00  0.00     0.088 C 
HETATM   12  C   UNL     1      27.828  41.473  51.648  1.00  0.00     0.241 C 
HETATM   13  H   UNL     1      24.978  45.553  48.293  1.00  0.00     0.171 HD
ENDROOT
BRANCH   7  14
HETATM   14  S   UNL     1      23.343  43.572  47.661  1.00  0.00    -0.083 SA
BRANCH  14  15
HETATM   15  C   UNL     1      22.165  44.657  48.526  1.00  0.00     0.185 C 
BRANCH  15  16
HETATM   16  C   UNL     1      22.198  46.103  48.062  1.00  0.00     0.232 C 
HETATM   17  N   UNL     1      22.311  47.041  49.071  1.00  0.00    -0.324 N 
HETATM   18  H   UNL     1      21.941  46.756  49.971  1.00  0.00     0.169 HD
HETATM   19  O   UNL     1      22.163  46.354  46.859  1.00  0.00    -0.272 OA
BRANCH  17  20
HETATM   20  C   UNL     1      22.586  48.415  48.889  1.00  0.00     0.076 A 
HETATM   21  C   UNL     1      23.881  48.954  48.812  1.00  0.00     0.143 A 
HETATM   22  F   UNL     1      24.965  48.192  49.016  1.00  0.00    -0.204 F 
HETATM   23  C   UNL     1      24.085  50.323  48.630  1.00  0.00     0.047 A 
HETATM   24  C   UNL     1      22.991  51.180  48.537  1.00  0.00     0.045 A 
HETATM   25  C   UNL     1      21.709  50.654  48.648  1.00  0.00     0.118 A 
HETATM   26  F   UNL     1      20.653  51.476  48.576  1.00  0.00    -0.206 F 
HETATM   27  C   UNL     1      21.496  49.289  48.834  1.00  0.00     0.074 A 
ENDBRANCH  17  20
ENDBRANCH  15  16
ENDBRANCH  14  15
ENDBRANCH   7  14
BRANCH   1  28
HETATM   28  C   UNL     1      29.546  42.761  52.922  1.00  0.00     0.273 C 
BRANCH  28  29
HETATM   29  C   UNL     1      29.681  43.556  54.191  1.00  0.00    -0.030 A 
HETATM   30  C   UNL     1      28.842  44.670  54.430  1.00  0.00     0.012 A 
HETATM   31  C   UNL     1      28.972  45.431  55.597  1.00  0.00     0.040 A 
HETATM   32  C   UNL     1      29.943  45.062  56.501  1.00  0.00     0.105 A 
HETATM   33  C   UNL     1      30.757  43.978  56.281  1.00  0.00     0.105 A 
HETATM   34  O   UNL     1      30.220  45.690  57.673  1.00  0.00    -0.323 OA
HETATM   35  C   UNL     1      30.653  43.204  55.144  1.00  0.00     0.048 A 
HETATM   36  O   UNL     1      31.650  43.786  57.287  1.00  0.00    -0.323 OA
HETATM   37  C   UNL     1      31.328  44.899  58.155  1.00  0.00     0.352 A 
ENDBRANCH  28  29
ENDBRANCH   1  28
TORSDOF 6
ENDMDL
MODEL 3
REMARK VINA RESULT:     -10.2      1.390      1.651
REMARK  6 active torsions:
REMARK  status: ('A' for Active; 'I' for Inactive)
REMARK    1  A    between atoms: C_2  and  C_3 
REMARK    2  A    between atoms: C_3  and  N_4 
REMARK    3  A    between atoms: C_10  and  S_11 
REMARK    4  A    between atoms: S_11  and  C_12 
REMARK    5  A    between atoms: C_12  and  C_13 
REMARK       I    between atoms: C_13  and  N_14 
REMARK    6  A    between atoms: N_14  and  C_15 
ROOT
HETATM    1  N   UNL     1      22.190  46.799  49.163  1.00  0.00    -0.063 N 
HETATM    2  H   UNL     1      21.753  46.962  50.079  1.00  0.00     0.280 HD
HETATM    3  C   UNL     1      22.220  45.286  48.966  1.00  0.00     0.281 C 
HETATM    4  C   UNL     1      23.348  44.617  49.672  1.00  0.00     0.060 A 
HETATM    5  C   UNL     1      24.348  45.250  50.302  1.00  0.00     0.052 A 
HETATM    6  N   UNL     1      25.397  44.609  50.908  1.00  0.00    -0.228 NA
HETATM    7  C   UNL     1      25.403  43.318  50.881  1.00  0.00     0.169 A 
HETATM    8  N   UNL     1      24.430  42.569  50.296  1.00  0.00    -0.302 N 
HETATM    9  C   UNL     1      23.376  43.141  49.654  1.00  0.00     0.257 A 
HETATM   10  O   UNL     1      22.501  42.512  49.076  1.00  0.00    -0.267 OA
HETATM   11  C   UNL     1      24.398  46.755  50.331  1.00  0.00     0.088 C 
HETATM   12  C   UNL     1      23.583  47.389  49.206  1.00  0.00     0.241 C 
HETATM   13  H   UNL     1      24.501  41.561  50.308  1.00  0.00     0.171 HD
ENDROOT
BRANCH   7  14
HETATM   14  S   UNL     1      26.676  42.367  51.581  1.00  0.00    -0.083 SA
BRANCH  14  15
HETATM   15  C   UNL     1      27.751  43.711  52.172  1.00  0.00     0.185 C 
BRANCH  15  16
HETATM   16  C   UNL     1      28.164  43.580  53.627  1.00  0.00     0.232 C 
HETATM   17  N   UNL     1      29.406  44.104  53.935  1.00  0.00    -0.324 N 
HETATM   18  H   UNL     1      30.071  44.122  53.170  1.00  0.00     0.169 HD
HETATM   19  O   UNL     1      27.388  43.070  54.433  1.00  0.00    -0.272 OA
BRANCH  17  20
HETATM   20  C   UNL     1      29.911  44.308  55.239  1.00  0.00     0.076 A 
HETATM   21  C   UNL     1      29.588  45.411  56.046  1.00  0.00     0.143 A 
HETATM   22  F   UNL     1      28.840  46.420  55.577  1.00  0.00    -0.204 F 
HETATM   23  C   UNL     1      30.123  45.552  57.327  1.00  0.00     0.047 A 
HETATM   24  C   UNL     1      31.007  44.594  57.818  1.00  0.00     0.045 A 
HETATM   25  C   UNL     1      31.357  43.519  57.009  1.00  0.00     0.118 A 
HETATM   26  F   UNL     1      32.220  42.603  57.470  1.00  0.00    -0.206 F 
HETATM   27  C   UNL     1      30.831  43.373  55.726  1.00  0.00     0.074 A 
ENDBRANCH  17  20
ENDBRANCH  15  16
ENDBRANCH  14  15
ENDBRANCH   7  14
BRANCH   1  28
HETATM   28  C   UNL     1      21.328  47.504  48.142  1.00  0.00     0.273 C 
BRANCH  28  29
HETATM   29  C   UNL     1      20.362  48.489  48.740  1.00  0.00    -0.030 A 
HETATM   30  C   UNL     1      19.401  48.064  49.688  1.00  0.00     0.012 A 
HETATM   31  C   UNL     1      18.482  48.965  50.235  1.00  0.00     0.040 A 
HETATM   32  C   UNL     1      18.542  50.277  49.820  1.00  0.00     0.105 A 
HETATM   33  C   UNL     1      19.475  50.700  48.906  1.00  0.00     0.105 A 
HETATM   34  O   UNL     1      17.724  51.280  50.230  1.00  0.00    -0.323 OA
HETATM   35  C   UNL     1      20.397  49.839  48.349  1.00  0.00     0.048 A 
HETATM   36  O   UNL     1      19.363  52.025  48.626  1.00  0.00    -0.323 OA
HETATM   37  C   UNL     1      18.225  52.384  49.445  1.00  0.00     0.352 A 
ENDBRANCH  28  29
ENDBRANCH   1  28
TORSDOF 6
ENDMDL
MODEL 4
REMARK VINA RESULT:     -10.1      3.722     10.864
REMARK  6 active torsions:
REMARK  status: ('A' for Active; 'I' for Inactive)
REMARK    1  A    between atoms: C_2  and  C_3 
REMARK    2  A    between atoms: C_3  and  N_4 
REMARK    3  A    between atoms: C_10  and  S_11 
REMARK    4  A    between atoms: S_11  and  C_12 
REMARK    5  A    between atoms: C_12  and  C_13 
REMARK       I    between atoms: C_13  and  N_14 
REMARK    6  A    between atoms: N_14  and  C_15 
ROOT
HETATM    1  N   UNL     1      28.393  43.593  53.130  1.00  0.00    -0.063 N 
HETATM    2  H   UNL     1      28.533  44.610  53.173  1.00  0.00     0.280 HD
HETATM    3  C   UNL     1      28.110  43.260  51.669  1.00  0.00     0.281 C 
HETATM    4  C   UNL     1      26.699  43.515  51.264  1.00  0.00     0.060 A 
HETATM    5  C   UNL     1      25.706  43.856  52.098  1.00  0.00     0.052 A 
HETATM    6  N   UNL     1      24.407  44.044  51.704  1.00  0.00    -0.228 NA
HETATM    7  C   UNL     1      24.138  43.898  50.449  1.00  0.00     0.169 A 
HETATM    8  N   UNL     1      25.066  43.581  49.508  1.00  0.00    -0.302 N 
HETATM    9  C   UNL     1      26.368  43.355  49.834  1.00  0.00     0.257 A 
HETATM   10  O   UNL     1      27.229  43.024  49.031  1.00  0.00    -0.267 OA
HETATM   11  C   UNL     1      25.969  44.004  53.574  1.00  0.00     0.088 C 
HETATM   12  C   UNL     1      27.220  43.252  54.024  1.00  0.00     0.241 C 
HETATM   13  H   UNL     1      24.784  43.479  48.543  1.00  0.00     0.171 HD
ENDROOT
BRANCH   7  14
HETATM   14  S   UNL     1      22.536  44.076  49.803  1.00  0.00    -0.083 SA
BRANCH  14  15
HETATM   15  C   UNL     1      22.959  44.713  48.151  1.00  0.00     0.185 C 
BRANCH  15  16
HETATM   16  C   UNL     1      22.435  46.111  47.873  1.00  0.00     0.232 C 
HETATM   17  N   UNL     1      22.506  46.987  48.941  1.00  0.00    -0.324 N 
HETATM   18  H   UNL     1      22.476  46.556  49.858  1.00  0.00     0.169 HD
HETATM   19  O   UNL     1      22.028  46.393  46.748  1.00  0.00    -0.272 OA
BRANCH  17  20
HETATM   20  C   UNL     1      22.298  48.383  48.873  1.00  0.00     0.076 A 
HETATM   21  C   UNL     1      23.314  49.319  48.619  1.00  0.00     0.143 A 
HETATM   22  F   UNL     1      24.598  48.943  48.525  1.00  0.00    -0.204 F 
HETATM   23  C   UNL     1      23.041  50.687  48.565  1.00  0.00     0.047 A 
HETATM   24  C   UNL     1      21.743  51.143  48.780  1.00  0.00     0.045 A 
HETATM   25  C   UNL     1      20.741  50.222  49.066  1.00  0.00     0.118 A 
HETATM   26  F   UNL     1      19.494  50.658  49.291  1.00  0.00    -0.206 F 
HETATM   27  C   UNL     1      21.006  48.855  49.127  1.00  0.00     0.074 A 
ENDBRANCH  17  20
ENDBRANCH  15  16
ENDBRANCH  14  15
ENDBRANCH   7  14
BRANCH   1  28
HETATM   28  C   UNL     1      29.668  42.960  53.638  1.00  0.00     0.273 C 
BRANCH  28  29
HETATM   29  C   UNL     1      30.135  43.509  54.957  1.00  0.00    -0.030 A 
HETATM   30  C   UNL     1      31.037  42.772  55.761  1.00  0.00     0.012 A 
HETATM   31  C   UNL     1      31.462  43.261  57.001  1.00  0.00     0.040 A 
HETATM   32  C   UNL     1      30.972  44.480  57.413  1.00  0.00     0.105 A 
HETATM   33  C   UNL     1      30.102  45.206  56.638  1.00  0.00     0.105 A 
HETATM   34  O   UNL     1      31.262  45.099  58.587  1.00  0.00    -0.323 OA
HETATM   35  C   UNL     1      29.666  44.755  55.410  1.00  0.00     0.048 A 
HETATM   36  O   UNL     1      29.734  46.375  57.225  1.00  0.00    -0.323 OA
HETATM   37  C   UNL     1      30.447  46.287  58.482  1.00  0.00     0.352 A 
ENDBRANCH  28  29
ENDBRANCH   1  28
TORSDOF 6
ENDMDL
MODEL 5
REMARK VINA RESULT:      -9.6      1.771      2.846
REMARK  6 active torsions:
REMARK  status: ('A' for Active; 'I' for Inactive)
REMARK    1  A    between atoms: C_2  and  C_3 
REMARK    2  A    between atoms: C_3  and  N_4 
REMARK    3  A    between atoms: C_10  and  S_11 
REMARK    4  A    between atoms: S_11  and  C_12 
REMARK    5  A    between atoms: C_12  and  C_13 
REMARK       I    between atoms: C_13  and  N_14 
REMARK    6  A    between atoms: N_14  and  C_15 
ROOT
HETATM    1  N   UNL     1      22.815  49.138  48.160  1.00  0.00    -0.063 N 
HETATM    2  H   UNL     1      23.134  48.886  47.216  1.00  0.00     0.280 HD
HETATM    3  C   UNL     1      24.002  48.907  49.090  1.00  0.00     0.281 C 
HETATM    4  C   UNL     1      24.180  47.481  49.483  1.00  0.00     0.060 A 
HETATM    5  C   UNL     1      23.322  46.490  49.201  1.00  0.00     0.052 A 
HETATM    6  N   UNL     1      23.491  45.194  49.612  1.00  0.00    -0.228 NA
HETATM    7  C   UNL     1      24.550  44.918  50.296  1.00  0.00     0.169 A 
HETATM    8  N   UNL     1      25.502  45.833  50.620  1.00  0.00    -0.302 N 
HETATM    9  C   UNL     1      25.384  47.142  50.266  1.00  0.00     0.257 A 
HETATM   10  O   UNL     1      26.190  48.010  50.572  1.00  0.00    -0.267 OA
HETATM   11  C   UNL     1      22.058  46.772  48.432  1.00  0.00     0.088 C 
HETATM   12  C   UNL     1      21.645  48.241  48.506  1.00  0.00     0.241 C 
HETATM   13  H   UNL     1      26.305  45.548  51.163  1.00  0.00     0.171 HD
ENDROOT
BRANCH   7  14
HETATM   14  S   UNL     1      24.888  43.329  50.910  1.00  0.00    -0.083 SA
BRANCH  14  15
HETATM   15  C   UNL     1      26.695  43.311  50.690  1.00  0.00     0.185 C 
BRANCH  15  16
HETATM   16  C   UNL     1      27.471  43.007  51.960  1.00  0.00     0.232 C 
HETATM   17  N   UNL     1      28.415  43.953  52.312  1.00  0.00    -0.324 N 
HETATM   18  H   UNL     1      28.801  44.489  51.541  1.00  0.00     0.169 HD
HETATM   19  O   UNL     1      27.204  41.995  52.605  1.00  0.00    -0.272 OA
BRANCH  17  20
HETATM   20  C   UNL     1      29.095  44.014  53.548  1.00  0.00     0.076 A 
HETATM   21  C   UNL     1      30.145  43.154  53.913  1.00  0.00     0.143 A 
HETATM   22  F   UNL     1      30.506  42.128  53.130  1.00  0.00    -0.204 F 
HETATM   23  C   UNL     1      30.775  43.268  55.153  1.00  0.00     0.047 A 
HETATM   24  C   UNL     1      30.355  44.239  56.058  1.00  0.00     0.045 A 
HETATM   25  C   UNL     1      29.293  45.069  55.714  1.00  0.00     0.118 A 
HETATM   26  F   UNL     1      28.873  45.994  56.588  1.00  0.00    -0.206 F 
HETATM   27  C   UNL     1      28.654  44.959  54.480  1.00  0.00     0.074 A 
ENDBRANCH  17  20
ENDBRANCH  15  16
ENDBRANCH  14  15
ENDBRANCH   7  14
BRANCH   1  28
HETATM   28  C   UNL     1      22.393  50.588  48.100  1.00  0.00     0.273 C 
BRANCH  28  29
HETATM   29  C   UNL     1      20.904  50.789  48.152  1.00  0.00    -0.030 A 
HETATM   30  C   UNL     1      20.105  50.527  47.013  1.00  0.00     0.012 A 
HETATM   31  C   UNL     1      18.722  50.731  47.042  1.00  0.00     0.040 A 
HETATM   32  C   UNL     1      18.164  51.196  48.212  1.00  0.00     0.105 A 
HETATM   33  C   UNL     1      18.929  51.446  49.324  1.00  0.00     0.105 A 
HETATM   34  O   UNL     1      16.849  51.464  48.416  1.00  0.00    -0.323 OA
HETATM   35  C   UNL     1      20.295  51.253  49.332  1.00  0.00     0.048 A 
HETATM   36  O   UNL     1      18.192  51.903  50.370  1.00  0.00    -0.323 OA
HETATM   37  C   UNL     1      16.872  51.946  49.777  1.00  0.00     0.352 A 
ENDBRANCH  28  29
ENDBRANCH   1  28
TORSDOF 6
ENDMDL
MODEL 6
REMARK VINA RESULT:      -9.6      1.736      2.334
REMARK  6 active torsions:
REMARK  status: ('A' for Active; 'I' for Inactive)
REMARK    1  A    between atoms: C_2  and  C_3 
REMARK    2  A    between atoms: C_3  and  N_4 
REMARK    3  A    between atoms: C_10  and  S_11 
REMARK    4  A    between atoms: S_11  and  C_12 
REMARK    5  A    between atoms: C_12  and  C_13 
REMARK       I    between atoms: C_13  and  N_14 
REMARK    6  A    between atoms: N_14  and  C_15 
ROOT
HETATM    1  N   UNL     1      22.700  48.345  48.794  1.00  0.00    -0.063 N 
HETATM    2  H   UNL     1      22.182  48.239  49.675  1.00  0.00     0.280 HD
HETATM    3  C   UNL     1      22.546  47.025  48.045  1.00  0.00     0.281 C 
HETATM    4  C   UNL     1      23.476  45.961  48.516  1.00  0.00     0.060 A 
HETATM    5  C   UNL     1      24.470  46.141  49.398  1.00  0.00     0.052 A 
HETATM    6  N   UNL     1      25.339  45.153  49.783  1.00  0.00    -0.228 NA
HETATM    7  C   UNL     1      25.170  43.979  49.272  1.00  0.00     0.169 A 
HETATM    8  N   UNL     1      24.183  43.672  48.389  1.00  0.00    -0.302 N 
HETATM    9  C   UNL     1      23.303  44.611  47.946  1.00  0.00     0.257 A 
HETATM   10  O   UNL     1      22.427  44.394  47.120  1.00  0.00    -0.267 OA
HETATM   11  C   UNL     1      24.723  47.501  49.994  1.00  0.00     0.088 C 
HETATM   12  C   UNL     1      24.146  48.629  49.142  1.00  0.00     0.241 C 
HETATM   13  H   UNL     1      24.112  42.732  48.026  1.00  0.00     0.171 HD
ENDROOT
BRANCH   7  14
HETATM   14  S   UNL     1      26.206  42.635  49.640  1.00  0.00    -0.083 SA
BRANCH  14  15
HETATM   15  C   UNL     1      26.110  42.685  51.457  1.00  0.00     0.185 C 
BRANCH  15  16
HETATM   16  C   UNL     1      27.274  43.402  52.120  1.00  0.00     0.232 C 
HETATM   17  N   UNL     1      27.319  43.301  53.498  1.00  0.00    -0.324 N 
HETATM   18  H   UNL     1      26.423  43.161  53.952  1.00  0.00     0.169 HD
HETATM   19  O   UNL     1      28.104  43.982  51.422  1.00  0.00    -0.272 OA
BRANCH  17  20
HETATM   20  C   UNL     1      28.407  43.681  54.314  1.00  0.00     0.076 A 
HETATM   21  C   UNL     1      29.537  42.878  54.543  1.00  0.00     0.143 A 
HETATM   22  F   UNL     1      29.607  41.625  54.072  1.00  0.00    -0.204 F 
HETATM   23  C   UNL     1      30.580  43.314  55.363  1.00  0.00     0.047 A 
HETATM   24  C   UNL     1      30.501  44.560  55.980  1.00  0.00     0.045 A 
HETATM   25  C   UNL     1      29.369  45.342  55.784  1.00  0.00     0.118 A 
HETATM   26  F   UNL     1      29.281  46.534  56.390  1.00  0.00    -0.206 F 
HETATM   27  C   UNL     1      28.321  44.912  54.971  1.00  0.00     0.074 A 
ENDBRANCH  17  20
ENDBRANCH  15  16
ENDBRANCH  14  15
ENDBRANCH   7  14
BRANCH   1  28
HETATM   28  C   UNL     1      22.074  49.509  48.062  1.00  0.00     0.273 C 
BRANCH  28  29
HETATM   29  C   UNL     1      20.789  49.991  48.674  1.00  0.00    -0.030 A 
HETATM   30  C   UNL     1      20.033  49.140  49.516  1.00  0.00     0.012 A 
HETATM   31  C   UNL     1      18.825  49.569  50.074  1.00  0.00     0.040 A 
HETATM   32  C   UNL     1      18.394  50.842  49.777  1.00  0.00     0.105 A 
HETATM   33  C   UNL     1      19.123  51.678  48.967  1.00  0.00     0.105 A 
HETATM   34  O   UNL     1      17.244  51.417  50.215  1.00  0.00    -0.323 OA
HETATM   35  C   UNL     1      20.320  51.289  48.403  1.00  0.00     0.048 A 
HETATM   36  O   UNL     1      18.525  52.886  48.794  1.00  0.00    -0.323 OA
HETATM   37  C   UNL     1      17.312  52.704  49.562  1.00  0.00     0.352 A 
ENDBRANCH  28  29
ENDBRANCH   1  28
TORSDOF 6
ENDMDL
MODEL 7
REMARK VINA RESULT:      -9.5      4.832     11.910
REMARK  6 active torsions:
REMARK  status: ('A' for Active; 'I' for Inactive)
REMARK    1  A    between atoms: C_2  and  C_3 
REMARK    2  A    between atoms: C_3  and  N_4 
REMARK    3  A    between atoms: C_10  and  S_11 
REMARK    4  A    between atoms: S_11  and  C_12 
REMARK    5  A    between atoms: C_12  and  C_13 
REMARK       I    between atoms: C_13  and  N_14 
REMARK    6  A    between atoms: N_14  and  C_15 
ROOT
HETATM    1  N   UNL     1      25.978  45.169  51.233  1.00  0.00    -0.063 N 
HETATM    2  H   UNL     1      25.592  45.480  52.134  1.00  0.00     0.280 HD
HETATM    3  C   UNL     1      26.632  46.394  50.601  1.00  0.00     0.281 C 
HETATM    4  C   UNL     1      25.664  47.301  49.923  1.00  0.00     0.060 A 
HETATM    5  C   UNL     1      24.365  47.035  49.727  1.00  0.00     0.052 A 
HETATM    6  N   UNL     1      23.506  47.871  49.062  1.00  0.00    -0.228 NA
HETATM    7  C   UNL     1      23.983  48.985  48.617  1.00  0.00     0.169 A 
HETATM    8  N   UNL     1      25.275  49.373  48.779  1.00  0.00    -0.302 N 
HETATM    9  C   UNL     1      26.187  48.581  49.406  1.00  0.00     0.257 A 
HETATM   10  O   UNL     1      27.369  48.866  49.536  1.00  0.00    -0.267 OA
HETATM   11  C   UNL     1      23.774  45.734  50.202  1.00  0.00     0.088 C 
HETATM   12  C   UNL     1      24.831  44.648  50.395  1.00  0.00     0.241 C 
HETATM   13  H   UNL     1      25.582  50.258  48.400  1.00  0.00     0.171 HD
ENDROOT
BRANCH   7  14
HETATM   14  S   UNL     1      23.025  50.132  47.733  1.00  0.00    -0.083 SA
BRANCH  14  15
HETATM   15  C   UNL     1      22.343  51.079  49.129  1.00  0.00     0.185 C 
BRANCH  15  16
HETATM   16  C   UNL     1      20.846  50.913  49.318  1.00  0.00     0.232 C 
HETATM   17  N   UNL     1      20.072  51.942  48.813  1.00  0.00    -0.324 N 
HETATM   18  H   UNL     1      20.528  52.847  48.770  1.00  0.00     0.169 HD
HETATM   19  O   UNL     1      20.412  49.895  49.854  1.00  0.00    -0.272 OA
BRANCH  17  20
HETATM   20  C   UNL     1      18.667  51.916  48.663  1.00  0.00     0.076 A 
HETATM   21  C   UNL     1      18.008  51.502  47.493  1.00  0.00     0.143 A 
HETATM   22  F   UNL     1      18.692  51.196  46.381  1.00  0.00    -0.204 F 
HETATM   23  C   UNL     1      16.615  51.501  47.411  1.00  0.00     0.047 A 
HETATM   24  C   UNL     1      15.856  51.929  48.497  1.00  0.00     0.045 A 
HETATM   25  C   UNL     1      16.505  52.372  49.643  1.00  0.00     0.118 A 
HETATM   26  F   UNL     1      15.780  52.802  50.684  1.00  0.00    -0.206 F 
HETATM   27  C   UNL     1      17.896  52.382  49.733  1.00  0.00     0.074 A 
ENDBRANCH  17  20
ENDBRANCH  15  16
ENDBRANCH  14  15
ENDBRANCH   7  14
BRANCH   1  28
HETATM   28  C   UNL     1      26.970  44.072  51.544  1.00  0.00     0.273 C 
BRANCH  28  29
HETATM   29  C   UNL     1      27.715  44.276  52.835  1.00  0.00    -0.030 A 
HETATM   30  C   UNL     1      27.286  45.255  53.762  1.00  0.00     0.012 A 
HETATM   31  C   UNL     1      27.983  45.469  54.956  1.00  0.00     0.040 A 
HETATM   32  C   UNL     1      29.098  44.698  55.197  1.00  0.00     0.105 A 
HETATM   33  C   UNL     1      29.518  43.741  54.307  1.00  0.00     0.105 A 
HETATM   34  O   UNL     1      29.901  44.779  56.290  1.00  0.00    -0.323 OA
HETATM   35  C   UNL     1      28.853  43.501  53.123  1.00  0.00     0.048 A 
HETATM   36  O   UNL     1      30.638  43.096  54.727  1.00  0.00    -0.323 OA
HETATM   37  C   UNL     1      30.899  43.784  55.974  1.00  0.00     0.352 A 
ENDBRANCH  28  29
ENDBRANCH   1  28
TORSDOF 6
ENDMDL
MODEL 8
REMARK VINA RESULT:      -9.5      1.520      2.084
REMARK  6 active torsions:
REMARK  status: ('A' for Active; 'I' for Inactive)
REMARK    1  A    between atoms: C_2  and  C_3 
REMARK    2  A    between atoms: C_3  and  N_4 
REMARK    3  A    between atoms: C_10  and  S_11 
REMARK    4  A    between atoms: S_11  and  C_12 
REMARK    5  A    between atoms: C_12  and  C_13 
REMARK       I    between atoms: C_13  and  N_14 
REMARK    6  A    between atoms: N_14  and  C_15 
ROOT
HETATM    1  N   UNL     1      23.043  49.091  48.151  1.00  0.00    -0.063 N 
HETATM    2  H   UNL     1      23.217  48.685  47.223  1.00  0.00     0.280 HD
HETATM    3  C   UNL     1      24.358  48.995  48.917  1.00  0.00     0.281 C 
HETATM    4  C   UNL     1      24.607  47.649  49.505  1.00  0.00     0.060 A 
HETATM    5  C   UNL     1      23.725  46.639  49.519  1.00  0.00     0.052 A 
HETATM    6  N   UNL     1      23.966  45.423  50.105  1.00  0.00    -0.228 NA
HETATM    7  C   UNL     1      25.119  45.246  50.658  1.00  0.00     0.169 A 
HETATM    8  N   UNL     1      26.100  46.186  50.683  1.00  0.00    -0.302 N 
HETATM    9  C   UNL     1      25.919  47.423  50.143  1.00  0.00     0.257 A 
HETATM   10  O   UNL     1      26.753  48.316  50.178  1.00  0.00    -0.267 OA
HETATM   11  C   UNL     1      22.357  46.813  48.915  1.00  0.00     0.088 C 
HETATM   12  C   UNL     1      21.947  48.281  48.810  1.00  0.00     0.241 C 
HETATM   13  H   UNL     1      26.978  45.980  51.137  1.00  0.00     0.171 HD
ENDROOT
BRANCH   7  14
HETATM   14  S   UNL     1      25.560  43.772  51.463  1.00  0.00    -0.083 SA
BRANCH  14  15
HETATM   15  C   UNL     1      27.305  44.146  51.820  1.00  0.00     0.185 C 
BRANCH  15  16
HETATM   16  C   UNL     1      27.644  44.168  53.300  1.00  0.00     0.232 C 
HETATM   17  N   UNL     1      28.995  44.202  53.593  1.00  0.00    -0.324 N 
HETATM   18  H   UNL     1      29.601  43.791  52.891  1.00  0.00     0.169 HD
HETATM   19  O   UNL     1      26.736  44.192  54.130  1.00  0.00    -0.272 OA
BRANCH  17  20
HETATM   20  C   UNL     1      29.553  44.452  54.866  1.00  0.00     0.076 A 
HETATM   21  C   UNL     1      29.290  45.603  55.629  1.00  0.00     0.143 A 
HETATM   22  F   UNL     1      28.554  46.609  55.137  1.00  0.00    -0.204 F 
HETATM   23  C   UNL     1      29.876  45.789  56.882  1.00  0.00     0.047 A 
HETATM   24  C   UNL     1      30.750  44.830  57.388  1.00  0.00     0.045 A 
HETATM   25  C   UNL     1      31.040  43.708  56.621  1.00  0.00     0.118 A 
HETATM   26  F   UNL     1      31.894  42.790  57.096  1.00  0.00    -0.206 F 
HETATM   27  C   UNL     1      30.463  43.515  55.366  1.00  0.00     0.074 A 
ENDBRANCH  17  20
ENDBRANCH  15  16
ENDBRANCH  14  15
ENDBRANCH   7  14
BRANCH   1  28
HETATM   28  C   UNL     1      22.604  50.519  47.921  1.00  0.00     0.273 C 
BRANCH  28  29
HETATM   29  C   UNL     1      21.112  50.704  47.933  1.00  0.00    -0.030 A 
HETATM   30  C   UNL     1      20.500  51.528  48.908  1.00  0.00     0.012 A 
HETATM   31  C   UNL     1      19.111  51.691  48.944  1.00  0.00     0.040 A 
HETATM   32  C   UNL     1      18.361  51.024  48.002  1.00  0.00     0.105 A 
HETATM   33  C   UNL     1      18.945  50.228  47.047  1.00  0.00     0.105 A 
HETATM   34  O   UNL     1      17.007  51.053  47.895  1.00  0.00    -0.323 OA
HETATM   35  C   UNL     1      20.311  50.048  46.981  1.00  0.00     0.048 A 
HETATM   36  O   UNL     1      18.033  49.656  46.218  1.00  0.00    -0.323 OA
HETATM   37  C   UNL     1      16.798  50.156  46.783  1.00  0.00     0.352 A 
ENDBRANCH  28  29
ENDBRANCH   1  28
TORSDOF 6
ENDMDL
MODEL 9
REMARK VINA RESULT:      -9.5      4.880     11.877
REMARK  6 active torsions:
REMARK  status: ('A' for Active; 'I' for Inactive)
REMARK    1  A    between atoms: C_2  and  C_3 
REMARK    2  A    between atoms: C_3  and  N_4 
REMARK    3  A    between atoms: C_10  and  S_11 
REMARK    4  A    between atoms: S_11  and  C_12 
REMARK    5  A    between atoms: C_12  and  C_13 
REMARK       I    between atoms: C_13  and  N_14 
REMARK    6  A    between atoms: N_14  and  C_15 
ROOT
HETATM    1  N   UNL     1      26.520  44.733  52.203  1.00  0.00    -0.063 N 
HETATM    2  H   UNL     1      27.341  44.886  51.604  1.00  0.00     0.280 HD
HETATM    3  C   UNL     1      25.360  44.409  51.268  1.00  0.00     0.281 C 
HETATM    4  C   UNL     1      24.740  45.614  50.650  1.00  0.00     0.060 A 
HETATM    5  C   UNL     1      25.034  46.883  50.970  1.00  0.00     0.052 A 
HETATM    6  N   UNL     1      24.416  47.974  50.415  1.00  0.00    -0.228 NA
HETATM    7  C   UNL     1      23.512  47.755  49.520  1.00  0.00     0.169 A 
HETATM    8  N   UNL     1      23.149  46.515  49.097  1.00  0.00    -0.302 N 
HETATM    9  C   UNL     1      23.703  45.389  49.624  1.00  0.00     0.257 A 
HETATM   10  O   UNL     1      23.378  44.253  49.309  1.00  0.00    -0.267 OA
HETATM   11  C   UNL     1      26.059  47.183  52.031  1.00  0.00     0.088 C 
HETATM   12  C   UNL     1      26.277  46.008  52.983  1.00  0.00     0.241 C 
HETATM   13  H   UNL     1      22.429  46.418  48.394  1.00  0.00     0.171 HD
ENDROOT
BRANCH   7  14
HETATM   14  S   UNL     1      22.624  49.032  48.747  1.00  0.00    -0.083 SA
BRANCH  14  15
HETATM   15  C   UNL     1      21.112  48.116  48.317  1.00  0.00     0.185 C 
BRANCH  15  16
HETATM   16  C   UNL     1      19.844  48.692  48.923  1.00  0.00     0.232 C 
HETATM   17  N   UNL     1      19.368  49.836  48.309  1.00  0.00    -0.324 N 
HETATM   18  H   UNL     1      20.069  50.404  47.846  1.00  0.00     0.169 HD
HETATM   19  O   UNL     1      19.306  48.115  49.866  1.00  0.00    -0.272 OA
BRANCH  17  20
HETATM   20  C   UNL     1      18.103  50.424  48.536  1.00  0.00     0.076 A 
HETATM   21  C   UNL     1      16.908  49.973  47.952  1.00  0.00     0.143 A 
HETATM   22  F   UNL     1      16.909  48.994  47.036  1.00  0.00    -0.204 F 
HETATM   23  C   UNL     1      15.691  50.600  48.219  1.00  0.00     0.047 A 
HETATM   24  C   UNL     1      15.651  51.703  49.068  1.00  0.00     0.045 A 
HETATM   25  C   UNL     1      16.836  52.174  49.620  1.00  0.00     0.118 A 
HETATM   26  F   UNL     1      16.805  53.246  50.424  1.00  0.00    -0.206 F 
HETATM   27  C   UNL     1      18.058  51.557  49.355  1.00  0.00     0.074 A 
ENDBRANCH  17  20
ENDBRANCH  15  16
ENDBRANCH  14  15
ENDBRANCH   7  14
BRANCH   1  28
HETATM   28  C   UNL     1      26.866  43.587  53.125  1.00  0.00     0.273 C 
BRANCH  28  29
HETATM   29  C   UNL     1      28.052  43.855  54.009  1.00  0.00    -0.030 A 
HETATM   30  C   UNL     1      29.231  43.081  53.882  1.00  0.00     0.012 A 
HETATM   31  C   UNL     1      30.333  43.307  54.713  1.00  0.00     0.040 A 
HETATM   32  C   UNL     1      30.233  44.303  55.658  1.00  0.00     0.105 A 
HETATM   33  C   UNL     1      29.097  45.064  55.785  1.00  0.00     0.105 A 
HETATM   34  O   UNL     1      31.192  44.649  56.555  1.00  0.00    -0.323 OA
HETATM   35  C   UNL     1      27.994  44.871  54.980  1.00  0.00     0.048 A 
HETATM   36  O   UNL     1      29.198  45.987  56.778  1.00  0.00    -0.323 OA
HETATM   37  C   UNL     1      30.520  45.696  57.288  1.00  0.00     0.352 A 
ENDBRANCH  28  29
ENDBRANCH   1  28
TORSDOF 6
ENDMDL
MODEL 10
REMARK VINA RESULT:      -9.5      2.083      2.696
REMARK  6 active torsions:
REMARK  status: ('A' for Active; 'I' for Inactive)
REMARK    1  A    between atoms: C_2  and  C_3 
REMARK    2  A    between atoms: C_3  and  N_4 
REMARK    3  A    between atoms: C_10  and  S_11 
REMARK    4  A    between atoms: S_11  and  C_12 
REMARK    5  A    between atoms: C_12  and  C_13 
REMARK       I    between atoms: C_13  and  N_14 
REMARK    6  A    between atoms: N_14  and  C_15 
ROOT
HETATM    1  N   UNL     1      21.361  46.678  47.180  1.00  0.00    -0.063 N 
HETATM    2  H   UNL     1      21.923  46.715  46.320  1.00  0.00     0.280 HD
HETATM    3  C   UNL     1      22.096  47.528  48.211  1.00  0.00     0.281 C 
HETATM    4  C   UNL     1      23.228  46.818  48.869  1.00  0.00     0.060 A 
HETATM    5  C   UNL     1      23.514  45.516  48.718  1.00  0.00     0.052 A 
HETATM    6  N   UNL     1      24.537  44.878  49.369  1.00  0.00    -0.228 NA
HETATM    7  C   UNL     1      25.273  45.585  50.160  1.00  0.00     0.169 A 
HETATM    8  N   UNL     1      25.095  46.916  50.372  1.00  0.00    -0.302 N 
HETATM    9  C   UNL     1      24.083  47.606  49.778  1.00  0.00     0.257 A 
HETATM   10  O   UNL     1      23.855  48.792  49.971  1.00  0.00    -0.267 OA
HETATM   11  C   UNL     1      22.662  44.647  47.831  1.00  0.00     0.088 C 
HETATM   12  C   UNL     1      21.268  45.229  47.607  1.00  0.00     0.241 C 
HETATM   13  H   UNL     1      25.707  47.407  51.008  1.00  0.00     0.171 HD
ENDROOT
BRANCH   7  14
HETATM   14  S   UNL     1      26.588  44.914  51.074  1.00  0.00    -0.083 SA
BRANCH  14  15
HETATM   15  C   UNL     1      25.661  44.319  52.523  1.00  0.00     0.185 C 
BRANCH  15  16
HETATM   16  C   UNL     1      26.505  44.160  53.776  1.00  0.00     0.232 C 
HETATM   17  N   UNL     1      27.821  44.564  53.652  1.00  0.00    -0.324 N 
HETATM   18  H   UNL     1      28.205  44.511  52.715  1.00  0.00     0.169 HD
HETATM   19  O   UNL     1      25.986  43.732  54.805  1.00  0.00    -0.272 OA
BRANCH  17  20
HETATM   20  C   UNL     1      28.734  44.726  54.719  1.00  0.00     0.076 A 
HETATM   21  C   UNL     1      28.720  45.814  55.608  1.00  0.00     0.143 A 
HETATM   22  F   UNL     1      27.882  46.845  55.431  1.00  0.00    -0.204 F 
HETATM   23  C   UNL     1      29.652  45.914  56.642  1.00  0.00     0.047 A 
HETATM   24  C   UNL     1      30.626  44.931  56.795  1.00  0.00     0.045 A 
HETATM   25  C   UNL     1      30.665  43.871  55.895  1.00  0.00     0.118 A 
HETATM   26  F   UNL     1      31.611  42.932  56.028  1.00  0.00    -0.206 F 
HETATM   27  C   UNL     1      29.741  43.765  54.857  1.00  0.00     0.074 A 
ENDBRANCH  17  20
ENDBRANCH  15  16
ENDBRANCH  14  15
ENDBRANCH   7  14
BRANCH   1  28
HETATM   28  C   UNL     1      19.999  47.233  46.829  1.00  0.00     0.273 C 
BRANCH  28  29
HETATM   29  C   UNL     1      19.465  48.213  47.836  1.00  0.00    -0.030 A 
HETATM   30  C   UNL     1      18.944  47.759  49.071  1.00  0.00     0.012 A 
HETATM   31  C   UNL     1      18.424  48.659  50.007  1.00  0.00     0.040 A 
HETATM   32  C   UNL     1      18.435  49.998  49.687  1.00  0.00     0.105 A 
HETATM   33  C   UNL     1      18.945  50.449  48.495  1.00  0.00     0.105 A 
HETATM   34  O   UNL     1      17.960  51.006  50.463  1.00  0.00    -0.323 OA
HETATM   35  C   UNL     1      19.468  49.590  47.551  1.00  0.00     0.048 A 
HETATM   36  O   UNL     1      18.857  51.800  48.370  1.00  0.00    -0.323 OA
HETATM   37  C   UNL     1      18.198  52.147  49.611  1.00  0.00     0.352 A 
ENDBRANCH  28  29
ENDBRANCH   1  28
TORSDOF 6
ENDMDL
