MODEL 1
REMARK VINA RESULT:      -9.2      0.000      0.000
REMARK  5 active torsions:
REMARK  status: ('A' for Active; 'I' for Inactive)
REMARK    1  A    between atoms: C_4  and  O_5 
REMARK    2  A    between atoms: O_5  and  C_6 
REMARK    3  A    between atoms: C_6  and  C_7 
REMARK       I    between atoms: C_7  and  N_8 
REMARK    4  A    between atoms: N_8  and  N_9 
REMARK    5  A    between atoms: C_10  and  C_11 
ROOT
HETATM    1  C   UNL     1      25.254  44.958  52.570  1.00  0.00     0.261 C 
HETATM    2  N   UNL     1      25.924  46.171  52.441  1.00  0.00    -0.246 N 
HETATM    3  O   UNL     1      24.255  44.610  51.944  1.00  0.00    -0.269 OA
HETATM    4  H   UNL     1      26.572  46.414  53.189  1.00  0.00     0.192 HD
ENDROOT
BRANCH   2   5
HETATM    5  N   UNL     1      25.566  47.229  51.639  1.00  0.00    -0.184 NA
HETATM    6  C   UNL     1      25.972  47.250  50.410  1.00  0.00     0.153 C 
BRANCH   6   7
HETATM    7  C   UNL     1      25.588  48.332  49.518  1.00  0.00     0.018 A 
HETATM    8  C   UNL     1      24.246  48.608  49.085  1.00  0.00     0.004 A 
HETATM    9  C   UNL     1      24.298  49.710  48.233  1.00  0.00     0.043 A 
HETATM   10  C   UNL     1      22.988  48.025  49.351  1.00  0.00     0.014 A 
HETATM   11  C   UNL     1      23.159  50.252  47.625  1.00  0.00     0.030 A 
HETATM   12  N   UNL     1      25.615  50.093  48.151  1.00  0.00    -0.358 N 
HETATM   13  C   UNL     1      21.927  49.654  47.901  1.00  0.00     0.002 A 
HETATM   14  C   UNL     1      21.840  48.556  48.754  1.00  0.00     0.001 A 
HETATM   15  H   UNL     1      25.945  50.871  47.598  1.00  0.00     0.166 HD
HETATM   16  C   UNL     1      26.410  49.275  48.916  1.00  0.00     0.018 A 
HETATM   17  C   UNL     1      27.882  49.477  48.982  1.00  0.00     0.069 C 
ENDBRANCH   6   7
ENDBRANCH   2   5
BRANCH   1  18
HETATM   18  C   UNL     1      25.951  43.998  53.528  1.00  0.00     0.280 C 
BRANCH  18  19
HETATM   19  O   UNL     1      27.216  43.583  53.022  1.00  0.00    -0.342 OA
BRANCH  19  20
HETATM   20  C   UNL     1      28.267  43.798  53.875  1.00  0.00     0.069 A 
HETATM   21  C   UNL     1      28.315  44.803  54.847  1.00  0.00     0.043 A 
HETATM   22  C   UNL     1      29.444  44.952  55.665  1.00  0.00    -0.059 A 
HETATM   23  C   UNL     1      29.487  46.017  56.721  1.00  0.00     0.048 C 
HETATM   24  C   UNL     1      30.512  44.057  55.524  1.00  0.00     0.007 A 
HETATM   25  C   UNL     1      30.457  43.040  54.572  1.00  0.00     0.003 A 
HETATM   26  C   UNL     1      29.334  42.908  53.754  1.00  0.00     0.037 A 
ENDBRANCH  19  20
ENDBRANCH  18  19
ENDBRANCH   1  18
TORSDOF 5
ENDMDL
MODEL 2
REMARK VINA RESULT:      -8.9      1.552      2.152
REMARK  5 active torsions:
REMARK  status: ('A' for Active; 'I' for Inactive)
REMARK    1  A    between atoms: C_4  and  O_5 
REMARK    2  A    between atoms: O_5  and  C_6 
REMARK    3  A    between atoms: C_6  and  C_7 
REMARK       I    between atoms: C_7  and  N_8 
REMARK    4  A    between atoms: N_8  and  N_9 
REMARK    5  A    between atoms: C_10  and  C_11 
ROOT
HETATM    1  C   UNL     1      25.719  46.790  52.743  1.00  0.00     0.261 C 
HETATM    2  N   UNL     1      25.388  46.800  51.391  1.00  0.00    -0.246 N 
HETATM    3  O   UNL     1      25.550  47.711  53.540  1.00  0.00    -0.269 OA
HETATM    4  H   UNL     1      25.809  46.074  50.815  1.00  0.00     0.192 HD
ENDROOT
BRANCH   2   5
HETATM    5  N   UNL     1      24.870  47.857  50.679  1.00  0.00    -0.184 NA
HETATM    6  C   UNL     1      24.174  47.614  49.614  1.00  0.00     0.153 C 
BRANCH   6   7
HETATM    7  C   UNL     1      23.579  48.699  48.851  1.00  0.00     0.018 A 
HETATM    8  C   UNL     1      22.170  48.898  48.662  1.00  0.00     0.004 A 
HETATM    9  C   UNL     1      22.009  50.031  47.866  1.00  0.00     0.043 A 
HETATM   10  C   UNL     1      21.012  48.223  49.107  1.00  0.00     0.014 A 
HETATM   11  C   UNL     1      20.753  50.518  47.482  1.00  0.00     0.030 A 
HETATM   12  N   UNL     1      23.267  50.505  47.583  1.00  0.00    -0.358 N 
HETATM   13  C   UNL     1      19.624  49.828  47.933  1.00  0.00     0.002 A 
HETATM   14  C   UNL     1      19.749  48.697  48.736  1.00  0.00     0.001 A 
HETATM   15  H   UNL     1      23.451  51.323  47.019  1.00  0.00     0.166 HD
HETATM   16  C   UNL     1      24.229  49.715  48.165  1.00  0.00     0.018 A 
HETATM   17  C   UNL     1      25.676  50.014  47.993  1.00  0.00     0.069 C 
ENDBRANCH   6   7
ENDBRANCH   2   5
BRANCH   1  18
HETATM   18  C   UNL     1      26.243  45.436  53.211  1.00  0.00     0.280 C 
BRANCH  18  19
HETATM   19  O   UNL     1      27.192  45.580  54.264  1.00  0.00    -0.342 OA
BRANCH  19  20
HETATM   20  C   UNL     1      28.256  44.720  54.189  1.00  0.00     0.069 A 
HETATM   21  C   UNL     1      29.169  44.485  55.223  1.00  0.00     0.043 A 
HETATM   22  C   UNL     1      30.237  43.595  55.044  1.00  0.00    -0.059 A 
HETATM   23  C   UNL     1      31.204  43.328  56.160  1.00  0.00     0.048 C 
HETATM   24  C   UNL     1      30.360  42.912  53.828  1.00  0.00     0.007 A 
HETATM   25  C   UNL     1      29.438  43.126  52.804  1.00  0.00     0.003 A 
HETATM   26  C   UNL     1      28.386  44.024  52.987  1.00  0.00     0.037 A 
ENDBRANCH  19  20
ENDBRANCH  18  19
ENDBRANCH   1  18
TORSDOF 5
ENDMDL
MODEL 3
REMARK VINA RESULT:      -8.8      5.045      8.431
REMARK  5 active torsions:
REMARK  status: ('A' for Active; 'I' for Inactive)
REMARK    1  A    between atoms: C_4  and  O_5 
REMARK    2  A    between atoms: O_5  and  C_6 
REMARK    3  A    between atoms: C_6  and  C_7 
REMARK       I    between atoms: C_7  and  N_8 
REMARK    4  A    between atoms: N_8  and  N_9 
REMARK    5  A    between atoms: C_10  and  C_11 
ROOT
HETATM    1  C   UNL     1      26.202  42.582  51.421  1.00  0.00     0.261 C 
HETATM    2  N   UNL     1      27.247  42.334  52.307  1.00  0.00    -0.246 N 
HETATM    3  O   UNL     1      25.401  43.511  51.484  1.00  0.00    -0.269 OA
HETATM    4  H   UNL     1      27.663  41.405  52.272  1.00  0.00     0.192 HD
ENDROOT
BRANCH   2   5
HETATM    5  N   UNL     1      27.543  43.042  53.448  1.00  0.00    -0.184 NA
HETATM    6  C   UNL     1      28.434  43.980  53.391  1.00  0.00     0.153 C 
BRANCH   6   7
HETATM    7  C   UNL     1      28.753  44.776  54.566  1.00  0.00     0.018 A 
HETATM    8  C   UNL     1      29.733  44.428  55.556  1.00  0.00     0.004 A 
HETATM    9  C   UNL     1      29.730  45.434  56.521  1.00  0.00     0.043 A 
HETATM   10  C   UNL     1      30.634  43.352  55.713  1.00  0.00     0.014 A 
HETATM   11  C   UNL     1      30.572  45.415  57.640  1.00  0.00     0.030 A 
HETATM   12  N   UNL     1      28.789  46.358  56.135  1.00  0.00    -0.358 N 
HETATM   13  C   UNL     1      31.451  44.337  57.773  1.00  0.00     0.002 A 
HETATM   14  C   UNL     1      31.485  43.319  56.823  1.00  0.00     0.001 A 
HETATM   15  H   UNL     1      28.574  47.198  56.653  1.00  0.00     0.166 HD
HETATM   16  C   UNL     1      28.186  45.980  54.960  1.00  0.00     0.018 A 
HETATM   17  C   UNL     1      27.119  46.811  54.342  1.00  0.00     0.069 C 
ENDBRANCH   6   7
ENDBRANCH   2   5
BRANCH   1  18
HETATM   18  C   UNL     1      26.188  41.615  50.242  1.00  0.00     0.280 C 
BRANCH  18  19
HETATM   19  O   UNL     1      27.407  41.671  49.507  1.00  0.00    -0.342 OA
BRANCH  19  20
HETATM   20  C   UNL     1      27.978  40.450  49.260  1.00  0.00     0.069 A 
HETATM   21  C   UNL     1      28.618  39.658  50.219  1.00  0.00     0.043 A 
HETATM   22  C   UNL     1      29.186  38.426  49.864  1.00  0.00    -0.059 A 
HETATM   23  C   UNL     1      29.855  37.568  50.898  1.00  0.00     0.048 C 
HETATM   24  C   UNL     1      29.073  37.977  48.543  1.00  0.00     0.007 A 
HETATM   25  C   UNL     1      28.415  38.754  47.590  1.00  0.00     0.003 A 
HETATM   26  C   UNL     1      27.865  39.984  47.950  1.00  0.00     0.037 A 
ENDBRANCH  19  20
ENDBRANCH  18  19
ENDBRANCH   1  18
TORSDOF 5
ENDMDL
MODEL 4
REMARK VINA RESULT:      -8.7      2.084      9.130
REMARK  5 active torsions:
REMARK  status: ('A' for Active; 'I' for Inactive)
REMARK    1  A    between atoms: C_4  and  O_5 
REMARK    2  A    between atoms: O_5  and  C_6 
REMARK    3  A    between atoms: C_6  and  C_7 
REMARK       I    between atoms: C_7  and  N_8 
REMARK    4  A    between atoms: N_8  and  N_9 
REMARK    5  A    between atoms: C_10  and  C_11 
ROOT
HETATM    1  C   UNL     1      25.811  46.267  50.062  1.00  0.00     0.261 C 
HETATM    2  N   UNL     1      25.845  45.548  51.254  1.00  0.00    -0.246 N 
HETATM    3  O   UNL     1      26.757  46.462  49.303  1.00  0.00    -0.269 OA
HETATM    4  H   UNL     1      25.060  45.682  51.889  1.00  0.00     0.192 HD
ENDROOT
BRANCH   2   5
HETATM    5  N   UNL     1      26.950  44.973  51.836  1.00  0.00    -0.184 NA
HETATM    6  C   UNL     1      26.783  44.136  52.810  1.00  0.00     0.153 C 
BRANCH   6   7
HETATM    7  C   UNL     1      27.921  43.480  53.431  1.00  0.00     0.018 A 
HETATM    8  C   UNL     1      28.778  44.073  54.419  1.00  0.00     0.004 A 
HETATM    9  C   UNL     1      29.752  43.133  54.751  1.00  0.00     0.043 A 
HETATM   10  C   UNL     1      28.806  45.325  55.072  1.00  0.00     0.014 A 
HETATM   11  C   UNL     1      30.758  43.382  55.692  1.00  0.00     0.030 A 
HETATM   12  N   UNL     1      29.499  42.011  53.998  1.00  0.00    -0.358 N 
HETATM   13  C   UNL     1      30.766  44.630  56.320  1.00  0.00     0.002 A 
HETATM   14  C   UNL     1      29.803  45.590  56.018  1.00  0.00     0.001 A 
HETATM   15  H   UNL     1      30.053  41.167  54.036  1.00  0.00     0.166 HD
HETATM   16  C   UNL     1      28.401  42.199  53.194  1.00  0.00     0.018 A 
HETATM   17  C   UNL     1      27.932  41.130  52.272  1.00  0.00     0.069 C 
ENDBRANCH   6   7
ENDBRANCH   2   5
BRANCH   1  18
HETATM   18  C   UNL     1      24.406  46.737  49.698  1.00  0.00     0.280 C 
BRANCH  18  19
HETATM   19  O   UNL     1      24.078  47.958  50.354  1.00  0.00    -0.342 OA
BRANCH  19  20
HETATM   20  C   UNL     1      23.693  48.969  49.512  1.00  0.00     0.069 A 
HETATM   21  C   UNL     1      22.432  49.576  49.516  1.00  0.00     0.043 A 
HETATM   22  C   UNL     1      22.128  50.595  48.603  1.00  0.00    -0.059 A 
HETATM   23  C   UNL     1      20.783  51.260  48.621  1.00  0.00     0.048 C 
HETATM   24  C   UNL     1      23.114  51.026  47.707  1.00  0.00     0.007 A 
HETATM   25  C   UNL     1      24.378  50.438  47.716  1.00  0.00     0.003 A 
HETATM   26  C   UNL     1      24.667  49.416  48.621  1.00  0.00     0.037 A 
ENDBRANCH  19  20
ENDBRANCH  18  19
ENDBRANCH   1  18
TORSDOF 5
ENDMDL
MODEL 5
REMARK VINA RESULT:      -8.7      2.356      9.027
REMARK  5 active torsions:
REMARK  status: ('A' for Active; 'I' for Inactive)
REMARK    1  A    between atoms: C_4  and  O_5 
REMARK    2  A    between atoms: O_5  and  C_6 
REMARK    3  A    between atoms: C_6  and  C_7 
REMARK       I    between atoms: C_7  and  N_8 
REMARK    4  A    between atoms: N_8  and  N_9 
REMARK    5  A    between atoms: C_10  and  C_11 
ROOT
HETATM    1  C   UNL     1      24.705  47.574  49.987  1.00  0.00     0.261 C 
HETATM    2  N   UNL     1      24.955  46.663  51.009  1.00  0.00    -0.246 N 
HETATM    3  O   UNL     1      25.403  48.541  49.688  1.00  0.00    -0.269 OA
HETATM    4  H   UNL     1      24.175  46.073  51.294  1.00  0.00     0.192 HD
ENDROOT
BRANCH   2   5
HETATM    5  N   UNL     1      25.991  46.703  51.912  1.00  0.00    -0.184 NA
HETATM    6  C   UNL     1      25.799  46.247  53.109  1.00  0.00     0.153 C 
BRANCH   6   7
HETATM    7  C   UNL     1      26.876  46.239  54.084  1.00  0.00     0.018 A 
HETATM    8  C   UNL     1      27.881  45.219  54.196  1.00  0.00     0.004 A 
HETATM    9  C   UNL     1      28.719  45.567  55.254  1.00  0.00     0.043 A 
HETATM   10  C   UNL     1      28.162  44.033  53.481  1.00  0.00     0.014 A 
HETATM   11  C   UNL     1      29.815  44.787  55.643  1.00  0.00     0.030 A 
HETATM   12  N   UNL     1      28.247  46.752  55.766  1.00  0.00    -0.358 N 
HETATM   13  C   UNL     1      30.068  43.617  54.923  1.00  0.00     0.002 A 
HETATM   14  C   UNL     1      29.255  43.244  53.855  1.00  0.00     0.001 A 
HETATM   15  H   UNL     1      28.665  47.238  56.546  1.00  0.00     0.166 HD
HETATM   16  C   UNL     1      27.135  47.174  55.077  1.00  0.00     0.018 A 
HETATM   17  C   UNL     1      26.429  48.428  55.452  1.00  0.00     0.069 C 
ENDBRANCH   6   7
ENDBRANCH   2   5
BRANCH   1  18
HETATM   18  C   UNL     1      23.483  47.204  49.154  1.00  0.00     0.280 C 
BRANCH  18  19
HETATM   19  O   UNL     1      23.196  48.201  48.177  1.00  0.00    -0.342 OA
BRANCH  19  20
HETATM   20  C   UNL     1      22.187  49.061  48.522  1.00  0.00     0.069 A 
HETATM   21  C   UNL     1      21.047  48.704  49.251  1.00  0.00     0.043 A 
HETATM   22  C   UNL     1      20.060  49.656  49.543  1.00  0.00    -0.059 A 
HETATM   23  C   UNL     1      18.847  49.278  50.342  1.00  0.00     0.048 C 
HETATM   24  C   UNL     1      20.245  50.981  49.129  1.00  0.00     0.007 A 
HETATM   25  C   UNL     1      21.391  51.344  48.423  1.00  0.00     0.003 A 
HETATM   26  C   UNL     1      22.361  50.387  48.126  1.00  0.00     0.037 A 
ENDBRANCH  19  20
ENDBRANCH  18  19
ENDBRANCH   1  18
TORSDOF 5
ENDMDL
MODEL 6
REMARK VINA RESULT:      -8.5      2.372      8.293
REMARK  5 active torsions:
REMARK  status: ('A' for Active; 'I' for Inactive)
REMARK    1  A    between atoms: C_4  and  O_5 
REMARK    2  A    between atoms: O_5  and  C_6 
REMARK    3  A    between atoms: C_6  and  C_7 
REMARK       I    between atoms: C_7  and  N_8 
REMARK    4  A    between atoms: N_8  and  N_9 
REMARK    5  A    between atoms: C_10  and  C_11 
ROOT
HETATM    1  C   UNL     1      25.280  43.829  51.953  1.00  0.00     0.261 C 
HETATM    2  N   UNL     1      26.582  43.590  52.381  1.00  0.00    -0.246 N 
HETATM    3  O   UNL     1      24.410  44.437  52.573  1.00  0.00    -0.269 OA
HETATM    4  H   UNL     1      27.101  42.870  51.881  1.00  0.00     0.192 HD
ENDROOT
BRANCH   2   5
HETATM    5  N   UNL     1      27.125  43.934  53.598  1.00  0.00    -0.184 NA
HETATM    6  C   UNL     1      27.947  44.933  53.658  1.00  0.00     0.153 C 
BRANCH   6   7
HETATM    7  C   UNL     1      28.516  45.352  54.928  1.00  0.00     0.018 A 
HETATM    8  C   UNL     1      29.578  44.676  55.619  1.00  0.00     0.004 A 
HETATM    9  C   UNL     1      29.827  45.377  56.798  1.00  0.00     0.043 A 
HETATM   10  C   UNL     1      30.362  43.533  55.342  1.00  0.00     0.014 A 
HETATM   11  C   UNL     1      30.808  44.991  57.719  1.00  0.00     0.030 A 
HETATM   12  N   UNL     1      28.954  46.439  56.825  1.00  0.00    -0.358 N 
HETATM   13  C   UNL     1      31.566  43.855  57.422  1.00  0.00     0.002 A 
HETATM   14  C   UNL     1      31.349  43.135  56.250  1.00  0.00     0.001 A 
HETATM   15  H   UNL     1      28.913  47.119  57.570  1.00  0.00     0.166 HD
HETATM   16  C   UNL     1      28.154  46.441  55.708  1.00  0.00     0.018 A 
HETATM   17  C   UNL     1      27.115  47.487  55.510  1.00  0.00     0.069 C 
ENDBRANCH   6   7
ENDBRANCH   2   5
BRANCH   1  18
HETATM   18  C   UNL     1      25.028  43.338  50.531  1.00  0.00     0.280 C 
BRANCH  18  19
HETATM   19  O   UNL     1      25.800  44.068  49.583  1.00  0.00    -0.342 OA
BRANCH  19  20
HETATM   20  C   UNL     1      25.553  45.416  49.567  1.00  0.00     0.069 A 
HETATM   21  C   UNL     1      24.292  45.995  49.391  1.00  0.00     0.043 A 
HETATM   22  C   UNL     1      24.142  47.390  49.376  1.00  0.00    -0.059 A 
HETATM   23  C   UNL     1      22.786  48.010  49.208  1.00  0.00     0.048 C 
HETATM   24  C   UNL     1      25.267  48.199  49.576  1.00  0.00     0.007 A 
HETATM   25  C   UNL     1      26.522  47.623  49.774  1.00  0.00     0.003 A 
HETATM   26  C   UNL     1      26.662  46.235  49.775  1.00  0.00     0.037 A 
ENDBRANCH  19  20
ENDBRANCH  18  19
ENDBRANCH   1  18
TORSDOF 5
ENDMDL
MODEL 7
REMARK VINA RESULT:      -8.3      2.253      9.329
REMARK  5 active torsions:
REMARK  status: ('A' for Active; 'I' for Inactive)
REMARK    1  A    between atoms: C_4  and  O_5 
REMARK    2  A    between atoms: O_5  and  C_6 
REMARK    3  A    between atoms: C_6  and  C_7 
REMARK       I    between atoms: C_7  and  N_8 
REMARK    4  A    between atoms: N_8  and  N_9 
REMARK    5  A    between atoms: C_10  and  C_11 
ROOT
HETATM    1  C   UNL     1      25.619  46.970  50.041  1.00  0.00     0.261 C 
HETATM    2  N   UNL     1      25.707  45.679  50.555  1.00  0.00    -0.246 N 
HETATM    3  O   UNL     1      26.552  47.753  49.878  1.00  0.00    -0.269 OA
HETATM    4  H   UNL     1      24.835  45.250  50.860  1.00  0.00     0.192 HD
ENDROOT
BRANCH   2   5
HETATM    5  N   UNL     1      26.838  45.059  51.033  1.00  0.00    -0.184 NA
HETATM    6  C   UNL     1      26.734  44.253  52.040  1.00  0.00     0.153 C 
BRANCH   6   7
HETATM    7  C   UNL     1      27.898  43.551  52.555  1.00  0.00     0.018 A 
HETATM    8  C   UNL     1      28.672  43.960  53.693  1.00  0.00     0.004 A 
HETATM    9  C   UNL     1      29.704  43.037  53.854  1.00  0.00     0.043 A 
HETATM   10  C   UNL     1      28.581  45.029  54.612  1.00  0.00     0.014 A 
HETATM   11  C   UNL     1      30.655  43.132  54.877  1.00  0.00     0.030 A 
HETATM   12  N   UNL     1      29.565  42.101  52.856  1.00  0.00    -0.358 N 
HETATM   13  C   UNL     1      30.544  44.201  55.769  1.00  0.00     0.002 A 
HETATM   14  C   UNL     1      29.521  45.137  55.642  1.00  0.00     0.001 A 
HETATM   15  H   UNL     1      30.181  41.311  52.731  1.00  0.00     0.166 HD
HETATM   16  C   UNL     1      28.483  42.393  52.061  1.00  0.00     0.018 A 
HETATM   17  C   UNL     1      28.130  41.534  50.899  1.00  0.00     0.069 C 
ENDBRANCH   6   7
ENDBRANCH   2   5
BRANCH   1  18
HETATM   18  C   UNL     1      24.210  47.322  49.574  1.00  0.00     0.280 C 
BRANCH  18  19
HETATM   19  O   UNL     1      23.842  48.638  49.976  1.00  0.00    -0.342 OA
BRANCH  19  20
HETATM   20  C   UNL     1      22.803  49.180  49.263  1.00  0.00     0.069 A 
HETATM   21  C   UNL     1      21.765  48.445  48.682  1.00  0.00     0.043 A 
HETATM   22  C   UNL     1      20.753  49.091  47.957  1.00  0.00    -0.059 A 
HETATM   23  C   UNL     1      19.627  48.305  47.351  1.00  0.00     0.048 C 
HETATM   24  C   UNL     1      20.773  50.487  47.852  1.00  0.00     0.007 A 
HETATM   25  C   UNL     1      21.795  51.223  48.450  1.00  0.00     0.003 A 
HETATM   26  C   UNL     1      22.804  50.570  49.159  1.00  0.00     0.037 A 
ENDBRANCH  19  20
ENDBRANCH  18  19
ENDBRANCH   1  18
TORSDOF 5
ENDMDL
MODEL 8
REMARK VINA RESULT:      -8.1      4.643      7.497
REMARK  5 active torsions:
REMARK  status: ('A' for Active; 'I' for Inactive)
REMARK    1  A    between atoms: C_4  and  O_5 
REMARK    2  A    between atoms: O_5  and  C_6 
REMARK    3  A    between atoms: C_6  and  C_7 
REMARK       I    between atoms: C_7  and  N_8 
REMARK    4  A    between atoms: N_8  and  N_9 
REMARK    5  A    between atoms: C_10  and  C_11 
ROOT
HETATM    1  C   UNL     1      26.756  43.020  49.792  1.00  0.00     0.261 C 
HETATM    2  N   UNL     1      26.662  42.546  51.097  1.00  0.00    -0.246 N 
HETATM    3  O   UNL     1      27.070  44.159  49.453  1.00  0.00    -0.269 OA
HETATM    4  H   UNL     1      26.157  41.671  51.229  1.00  0.00     0.192 HD
ENDROOT
BRANCH   2   5
HETATM    5  N   UNL     1      26.843  43.272  52.252  1.00  0.00    -0.184 NA
HETATM    6  C   UNL     1      28.034  43.675  52.559  1.00  0.00     0.153 C 
BRANCH   6   7
HETATM    7  C   UNL     1      28.265  44.474  53.752  1.00  0.00     0.018 A 
HETATM    8  C   UNL     1      27.548  45.671  54.095  1.00  0.00     0.004 A 
HETATM    9  C   UNL     1      28.070  46.143  55.297  1.00  0.00     0.043 A 
HETATM   10  C   UNL     1      26.491  46.390  53.494  1.00  0.00     0.014 A 
HETATM   11  C   UNL     1      27.598  47.303  55.926  1.00  0.00     0.030 A 
HETATM   12  N   UNL     1      29.062  45.271  55.675  1.00  0.00    -0.358 N 
HETATM   13  C   UNL     1      26.555  47.997  55.309  1.00  0.00     0.002 A 
HETATM   14  C   UNL     1      26.006  47.548  54.110  1.00  0.00     0.001 A 
HETATM   15  H   UNL     1      29.614  45.370  56.515  1.00  0.00     0.166 HD
HETATM   16  C   UNL     1      29.198  44.258  54.756  1.00  0.00     0.018 A 
HETATM   17  C   UNL     1      30.219  43.192  54.934  1.00  0.00     0.069 C 
ENDBRANCH   6   7
ENDBRANCH   2   5
BRANCH   1  18
HETATM   18  C   UNL     1      26.524  41.929  48.752  1.00  0.00     0.280 C 
BRANCH  18  19
HETATM   19  O   UNL     1      27.691  41.701  47.967  1.00  0.00    -0.342 OA
BRANCH  19  20
HETATM   20  C   UNL     1      28.141  40.406  47.982  1.00  0.00     0.069 A 
HETATM   21  C   UNL     1      28.794  39.799  49.060  1.00  0.00     0.043 A 
HETATM   22  C   UNL     1      29.230  38.469  48.974  1.00  0.00    -0.059 A 
HETATM   23  C   UNL     1      29.912  37.812  50.138  1.00  0.00     0.048 C 
HETATM   24  C   UNL     1      28.971  37.741  47.807  1.00  0.00     0.007 A 
HETATM   25  C   UNL     1      28.300  38.336  46.739  1.00  0.00     0.003 A 
HETATM   26  C   UNL     1      27.881  39.664  46.830  1.00  0.00     0.037 A 
ENDBRANCH  19  20
ENDBRANCH  18  19
ENDBRANCH   1  18
TORSDOF 5
ENDMDL
MODEL 9
REMARK VINA RESULT:      -8.1      5.273      9.428
REMARK  5 active torsions:
REMARK  status: ('A' for Active; 'I' for Inactive)
REMARK    1  A    between atoms: C_4  and  O_5 
REMARK    2  A    between atoms: O_5  and  C_6 
REMARK    3  A    between atoms: C_6  and  C_7 
REMARK       I    between atoms: C_7  and  N_8 
REMARK    4  A    between atoms: N_8  and  N_9 
REMARK    5  A    between atoms: C_10  and  C_11 
ROOT
HETATM    1  C   UNL     1      28.242  40.677  51.168  1.00  0.00     0.261 C 
HETATM    2  N   UNL     1      28.684  40.660  52.487  1.00  0.00    -0.246 N 
HETATM    3  O   UNL     1      27.701  41.620  50.594  1.00  0.00    -0.269 OA
HETATM    4  H   UNL     1      28.880  39.745  52.890  1.00  0.00     0.192 HD
ENDROOT
BRANCH   2   5
HETATM    5  N   UNL     1      28.547  41.667  53.414  1.00  0.00    -0.184 NA
HETATM    6  C   UNL     1      29.425  42.618  53.442  1.00  0.00     0.153 C 
BRANCH   6   7
HETATM    7  C   UNL     1      29.299  43.719  54.383  1.00  0.00     0.018 A 
HETATM    8  C   UNL     1      30.096  43.890  55.565  1.00  0.00     0.004 A 
HETATM    9  C   UNL     1      29.662  45.052  56.201  1.00  0.00     0.043 A 
HETATM   10  C   UNL     1      31.159  43.165  56.148  1.00  0.00     0.014 A 
HETATM   11  C   UNL     1      30.227  45.521  57.394  1.00  0.00     0.030 A 
HETATM   12  N   UNL     1      28.644  45.571  55.438  1.00  0.00    -0.358 N 
HETATM   13  C   UNL     1      31.274  44.783  57.951  1.00  0.00     0.002 A 
HETATM   14  C   UNL     1      31.737  43.621  57.338  1.00  0.00     0.001 A 
HETATM   15  H   UNL     1      28.142  46.417  55.664  1.00  0.00     0.166 HD
HETATM   16  C   UNL     1      28.408  44.782  54.338  1.00  0.00     0.018 A 
HETATM   17  C   UNL     1      27.340  45.126  53.361  1.00  0.00     0.069 C 
ENDBRANCH   6   7
ENDBRANCH   2   5
BRANCH   1  18
HETATM   18  C   UNL     1      28.591  39.398  50.413  1.00  0.00     0.280 C 
BRANCH  18  19
HETATM   19  O   UNL     1      27.492  38.937  49.632  1.00  0.00    -0.342 OA
BRANCH  19  20
HETATM   20  C   UNL     1      27.756  38.825  48.292  1.00  0.00     0.069 A 
HETATM   21  C   UNL     1      27.679  39.875  47.371  1.00  0.00     0.043 A 
HETATM   22  C   UNL     1      27.955  39.656  46.014  1.00  0.00    -0.059 A 
HETATM   23  C   UNL     1      27.891  40.788  45.030  1.00  0.00     0.048 C 
HETATM   24  C   UNL     1      28.346  38.380  45.594  1.00  0.00     0.007 A 
HETATM   25  C   UNL     1      28.447  37.336  46.514  1.00  0.00     0.003 A 
HETATM   26  C   UNL     1      28.158  37.561  47.860  1.00  0.00     0.037 A 
ENDBRANCH  19  20
ENDBRANCH  18  19
ENDBRANCH   1  18
TORSDOF 5
ENDMDL
MODEL 10
REMARK VINA RESULT:      -7.8      3.209      5.075
REMARK  5 active torsions:
REMARK  status: ('A' for Active; 'I' for Inactive)
REMARK    1  A    between atoms: C_4  and  O_5 
REMARK    2  A    between atoms: O_5  and  C_6 
REMARK    3  A    between atoms: C_6  and  C_7 
REMARK       I    between atoms: C_7  and  N_8 
REMARK    4  A    between atoms: N_8  and  N_9 
REMARK    5  A    between atoms: C_10  and  C_11 
ROOT
HETATM    1  C   UNL     1      24.309  47.782  49.754  1.00  0.00     0.261 C 
HETATM    2  N   UNL     1      23.087  47.307  49.289  1.00  0.00    -0.246 N 
HETATM    3  O   UNL     1      24.800  48.883  49.515  1.00  0.00    -0.269 OA
HETATM    4  H   UNL     1      22.931  46.302  49.362  1.00  0.00     0.192 HD
ENDROOT
BRANCH   2   5
HETATM    5  N   UNL     1      22.226  47.950  48.430  1.00  0.00    -0.184 NA
HETATM    6  C   UNL     1      20.952  47.876  48.647  1.00  0.00     0.153 C 
BRANCH   6   7
HETATM    7  C   UNL     1      20.009  48.569  47.784  1.00  0.00     0.018 A 
HETATM    8  C   UNL     1      19.615  49.942  47.926  1.00  0.00     0.004 A 
HETATM    9  C   UNL     1      18.693  50.222  46.919  1.00  0.00     0.043 A 
HETATM   10  C   UNL     1      19.969  50.980  48.817  1.00  0.00     0.014 A 
HETATM   11  C   UNL     1      18.099  51.480  46.762  1.00  0.00     0.030 A 
HETATM   12  N   UNL     1      18.533  49.068  46.190  1.00  0.00    -0.358 N 
HETATM   13  C   UNL     1      18.464  52.487  47.659  1.00  0.00     0.002 A 
HETATM   14  C   UNL     1      19.387  52.243  48.673  1.00  0.00     0.001 A 
HETATM   15  H   UNL     1      17.918  48.983  45.393  1.00  0.00     0.166 HD
HETATM   16  C   UNL     1      19.315  48.058  46.695  1.00  0.00     0.018 A 
HETATM   17  C   UNL     1      19.307  46.702  46.085  1.00  0.00     0.069 C 
ENDBRANCH   6   7
ENDBRANCH   2   5
BRANCH   1  18
HETATM   18  C   UNL     1      24.988  46.817  50.720  1.00  0.00     0.280 C 
BRANCH  18  19
HETATM   19  O   UNL     1      25.168  47.405  52.005  1.00  0.00    -0.342 OA
BRANCH  19  20
HETATM   20  C   UNL     1      25.791  46.595  52.918  1.00  0.00     0.069 A 
HETATM   21  C   UNL     1      26.771  47.016  53.823  1.00  0.00     0.043 A 
HETATM   22  C   UNL     1      27.362  46.105  54.711  1.00  0.00    -0.059 A 
HETATM   23  C   UNL     1      28.399  46.561  55.695  1.00  0.00     0.048 C 
HETATM   24  C   UNL     1      26.932  44.773  54.708  1.00  0.00     0.007 A 
HETATM   25  C   UNL     1      25.938  44.355  53.823  1.00  0.00     0.003 A 
HETATM   26  C   UNL     1      25.366  45.267  52.935  1.00  0.00     0.037 A 
ENDBRANCH  19  20
ENDBRANCH  18  19
ENDBRANCH   1  18
TORSDOF 5
ENDMDL
