MODEL 1
REMARK VINA RESULT:      -7.7      0.000      0.000
REMARK  6 active torsions:
REMARK  status: ('A' for Active; 'I' for Inactive)
REMARK    1  A    between atoms: O_2  and  C_3 
REMARK    2  A    between atoms: C_3  and  C_4 
REMARK    3  A    between atoms: C_4  and  N_5 
REMARK       I    between atoms: N_5  and  C_6 
REMARK    4  A    between atoms: C_6  and  C_7 
REMARK    5  A    between atoms: C_12  and  C_13 
REMARK    6  A    between atoms: C_21  and  C_22 
ROOT
HETATM    1  C   UNL     1      22.698  49.473  48.676  1.00  0.00     0.170 A 
HETATM    2  N   UNL     1      21.909  50.534  48.982  1.00  0.00    -0.163 NA
HETATM    3  N   UNL     1      20.728  49.976  49.293  1.00  0.00    -0.238 N 
HETATM    4  C   UNL     1      20.729  48.610  49.255  1.00  0.00     0.145 A 
HETATM    5  N   UNL     1      19.623  47.894  49.579  1.00  0.00    -0.365 N 
HETATM    6  C   UNL     1      18.317  48.530  49.715  1.00  0.00     0.118 C 
HETATM    7  C   UNL     1      18.505  49.920  50.356  1.00  0.00     0.066 C 
HETATM    8  C   UNL     1      19.585  50.786  49.675  1.00  0.00     0.221 C 
HETATM    9  C   UNL     1      21.994  48.250  48.851  1.00  0.00     0.115 A 
HETATM   10 CL   UNL     1      22.563  46.670  48.603  1.00  0.00    -0.077 Cl
HETATM   11  H   UNL     1      19.606  46.886  49.422  1.00  0.00     0.162 HD
ENDROOT
BRANCH   1  12
HETATM   12  C   UNL     1      24.081  49.669  48.217  1.00  0.00     0.273 C 
HETATM   13  N   UNL     1      25.014  49.013  48.992  1.00  0.00    -0.353 N 
HETATM   14  H   UNL     1      24.660  48.609  49.856  1.00  0.00     0.162 HD
HETATM   15  O   UNL     1      24.390  50.369  47.256  1.00  0.00    -0.266 OA
BRANCH  13  16
HETATM   16  C   UNL     1      26.437  49.241  48.849  1.00  0.00     0.149 C 
BRANCH  16  17
HETATM   17  C   UNL     1      27.269  48.301  49.725  1.00  0.00     0.186 C 
BRANCH  17  18
HETATM   18  O   UNL     1      27.463  47.063  49.031  1.00  0.00    -0.394 OA
HETATM   19  C   UNL     1      26.833  45.983  49.708  1.00  0.00     0.201 C 
ENDBRANCH  17  18
ENDBRANCH  16  17
ENDBRANCH  13  16
ENDBRANCH   1  12
BRANCH   8  20
HETATM   20  C   UNL     1      19.074  51.574  48.488  1.00  0.00     0.409 C 
HETATM   21  F   UNL     1      17.759  51.851  48.543  1.00  0.00    -0.169 F 
HETATM   22  F   UNL     1      19.730  52.760  48.400  1.00  0.00    -0.169 F 
HETATM   23  F   UNL     1      19.304  50.931  47.319  1.00  0.00    -0.169 F 
ENDBRANCH   8  20
BRANCH   6  24
HETATM   24  C   UNL     1      17.505  48.513  48.427  1.00  0.00    -0.035 A 
HETATM   25  C   UNL     1      17.973  47.924  47.238  1.00  0.00     0.011 A 
HETATM   26  C   UNL     1      17.198  47.926  46.075  1.00  0.00     0.024 A 
HETATM   27  C   UNL     1      15.935  48.509  46.086  1.00  0.00     0.034 A 
HETATM   28 CL   UNL     1      14.983  48.519  44.653  1.00  0.00    -0.084 Cl
HETATM   29  C   UNL     1      15.439  49.081  47.253  1.00  0.00     0.024 A 
HETATM   30  C   UNL     1      16.216  49.076  48.416  1.00  0.00     0.011 A 
ENDBRANCH   6  24
TORSDOF 6
ENDMDL
MODEL 2
REMARK VINA RESULT:      -7.7     10.853     14.736
REMARK  6 active torsions:
REMARK  status: ('A' for Active; 'I' for Inactive)
REMARK    1  A    between atoms: O_2  and  C_3 
REMARK    2  A    between atoms: C_3  and  C_4 
REMARK    3  A    between atoms: C_4  and  N_5 
REMARK       I    between atoms: N_5  and  C_6 
REMARK    4  A    between atoms: C_6  and  C_7 
REMARK    5  A    between atoms: C_12  and  C_13 
REMARK    6  A    between atoms: C_21  and  C_22 
ROOT
HETATM    1  C   UNL     1      28.031  50.344  39.824  1.00  0.00     0.170 A 
HETATM    2  N   UNL     1      28.608  49.156  40.135  1.00  0.00    -0.163 NA
HETATM    3  N   UNL     1      29.616  49.494  40.955  1.00  0.00    -0.238 N 
HETATM    4  C   UNL     1      29.685  50.831  41.232  1.00  0.00     0.145 A 
HETATM    5  N   UNL     1      30.625  51.330  42.075  1.00  0.00    -0.365 N 
HETATM    6  C   UNL     1      31.763  50.526  42.508  1.00  0.00     0.118 C 
HETATM    7  C   UNL     1      31.295  49.070  42.708  1.00  0.00     0.066 C 
HETATM    8  C   UNL     1      30.505  48.493  41.516  1.00  0.00     0.221 C 
HETATM    9  C   UNL     1      28.672  51.415  40.506  1.00  0.00     0.115 A 
HETATM   10 CL   UNL     1      28.299  53.069  40.442  1.00  0.00    -0.077 Cl
HETATM   11  H   UNL     1      30.739  52.339  42.167  1.00  0.00     0.162 HD
ENDROOT
BRANCH   1  12
HETATM   12  C   UNL     1      26.905  50.412  38.880  1.00  0.00     0.273 C 
HETATM   13  N   UNL     1      25.720  49.943  39.406  1.00  0.00    -0.353 N 
HETATM   14  H   UNL     1      25.794  49.476  40.307  1.00  0.00     0.162 HD
HETATM   15  O   UNL     1      27.004  50.817  37.725  1.00  0.00    -0.266 OA
BRANCH  13  16
HETATM   16  C   UNL     1      24.544  49.721  38.589  1.00  0.00     0.149 C 
BRANCH  16  17
HETATM   17  C   UNL     1      23.245  49.906  39.376  1.00  0.00     0.186 C 
BRANCH  17  18
HETATM   18  O   UNL     1      22.419  50.862  38.699  1.00  0.00    -0.394 OA
HETATM   19  C   UNL     1      21.235  51.141  39.436  1.00  0.00     0.201 C 
ENDBRANCH  17  18
ENDBRANCH  16  17
ENDBRANCH  13  16
ENDBRANCH   1  12
BRANCH   8  20
HETATM   20  C   UNL     1      31.381  47.899  40.434  1.00  0.00     0.409 C 
HETATM   21  F   UNL     1      31.633  48.740  39.415  1.00  0.00    -0.169 F 
HETATM   22  F   UNL     1      32.580  47.533  40.957  1.00  0.00    -0.169 F 
HETATM   23  F   UNL     1      30.842  46.775  39.908  1.00  0.00    -0.169 F 
ENDBRANCH   8  20
BRANCH   6  24
HETATM   24  C   UNL     1      32.989  50.699  41.623  1.00  0.00    -0.035 A 
HETATM   25  C   UNL     1      32.999  51.525  40.484  1.00  0.00     0.011 A 
HETATM   26  C   UNL     1      34.146  51.660  39.696  1.00  0.00     0.024 A 
HETATM   27  C   UNL     1      35.307  50.977  40.042  1.00  0.00     0.034 A 
HETATM   28 CL   UNL     1      36.717  51.137  39.070  1.00  0.00    -0.084 Cl
HETATM   29  C   UNL     1      35.332  50.169  41.174  1.00  0.00     0.024 A 
HETATM   30  C   UNL     1      34.184  50.036  41.961  1.00  0.00     0.011 A 
ENDBRANCH   6  24
TORSDOF 6
ENDMDL
MODEL 3
REMARK VINA RESULT:      -7.6     10.555     14.132
REMARK  6 active torsions:
REMARK  status: ('A' for Active; 'I' for Inactive)
REMARK    1  A    between atoms: O_2  and  C_3 
REMARK    2  A    between atoms: C_3  and  C_4 
REMARK    3  A    between atoms: C_4  and  N_5 
REMARK       I    between atoms: N_5  and  C_6 
REMARK    4  A    between atoms: C_6  and  C_7 
REMARK    5  A    between atoms: C_12  and  C_13 
REMARK    6  A    between atoms: C_21  and  C_22 
ROOT
HETATM    1  C   UNL     1      27.107  49.306  38.392  1.00  0.00     0.170 A 
HETATM    2  N   UNL     1      27.566  50.554  38.121  1.00  0.00    -0.163 NA
HETATM    3  N   UNL     1      28.891  50.457  38.317  1.00  0.00    -0.238 N 
HETATM    4  C   UNL     1      29.316  49.200  38.647  1.00  0.00     0.145 A 
HETATM    5  N   UNL     1      30.632  48.929  38.842  1.00  0.00    -0.365 N 
HETATM    6  C   UNL     1      31.618  49.996  38.979  1.00  0.00     0.118 C 
HETATM    7  C   UNL     1      31.239  51.149  38.027  1.00  0.00     0.066 C 
HETATM    8  C   UNL     1      29.769  51.600  38.139  1.00  0.00     0.221 C 
HETATM    9  C   UNL     1      28.180  48.428  38.711  1.00  0.00     0.115 A 
HETATM   10 CL   UNL     1      28.100  46.780  39.107  1.00  0.00    -0.077 Cl
HETATM   11  H   UNL     1      30.913  48.020  39.210  1.00  0.00     0.162 HD
ENDROOT
BRANCH   1  12
HETATM   12  C   UNL     1      25.668  49.006  38.350  1.00  0.00     0.273 C 
HETATM   13  N   UNL     1      24.918  49.802  39.190  1.00  0.00    -0.353 N 
HETATM   14  H   UNL     1      25.450  50.383  39.834  1.00  0.00     0.162 HD
HETATM   15  O   UNL     1      25.174  48.116  37.663  1.00  0.00    -0.266 OA
BRANCH  13  16
HETATM   16  C   UNL     1      23.521  49.537  39.464  1.00  0.00     0.149 C 
BRANCH  16  17
HETATM   17  C   UNL     1      22.589  50.246  38.479  1.00  0.00     0.186 C 
BRANCH  17  18
HETATM   18  O   UNL     1      22.094  51.447  39.084  1.00  0.00    -0.394 OA
HETATM   19  C   UNL     1      21.463  51.179  40.330  1.00  0.00     0.201 C 
ENDBRANCH  17  18
ENDBRANCH  16  17
ENDBRANCH  13  16
ENDBRANCH   1  12
BRANCH   8  20
HETATM   20  C   UNL     1      29.528  52.626  39.226  1.00  0.00     0.409 C 
HETATM   21  F   UNL     1      30.644  53.251  39.642  1.00  0.00    -0.169 F 
HETATM   22  F   UNL     1      28.675  53.584  38.780  1.00  0.00    -0.169 F 
HETATM   23  F   UNL     1      28.941  52.078  40.315  1.00  0.00    -0.169 F 
ENDBRANCH   8  20
BRANCH   6  24
HETATM   24  C   UNL     1      31.862  50.402  40.426  1.00  0.00    -0.035 A 
HETATM   25  C   UNL     1      31.093  49.911  41.497  1.00  0.00     0.011 A 
HETATM   26  C   UNL     1      31.349  50.306  42.814  1.00  0.00     0.024 A 
HETATM   27  C   UNL     1      32.387  51.192  43.081  1.00  0.00     0.034 A 
HETATM   28 CL   UNL     1      32.700  51.683  44.699  1.00  0.00    -0.084 Cl
HETATM   29  C   UNL     1      33.177  51.677  42.043  1.00  0.00     0.024 A 
HETATM   30  C   UNL     1      32.920  51.280  40.727  1.00  0.00     0.011 A 
ENDBRANCH   6  24
TORSDOF 6
ENDMDL
MODEL 4
REMARK VINA RESULT:      -7.4     11.701     13.597
REMARK  6 active torsions:
REMARK  status: ('A' for Active; 'I' for Inactive)
REMARK    1  A    between atoms: O_2  and  C_3 
REMARK    2  A    between atoms: C_3  and  C_4 
REMARK    3  A    between atoms: C_4  and  N_5 
REMARK       I    between atoms: N_5  and  C_6 
REMARK    4  A    between atoms: C_6  and  C_7 
REMARK    5  A    between atoms: C_12  and  C_13 
REMARK    6  A    between atoms: C_21  and  C_22 
ROOT
HETATM    1  C   UNL     1      33.705  51.650  42.271  1.00  0.00     0.170 A 
HETATM    2  N   UNL     1      33.410  51.864  40.964  1.00  0.00    -0.163 NA
HETATM    3  N   UNL     1      32.094  52.130  40.971  1.00  0.00    -0.238 N 
HETATM    4  C   UNL     1      31.536  52.153  42.219  1.00  0.00     0.145 A 
HETATM    5  N   UNL     1      30.223  52.444  42.400  1.00  0.00    -0.365 N 
HETATM    6  C   UNL     1      29.289  52.477  41.279  1.00  0.00     0.118 C 
HETATM    7  C   UNL     1      30.009  53.066  40.049  1.00  0.00     0.066 C 
HETATM    8  C   UNL     1      31.371  52.411  39.744  1.00  0.00     0.221 C 
HETATM    9  C   UNL     1      32.555  51.838  43.088  1.00  0.00     0.115 A 
HETATM   10 CL   UNL     1      32.435  51.692  44.775  1.00  0.00    -0.077 Cl
HETATM   11  H   UNL     1      29.801  52.331  43.321  1.00  0.00     0.162 HD
ENDROOT
BRANCH   1  12
HETATM   12  C   UNL     1      35.061  51.262  42.686  1.00  0.00     0.273 C 
HETATM   13  N   UNL     1      35.642  52.155  43.562  1.00  0.00    -0.353 N 
HETATM   14  H   UNL     1      35.140  53.029  43.695  1.00  0.00     0.162 HD
HETATM   15  O   UNL     1      35.642  50.261  42.276  1.00  0.00    -0.266 OA
BRANCH  13  16
HETATM   16  C   UNL     1      37.042  52.081  43.928  1.00  0.00     0.149 C 
BRANCH  16  17
HETATM   17  C   UNL     1      37.425  53.123  44.980  1.00  0.00     0.186 C 
BRANCH  17  18
HETATM   18  O   UNL     1      37.920  52.452  46.145  1.00  0.00    -0.394 OA
HETATM   19  C   UNL     1      38.521  53.365  47.055  1.00  0.00     0.201 C 
ENDBRANCH  17  18
ENDBRANCH  16  17
ENDBRANCH  13  16
ENDBRANCH   1  12
BRANCH   8  20
HETATM   20  C   UNL     1      31.270  51.162  38.894  1.00  0.00     0.409 C 
HETATM   21  F   UNL     1      32.272  51.025  38.007  1.00  0.00    -0.169 F 
HETATM   22  F   UNL     1      31.282  50.059  39.686  1.00  0.00    -0.169 F 
HETATM   23  F   UNL     1      30.108  51.116  38.202  1.00  0.00    -0.169 F 
ENDBRANCH   8  20
BRANCH   6  24
HETATM   24  C   UNL     1      28.586  51.147  41.047  1.00  0.00    -0.035 A 
HETATM   25  C   UNL     1      28.925  49.972  41.743  1.00  0.00     0.011 A 
HETATM   26  C   UNL     1      28.256  48.769  41.502  1.00  0.00     0.024 A 
HETATM   27  C   UNL     1      27.227  48.724  40.568  1.00  0.00     0.034 A 
HETATM   28 CL   UNL     1      26.407  47.243  40.266  1.00  0.00    -0.084 Cl
HETATM   29  C   UNL     1      26.858  49.875  39.879  1.00  0.00     0.024 A 
HETATM   30  C   UNL     1      27.528  51.078  40.122  1.00  0.00     0.011 A 
ENDBRANCH   6  24
TORSDOF 6
ENDMDL
MODEL 5
REMARK VINA RESULT:      -7.3      2.422      2.980
REMARK  6 active torsions:
REMARK  status: ('A' for Active; 'I' for Inactive)
REMARK    1  A    between atoms: O_2  and  C_3 
REMARK    2  A    between atoms: C_3  and  C_4 
REMARK    3  A    between atoms: C_4  and  N_5 
REMARK       I    between atoms: N_5  and  C_6 
REMARK    4  A    between atoms: C_6  and  C_7 
REMARK    5  A    between atoms: C_12  and  C_13 
REMARK    6  A    between atoms: C_21  and  C_22 
ROOT
HETATM    1  C   UNL     1      21.514  47.144  48.767  1.00  0.00     0.170 A 
HETATM    2  N   UNL     1      21.667  48.426  49.185  1.00  0.00    -0.163 NA
HETATM    3  N   UNL     1      20.432  48.944  49.091  1.00  0.00    -0.238 N 
HETATM    4  C   UNL     1      19.481  48.049  48.685  1.00  0.00     0.145 A 
HETATM    5  N   UNL     1      18.177  48.407  48.575  1.00  0.00    -0.365 N 
HETATM    6  C   UNL     1      17.765  49.806  48.616  1.00  0.00     0.118 C 
HETATM    7  C   UNL     1      18.649  50.556  49.634  1.00  0.00     0.066 C 
HETATM    8  C   UNL     1      20.161  50.327  49.442  1.00  0.00     0.221 C 
HETATM    9  C   UNL     1      20.152  46.870  48.459  1.00  0.00     0.115 A 
HETATM   10 CL   UNL     1      19.477  45.413  47.910  1.00  0.00    -0.077 Cl
HETATM   11  H   UNL     1      17.508  47.764  48.151  1.00  0.00     0.162 HD
ENDROOT
BRANCH   1  12
HETATM   12  C   UNL     1      22.670  46.241  48.662  1.00  0.00     0.273 C 
HETATM   13  N   UNL     1      23.567  46.377  49.701  1.00  0.00    -0.353 N 
HETATM   14  H   UNL     1      23.406  47.170  50.317  1.00  0.00     0.162 HD
HETATM   15  O   UNL     1      22.845  45.459  47.732  1.00  0.00    -0.266 OA
BRANCH  13  16
HETATM   16  C   UNL     1      24.870  45.744  49.686  1.00  0.00     0.149 C 
BRANCH  16  17
HETATM   17  C   UNL     1      25.829  46.363  50.705  1.00  0.00     0.186 C 
BRANCH  17  18
HETATM   18  O   UNL     1      25.760  47.790  50.606  1.00  0.00    -0.394 OA
HETATM   19  C   UNL     1      26.647  48.287  49.612  1.00  0.00     0.201 C 
ENDBRANCH  17  18
ENDBRANCH  16  17
ENDBRANCH  13  16
ENDBRANCH   1  12
BRANCH   8  20
HETATM   20  C   UNL     1      20.797  51.262  48.436  1.00  0.00     0.409 C 
HETATM   21  F   UNL     1      20.837  50.769  47.185  1.00  0.00    -0.169 F 
HETATM   22  F   UNL     1      20.103  52.429  48.384  1.00  0.00    -0.169 F 
HETATM   23  F   UNL     1      22.062  51.592  48.782  1.00  0.00    -0.169 F 
ENDBRANCH   8  20
BRANCH   6  24
HETATM   24  C   UNL     1      17.677  50.445  47.236  1.00  0.00    -0.035 A 
HETATM   25  C   UNL     1      17.298  51.785  47.038  1.00  0.00     0.011 A 
HETATM   26  C   UNL     1      17.231  52.337  45.755  1.00  0.00     0.024 A 
HETATM   27  C   UNL     1      17.553  51.557  44.649  1.00  0.00     0.034 A 
HETATM   28 CL   UNL     1      17.464  52.233  43.070  1.00  0.00    -0.084 Cl
HETATM   29  C   UNL     1      17.950  50.235  44.818  1.00  0.00     0.024 A 
HETATM   30  C   UNL     1      18.018  49.685  46.102  1.00  0.00     0.011 A 
ENDBRANCH   6  24
TORSDOF 6
ENDMDL
MODEL 6
REMARK VINA RESULT:      -7.3      3.065      4.006
REMARK  6 active torsions:
REMARK  status: ('A' for Active; 'I' for Inactive)
REMARK    1  A    between atoms: O_2  and  C_3 
REMARK    2  A    between atoms: C_3  and  C_4 
REMARK    3  A    between atoms: C_4  and  N_5 
REMARK       I    between atoms: N_5  and  C_6 
REMARK    4  A    between atoms: C_6  and  C_7 
REMARK    5  A    between atoms: C_12  and  C_13 
REMARK    6  A    between atoms: C_21  and  C_22 
ROOT
HETATM    1  C   UNL     1      22.324  48.408  48.693  1.00  0.00     0.170 A 
HETATM    2  N   UNL     1      21.202  47.674  48.484  1.00  0.00    -0.163 NA
HETATM    3  N   UNL     1      20.389  48.514  47.822  1.00  0.00    -0.238 N 
HETATM    4  C   UNL     1      20.948  49.731  47.547  1.00  0.00     0.145 A 
HETATM    5  N   UNL     1      20.269  50.678  46.852  1.00  0.00    -0.365 N 
HETATM    6  C   UNL     1      18.836  50.560  46.603  1.00  0.00     0.118 C 
HETATM    7  C   UNL     1      18.496  49.077  46.349  1.00  0.00     0.066 C 
HETATM    8  C   UNL     1      19.055  48.111  47.412  1.00  0.00     0.221 C 
HETATM    9  C   UNL     1      22.205  49.698  48.105  1.00  0.00     0.115 A 
HETATM   10 CL   UNL     1      23.347  50.953  48.096  1.00  0.00    -0.077 Cl
HETATM   11  H   UNL     1      20.653  51.619  46.768  1.00  0.00     0.162 HD
ENDROOT
BRANCH   1  12
HETATM   12  C   UNL     1      23.455  47.857  49.455  1.00  0.00     0.273 C 
HETATM   13  N   UNL     1      23.684  46.520  49.205  1.00  0.00    -0.353 N 
HETATM   14  H   UNL     1      22.970  46.048  48.655  1.00  0.00     0.162 HD
HETATM   15  O   UNL     1      24.119  48.505  50.259  1.00  0.00    -0.266 OA
BRANCH  13  16
HETATM   16  C   UNL     1      24.603  45.731  49.999  1.00  0.00     0.149 C 
BRANCH  16  17
HETATM   17  C   UNL     1      23.935  44.495  50.606  1.00  0.00     0.186 C 
BRANCH  17  18
HETATM   18  O   UNL     1      24.192  44.469  52.015  1.00  0.00    -0.394 OA
HETATM   19  C   UNL     1      25.511  44.015  52.295  1.00  0.00     0.201 C 
ENDBRANCH  17  18
ENDBRANCH  16  17
ENDBRANCH  13  16
ENDBRANCH   1  12
BRANCH   8  20
HETATM   20  C   UNL     1      18.157  47.949  48.620  1.00  0.00     0.409 C 
HETATM   21  F   UNL     1      18.457  48.778  49.637  1.00  0.00    -0.169 F 
HETATM   22  F   UNL     1      16.866  48.191  48.274  1.00  0.00    -0.169 F 
HETATM   23  F   UNL     1      18.186  46.686  49.105  1.00  0.00    -0.169 F 
ENDBRANCH   8  20
BRANCH   6  24
HETATM   24  C   UNL     1      17.986  51.249  47.662  1.00  0.00    -0.035 A 
HETATM   25  C   UNL     1      18.541  51.958  48.743  1.00  0.00     0.011 A 
HETATM   26  C   UNL     1      17.727  52.579  49.696  1.00  0.00     0.024 A 
HETATM   27  C   UNL     1      16.344  52.510  49.576  1.00  0.00     0.034 A 
HETATM   28 CL   UNL     1      15.342  53.268  50.750  1.00  0.00    -0.084 Cl
HETATM   29  C   UNL     1      15.769  51.832  48.506  1.00  0.00     0.024 A 
HETATM   30  C   UNL     1      16.584  51.212  47.553  1.00  0.00     0.011 A 
ENDBRANCH   6  24
TORSDOF 6
ENDMDL
MODEL 7
REMARK VINA RESULT:      -7.1     13.288     14.887
REMARK  6 active torsions:
REMARK  status: ('A' for Active; 'I' for Inactive)
REMARK    1  A    between atoms: O_2  and  C_3 
REMARK    2  A    between atoms: C_3  and  C_4 
REMARK    3  A    between atoms: C_4  and  N_5 
REMARK       I    between atoms: N_5  and  C_6 
REMARK    4  A    between atoms: C_6  and  C_7 
REMARK    5  A    between atoms: C_12  and  C_13 
REMARK    6  A    between atoms: C_21  and  C_22 
ROOT
HETATM    1  C   UNL     1      35.728  51.821  42.796  1.00  0.00     0.170 A 
HETATM    2  N   UNL     1      34.610  51.782  43.564  1.00  0.00    -0.163 NA
HETATM    3  N   UNL     1      33.779  50.978  42.881  1.00  0.00    -0.238 N 
HETATM    4  C   UNL     1      34.323  50.454  41.741  1.00  0.00     0.145 A 
HETATM    5  N   UNL     1      33.624  49.593  40.958  1.00  0.00    -0.365 N 
HETATM    6  C   UNL     1      32.189  49.397  41.133  1.00  0.00     0.118 C 
HETATM    7  C   UNL     1      31.860  49.451  42.639  1.00  0.00     0.066 C 
HETATM    8  C   UNL     1      32.444  50.679  43.367  1.00  0.00     0.221 C 
HETATM    9  C   UNL     1      35.588  50.988  41.652  1.00  0.00     0.115 A 
HETATM   10 CL   UNL     1      36.717  50.708  40.416  1.00  0.00    -0.077 Cl
HETATM   11  H   UNL     1      33.999  49.316  40.050  1.00  0.00     0.162 HD
ENDROOT
BRANCH   1  12
HETATM   12  C   UNL     1      36.875  52.660  43.175  1.00  0.00     0.273 C 
HETATM   13  N   UNL     1      37.200  52.572  44.512  1.00  0.00    -0.353 N 
HETATM   14  H   UNL     1      36.532  52.070  45.094  1.00  0.00     0.162 HD
HETATM   15  O   UNL     1      37.474  53.394  42.393  1.00  0.00    -0.266 OA
BRANCH  13  16
HETATM   16  C   UNL     1      38.151  53.468  45.138  1.00  0.00     0.149 C 
BRANCH  16  17
HETATM   17  C   UNL     1      37.515  54.797  45.550  1.00  0.00     0.186 C 
BRANCH  17  18
HETATM   18  O   UNL     1      37.971  55.148  46.861  1.00  0.00    -0.394 OA
HETATM   19  C   UNL     1      38.466  54.013  47.561  1.00  0.00     0.201 C 
ENDBRANCH  17  18
ENDBRANCH  16  17
ENDBRANCH  13  16
ENDBRANCH   1  12
BRANCH   8  20
HETATM   20  C   UNL     1      31.565  51.908  43.288  1.00  0.00     0.409 C 
HETATM   21  F   UNL     1      30.264  51.635  43.080  1.00  0.00    -0.169 F 
HETATM   22  F   UNL     1      31.646  52.612  44.447  1.00  0.00    -0.169 F 
HETATM   23  F   UNL     1      31.964  52.752  42.309  1.00  0.00    -0.169 F 
ENDBRANCH   8  20
BRANCH   6  24
HETATM   24  C   UNL     1      31.348  50.309  40.250  1.00  0.00    -0.035 A 
HETATM   25  C   UNL     1      31.911  51.206  39.325  1.00  0.00     0.011 A 
HETATM   26  C   UNL     1      31.105  52.028  38.530  1.00  0.00     0.024 A 
HETATM   27  C   UNL     1      29.721  51.955  38.641  1.00  0.00     0.034 A 
HETATM   28 CL   UNL     1      28.728  52.969  37.669  1.00  0.00    -0.084 Cl
HETATM   29  C   UNL     1      29.137  51.062  39.534  1.00  0.00     0.024 A 
HETATM   30  C   UNL     1      29.945  50.241  40.327  1.00  0.00     0.011 A 
ENDBRANCH   6  24
TORSDOF 6
ENDMDL
MODEL 8
REMARK VINA RESULT:      -7.0      2.529      3.039
REMARK  6 active torsions:
REMARK  status: ('A' for Active; 'I' for Inactive)
REMARK    1  A    between atoms: O_2  and  C_3 
REMARK    2  A    between atoms: C_3  and  C_4 
REMARK    3  A    between atoms: C_4  and  N_5 
REMARK       I    between atoms: N_5  and  C_6 
REMARK    4  A    between atoms: C_6  and  C_7 
REMARK    5  A    between atoms: C_12  and  C_13 
REMARK    6  A    between atoms: C_21  and  C_22 
ROOT
HETATM    1  C   UNL     1      21.171  48.415  48.553  1.00  0.00     0.170 A 
HETATM    2  N   UNL     1      20.541  49.352  49.305  1.00  0.00    -0.163 NA
HETATM    3  N   UNL     1      19.311  49.420  48.769  1.00  0.00    -0.238 N 
HETATM    4  C   UNL     1      19.099  48.538  47.746  1.00  0.00     0.145 A 
HETATM    5  N   UNL     1      17.896  48.456  47.123  1.00  0.00    -0.365 N 
HETATM    6  C   UNL     1      16.867  49.472  47.317  1.00  0.00     0.118 C 
HETATM    7  C   UNL     1      16.903  49.941  48.786  1.00  0.00     0.066 C 
HETATM    8  C   UNL     1      18.308  50.332  49.288  1.00  0.00     0.221 C 
HETATM    9  C   UNL     1      20.291  47.872  47.575  1.00  0.00     0.115 A 
HETATM   10 CL   UNL     1      20.622  46.674  46.420  1.00  0.00    -0.077 Cl
HETATM   11  H   UNL     1      17.798  47.885  46.283  1.00  0.00     0.162 HD
ENDROOT
BRANCH   1  12
HETATM   12  C   UNL     1      22.585  48.086  48.786  1.00  0.00     0.273 C 
HETATM   13  N   UNL     1      23.397  49.196  48.884  1.00  0.00    -0.353 N 
HETATM   14  H   UNL     1      22.960  50.082  48.638  1.00  0.00     0.162 HD
HETATM   15  O   UNL     1      23.018  46.939  48.858  1.00  0.00    -0.266 OA
BRANCH  13  16
HETATM   16  C   UNL     1      24.842  49.100  48.898  1.00  0.00     0.149 C 
BRANCH  16  17
HETATM   17  C   UNL     1      25.499  50.036  47.881  1.00  0.00     0.186 C 
BRANCH  17  18
HETATM   18  O   UNL     1      26.922  49.958  48.024  1.00  0.00    -0.394 OA
HETATM   19  C   UNL     1      27.292  49.056  49.060  1.00  0.00     0.201 C 
ENDBRANCH  17  18
ENDBRANCH  16  17
ENDBRANCH  13  16
ENDBRANCH   1  12
BRANCH   8  20
HETATM   20  C   UNL     1      18.687  51.765  48.982  1.00  0.00     0.409 C 
HETATM   21  F   UNL     1      17.635  52.599  48.890  1.00  0.00    -0.169 F 
HETATM   22  F   UNL     1      19.498  52.249  49.959  1.00  0.00    -0.169 F 
HETATM   23  F   UNL     1      19.387  51.867  47.829  1.00  0.00    -0.169 F 
ENDBRANCH   8  20
BRANCH   6  24
HETATM   24  C   UNL     1      16.919  50.583  46.278  1.00  0.00    -0.035 A 
HETATM   25  C   UNL     1      16.065  51.701  46.312  1.00  0.00     0.011 A 
HETATM   26  C   UNL     1      16.144  52.703  45.340  1.00  0.00     0.024 A 
HETATM   27  C   UNL     1      17.087  52.607  44.322  1.00  0.00     0.034 A 
HETATM   28 CL   UNL     1      17.181  53.835  43.122  1.00  0.00    -0.084 Cl
HETATM   29  C   UNL     1      17.957  51.522  44.276  1.00  0.00     0.024 A 
HETATM   30  C   UNL     1      17.878  50.522  45.250  1.00  0.00     0.011 A 
ENDBRANCH   6  24
TORSDOF 6
ENDMDL
MODEL 9
REMARK VINA RESULT:      -7.0     24.033     25.685
REMARK  6 active torsions:
REMARK  status: ('A' for Active; 'I' for Inactive)
REMARK    1  A    between atoms: O_2  and  C_3 
REMARK    2  A    between atoms: C_3  and  C_4 
REMARK    3  A    between atoms: C_4  and  N_5 
REMARK       I    between atoms: N_5  and  C_6 
REMARK    4  A    between atoms: C_6  and  C_7 
REMARK    5  A    between atoms: C_12  and  C_13 
REMARK    6  A    between atoms: C_21  and  C_22 
ROOT
HETATM    1  C   UNL     1      37.495  45.820  66.680  1.00  0.00     0.170 A 
HETATM    2  N   UNL     1      38.473  45.991  65.754  1.00  0.00    -0.163 NA
HETATM    3  N   UNL     1      38.196  45.065  64.821  1.00  0.00    -0.238 N 
HETATM    4  C   UNL     1      37.062  44.343  65.070  1.00  0.00     0.145 A 
HETATM    5  N   UNL     1      36.626  43.394  64.204  1.00  0.00    -0.365 N 
HETATM    6  C   UNL     1      37.470  42.907  63.119  1.00  0.00     0.118 C 
HETATM    7  C   UNL     1      38.294  44.086  62.562  1.00  0.00     0.066 C 
HETATM    8  C   UNL     1      39.028  44.906  63.642  1.00  0.00     0.221 C 
HETATM    9  C   UNL     1      36.585  44.804  66.275  1.00  0.00     0.115 A 
HETATM   10 CL   UNL     1      35.206  44.248  67.094  1.00  0.00    -0.077 Cl
HETATM   11  H   UNL     1      35.853  42.782  64.469  1.00  0.00     0.162 HD
ENDROOT
BRANCH   1  12
HETATM   12  C   UNL     1      37.477  46.617  67.915  1.00  0.00     0.273 C 
HETATM   13  N   UNL     1      36.747  47.782  67.804  1.00  0.00    -0.353 N 
HETATM   14  H   UNL     1      36.443  48.021  66.863  1.00  0.00     0.162 HD
HETATM   15  O   UNL     1      38.074  46.303  68.941  1.00  0.00    -0.266 OA
BRANCH  13  16
HETATM   16  C   UNL     1      36.773  48.812  68.823  1.00  0.00     0.149 C 
BRANCH  16  17
HETATM   17  C   UNL     1      37.045  50.200  68.240  1.00  0.00     0.186 C 
BRANCH  17  18
HETATM   18  O   UNL     1      37.523  50.059  66.897  1.00  0.00    -0.394 OA
HETATM   19  C   UNL     1      37.803  51.324  66.310  1.00  0.00     0.201 C 
ENDBRANCH  17  18
ENDBRANCH  16  17
ENDBRANCH  13  16
ENDBRANCH   1  12
BRANCH   8  20
HETATM   20  C   UNL     1      40.381  44.342  64.021  1.00  0.00     0.409 C 
HETATM   21  F   UNL     1      40.928  43.559  63.075  1.00  0.00    -0.169 F 
HETATM   22  F   UNL     1      41.256  45.354  64.259  1.00  0.00    -0.169 F 
HETATM   23  F   UNL     1      40.324  43.619  65.163  1.00  0.00    -0.169 F 
ENDBRANCH   8  20
BRANCH   6  24
HETATM   24  C   UNL     1      38.276  41.671  63.496  1.00  0.00    -0.035 A 
HETATM   25  C   UNL     1      38.303  41.147  64.801  1.00  0.00     0.011 A 
HETATM   26  C   UNL     1      39.054  40.009  65.109  1.00  0.00     0.024 A 
HETATM   27  C   UNL     1      39.784  39.371  64.112  1.00  0.00     0.034 A 
HETATM   28 CL   UNL     1      40.714  37.974  64.491  1.00  0.00    -0.084 Cl
HETATM   29  C   UNL     1      39.760  39.856  62.809  1.00  0.00     0.024 A 
HETATM   30  C   UNL     1      39.007  40.994  62.503  1.00  0.00     0.011 A 
ENDBRANCH   6  24
TORSDOF 6
ENDMDL
MODEL 10
REMARK VINA RESULT:      -6.9     10.375     13.802
REMARK  6 active torsions:
REMARK  status: ('A' for Active; 'I' for Inactive)
REMARK    1  A    between atoms: O_2  and  C_3 
REMARK    2  A    between atoms: C_3  and  C_4 
REMARK    3  A    between atoms: C_4  and  N_5 
REMARK       I    between atoms: N_5  and  C_6 
REMARK    4  A    between atoms: C_6  and  C_7 
REMARK    5  A    between atoms: C_12  and  C_13 
REMARK    6  A    between atoms: C_21  and  C_22 
ROOT
HETATM    1  C   UNL     1      27.851  47.797  38.618  1.00  0.00     0.170 A 
HETATM    2  N   UNL     1      27.850  49.134  38.384  1.00  0.00    -0.163 NA
HETATM    3  N   UNL     1      29.133  49.491  38.556  1.00  0.00    -0.238 N 
HETATM    4  C   UNL     1      29.970  48.447  38.836  1.00  0.00     0.145 A 
HETATM    5  N   UNL     1      31.303  48.637  39.001  1.00  0.00    -0.365 N 
HETATM    6  C   UNL     1      31.869  49.973  39.161  1.00  0.00     0.118 C 
HETATM    7  C   UNL     1      31.094  50.952  38.254  1.00  0.00     0.066 C 
HETATM    8  C   UNL     1      29.562  50.870  38.404  1.00  0.00     0.221 C 
HETATM    9  C   UNL     1      29.168  47.331  38.890  1.00  0.00     0.115 A 
HETATM   10 CL   UNL     1      29.666  45.745  39.231  1.00  0.00    -0.077 Cl
HETATM   11  H   UNL     1      31.888  47.870  39.334  1.00  0.00     0.162 HD
ENDROOT
BRANCH   1  12
HETATM   12  C   UNL     1      26.601  47.024  38.588  1.00  0.00     0.273 C 
HETATM   13  N   UNL     1      25.541  47.673  39.185  1.00  0.00    -0.353 N 
HETATM   14  H   UNL     1      25.778  48.520  39.697  1.00  0.00     0.162 HD
HETATM   15  O   UNL     1      26.504  45.897  38.109  1.00  0.00    -0.266 OA
BRANCH  13  16
HETATM   16  C   UNL     1      24.281  47.012  39.456  1.00  0.00     0.149 C 
BRANCH  16  17
HETATM   17  C   UNL     1      23.955  46.968  40.950  1.00  0.00     0.186 C 
BRANCH  17  18
HETATM   18  O   UNL     1      24.818  46.020  41.590  1.00  0.00    -0.394 OA
HETATM   19  C   UNL     1      24.634  44.712  41.063  1.00  0.00     0.201 C 
ENDBRANCH  17  18
ENDBRANCH  16  17
ENDBRANCH  13  16
ENDBRANCH   1  12
BRANCH   8  20
HETATM   20  C   UNL     1      29.013  51.721  39.530  1.00  0.00     0.409 C 
HETATM   21  F   UNL     1      28.957  51.086  40.714  1.00  0.00    -0.169 F 
HETATM   22  F   UNL     1      29.792  52.821  39.702  1.00  0.00    -0.169 F 
HETATM   23  F   UNL     1      27.770  52.180  39.256  1.00  0.00    -0.169 F 
ENDBRANCH   8  20
BRANCH   6  24
HETATM   24  C   UNL     1      31.998  50.399  40.617  1.00  0.00    -0.035 A 
HETATM   25  C   UNL     1      31.650  49.559  41.691  1.00  0.00     0.011 A 
HETATM   26  C   UNL     1      31.783  49.985  43.016  1.00  0.00     0.024 A 
HETATM   27  C   UNL     1      32.278  51.256  43.288  1.00  0.00     0.034 A 
HETATM   28 CL   UNL     1      32.438  51.784  44.917  1.00  0.00    -0.084 Cl
HETATM   29  C   UNL     1      32.649  52.099  42.245  1.00  0.00     0.024 A 
HETATM   30  C   UNL     1      32.515  51.671  40.921  1.00  0.00     0.011 A 
ENDBRANCH   6  24
TORSDOF 6
ENDMDL
