MODEL 1
REMARK VINA RESULT:      -8.5      0.000      0.000
REMARK  8 active torsions:
REMARK  status: ('A' for Active; 'I' for Inactive)
REMARK    1  A    between atoms: C_2  and  C_3 
REMARK    2  A    between atoms: C_3  and  S_4 
REMARK    3  A    between atoms: S_4  and  C_5 
REMARK    4  A    between atoms: N_6  and  C_7 
REMARK    5  A    between atoms: C_8  and  O_9 
REMARK    6  A    between atoms: C_15  and  C_16 
REMARK    7  A    between atoms: C_16  and  N_17 
REMARK       I    between atoms: N_17  and  C_18 
REMARK    8  A    between atoms: C_18  and  C_19 
ROOT
HETATM    1  C   UNL     1      24.277  45.112  50.188  1.00  0.00     0.196 A 
HETATM    2  N   UNL     1      25.080  46.121  50.686  1.00  0.00    -0.271 N 
HETATM    3  C   UNL     1      25.253  45.784  52.023  1.00  0.00     0.153 A 
HETATM    4  N   UNL     1      24.595  44.668  52.286  1.00  0.00    -0.132 NA
HETATM    5  N   UNL     1      23.995  44.243  51.132  1.00  0.00    -0.122 NA
ENDROOT
BRANCH   3   6
HETATM    6  C   UNL     1      25.953  46.607  53.042  1.00  0.00     0.204 C 
BRANCH   6   7
HETATM    7  N   UNL     1      26.888  45.768  53.759  1.00  0.00    -0.350 N 
HETATM    8  C   UNL     1      27.860  46.324  54.561  1.00  0.00     0.252 C 
HETATM    9  O   UNL     1      27.916  47.530  54.788  1.00  0.00    -0.268 OA
HETATM   10  H   UNL     1      26.994  44.822  53.418  1.00  0.00     0.163 HD
BRANCH   8  11
HETATM   11  C   UNL     1      28.890  45.406  55.128  1.00  0.00     0.032 A 
HETATM   12  C   UNL     1      29.536  45.646  56.350  1.00  0.00     0.023 A 
HETATM   13  C   UNL     1      30.479  44.733  56.848  1.00  0.00    -0.061 A 
HETATM   14  C   UNL     1      31.183  44.995  58.147  1.00  0.00     0.048 C 
HETATM   15  C   UNL     1      30.803  43.599  56.093  1.00  0.00     0.007 A 
HETATM   16  C   UNL     1      30.180  43.366  54.867  1.00  0.00     0.002 A 
HETATM   17  C   UNL     1      29.227  44.264  54.387  1.00  0.00     0.017 A 
ENDBRANCH   8  11
ENDBRANCH   6   7
ENDBRANCH   3   6
BRANCH   2  18
HETATM   18  C   UNL     1      25.668  47.206  49.991  1.00  0.00     0.076 A 
HETATM   19  C   UNL     1      24.894  48.302  49.575  1.00  0.00     0.095 A 
HETATM   20  C   UNL     1      25.520  49.348  48.887  1.00  0.00     0.039 A 
HETATM   21  C   UNL     1      26.887  49.295  48.603  1.00  0.00     0.003 A 
HETATM   22  C   UNL     1      27.645  48.201  49.009  1.00  0.00     0.002 A 
HETATM   23  C   UNL     1      27.041  47.155  49.703  1.00  0.00     0.033 A 
BRANCH  19  24
HETATM   24  O   UNL     1      23.583  48.351  49.968  1.00  0.00    -0.354 OA
HETATM   25  C   UNL     1      22.760  49.276  49.262  1.00  0.00     0.210 C 
ENDBRANCH  19  24
ENDBRANCH   2  18
BRANCH   1  26
HETATM   26  S   UNL     1      23.883  44.868  48.515  1.00  0.00    -0.090 SA
BRANCH  26  27
HETATM   27  C   UNL     1      22.173  45.481  48.508  1.00  0.00     0.082 C 
BRANCH  27  28
HETATM   28  C   UNL     1      21.919  46.278  47.232  1.00  0.00     0.006 C 
HETATM   29  C   UNL     1      21.594  45.359  46.064  1.00  0.00     0.006 C 
ENDBRANCH  27  28
ENDBRANCH  26  27
ENDBRANCH   1  26
TORSDOF 8
ENDMDL
MODEL 2
REMARK VINA RESULT:      -8.4      2.117      3.814
REMARK  8 active torsions:
REMARK  status: ('A' for Active; 'I' for Inactive)
REMARK    1  A    between atoms: C_2  and  C_3 
REMARK    2  A    between atoms: C_3  and  S_4 
REMARK    3  A    between atoms: S_4  and  C_5 
REMARK    4  A    between atoms: N_6  and  C_7 
REMARK    5  A    between atoms: C_8  and  O_9 
REMARK    6  A    between atoms: C_15  and  C_16 
REMARK    7  A    between atoms: C_16  and  N_17 
REMARK       I    between atoms: N_17  and  C_18 
REMARK    8  A    between atoms: C_18  and  C_19 
ROOT
HETATM    1  C   UNL     1      25.595  46.767  51.270  1.00  0.00     0.196 A 
HETATM    2  N   UNL     1      25.685  45.421  51.576  1.00  0.00    -0.271 N 
HETATM    3  C   UNL     1      25.675  45.391  52.965  1.00  0.00     0.153 A 
HETATM    4  N   UNL     1      25.593  46.624  53.433  1.00  0.00    -0.132 NA
HETATM    5  N   UNL     1      25.531  47.483  52.369  1.00  0.00    -0.122 NA
ENDROOT
BRANCH   3   6
HETATM    6  C   UNL     1      25.861  44.182  53.808  1.00  0.00     0.204 C 
BRANCH   6   7
HETATM    7  N   UNL     1      26.993  44.392  54.682  1.00  0.00    -0.350 N 
HETATM    8  C   UNL     1      28.271  44.092  54.263  1.00  0.00     0.252 C 
HETATM    9  O   UNL     1      28.521  43.737  53.114  1.00  0.00    -0.268 OA
HETATM   10  H   UNL     1      26.790  44.467  55.670  1.00  0.00     0.163 HD
BRANCH   8  11
HETATM   11  C   UNL     1      29.363  44.172  55.277  1.00  0.00     0.032 A 
HETATM   12  C   UNL     1      29.420  45.174  56.257  1.00  0.00     0.023 A 
HETATM   13  C   UNL     1      30.459  45.185  57.203  1.00  0.00    -0.061 A 
HETATM   14  C   UNL     1      30.532  46.264  58.244  1.00  0.00     0.048 C 
HETATM   15  C   UNL     1      31.462  44.211  57.132  1.00  0.00     0.007 A 
HETATM   16  C   UNL     1      31.423  43.226  56.146  1.00  0.00     0.002 A 
HETATM   17  C   UNL     1      30.377  43.205  55.223  1.00  0.00     0.017 A 
ENDBRANCH   8  11
ENDBRANCH   6   7
ENDBRANCH   3   6
BRANCH   2  18
HETATM   18  C   UNL     1      25.700  44.313  50.693  1.00  0.00     0.076 A 
HETATM   19  C   UNL     1      24.514  43.637  50.364  1.00  0.00     0.095 A 
HETATM   20  C   UNL     1      24.580  42.545  49.490  1.00  0.00     0.039 A 
HETATM   21  C   UNL     1      25.806  42.124  48.970  1.00  0.00     0.003 A 
HETATM   22  C   UNL     1      26.978  42.792  49.309  1.00  0.00     0.002 A 
HETATM   23  C   UNL     1      26.930  43.888  50.169  1.00  0.00     0.033 A 
BRANCH  19  24
HETATM   24  O   UNL     1      23.330  44.152  50.819  1.00  0.00    -0.354 OA
HETATM   25  C   UNL     1      22.247  44.127  49.893  1.00  0.00     0.210 C 
ENDBRANCH  19  24
ENDBRANCH   2  18
BRANCH   1  26
HETATM   26  S   UNL     1      25.355  47.427  49.682  1.00  0.00    -0.090 SA
BRANCH  26  27
HETATM   27  C   UNL     1      26.933  48.302  49.471  1.00  0.00     0.082 C 
BRANCH  27  28
HETATM   28  C   UNL     1      26.723  49.530  48.589  1.00  0.00     0.006 C 
HETATM   29  C   UNL     1      25.243  49.810  48.376  1.00  0.00     0.006 C 
ENDBRANCH  27  28
ENDBRANCH  26  27
ENDBRANCH   1  26
TORSDOF 8
ENDMDL
MODEL 3
REMARK VINA RESULT:      -8.2      3.831      6.355
REMARK  8 active torsions:
REMARK  status: ('A' for Active; 'I' for Inactive)
REMARK    1  A    between atoms: C_2  and  C_3 
REMARK    2  A    between atoms: C_3  and  S_4 
REMARK    3  A    between atoms: S_4  and  C_5 
REMARK    4  A    between atoms: N_6  and  C_7 
REMARK    5  A    between atoms: C_8  and  O_9 
REMARK    6  A    between atoms: C_15  and  C_16 
REMARK    7  A    between atoms: C_16  and  N_17 
REMARK       I    between atoms: N_17  and  C_18 
REMARK    8  A    between atoms: C_18  and  C_19 
ROOT
HETATM    1  C   UNL     1      19.947  47.785  46.959  1.00  0.00     0.196 A 
HETATM    2  N   UNL     1      20.508  48.718  47.813  1.00  0.00    -0.271 N 
HETATM    3  C   UNL     1      21.848  48.353  47.876  1.00  0.00     0.153 A 
HETATM    4  N   UNL     1      22.051  47.286  47.123  1.00  0.00    -0.132 NA
HETATM    5  N   UNL     1      20.862  46.940  46.540  1.00  0.00    -0.122 NA
ENDROOT
BRANCH   3   6
HETATM    6  C   UNL     1      22.875  48.974  48.751  1.00  0.00     0.204 C 
BRANCH   6   7
HETATM    7  N   UNL     1      23.259  48.020  49.768  1.00  0.00    -0.350 N 
HETATM    8  C   UNL     1      24.584  47.841  50.100  1.00  0.00     0.252 C 
HETATM    9  O   UNL     1      25.480  48.542  49.636  1.00  0.00    -0.268 OA
HETATM   10  H   UNL     1      22.581  47.303  49.990  1.00  0.00     0.163 HD
BRANCH   8  11
HETATM   11  C   UNL     1      24.914  46.722  51.031  1.00  0.00     0.032 A 
HETATM   12  C   UNL     1      25.576  46.916  52.252  1.00  0.00     0.023 A 
HETATM   13  C   UNL     1      25.837  45.828  53.100  1.00  0.00    -0.061 A 
HETATM   14  C   UNL     1      26.559  46.030  54.400  1.00  0.00     0.048 C 
HETATM   15  C   UNL     1      25.469  44.538  52.696  1.00  0.00     0.007 A 
HETATM   16  C   UNL     1      24.831  44.337  51.473  1.00  0.00     0.002 A 
HETATM   17  C   UNL     1      24.552  45.423  50.645  1.00  0.00     0.017 A 
ENDBRANCH   8  11
ENDBRANCH   6   7
ENDBRANCH   3   6
BRANCH   2  18
HETATM   18  C   UNL     1      19.893  49.839  48.422  1.00  0.00     0.076 A 
HETATM   19  C   UNL     1      19.176  49.706  49.622  1.00  0.00     0.095 A 
HETATM   20  C   UNL     1      18.582  50.843  50.183  1.00  0.00     0.039 A 
HETATM   21  C   UNL     1      18.685  52.085  49.551  1.00  0.00     0.003 A 
HETATM   22  C   UNL     1      19.389  52.207  48.357  1.00  0.00     0.002 A 
HETATM   23  C   UNL     1      19.995  51.088  47.789  1.00  0.00     0.033 A 
BRANCH  19  24
HETATM   24  O   UNL     1      19.192  48.490  50.251  1.00  0.00    -0.354 OA
HETATM   25  C   UNL     1      18.553  48.443  51.524  1.00  0.00     0.210 C 
ENDBRANCH  19  24
ENDBRANCH   2  18
BRANCH   1  26
HETATM   26  S   UNL     1      18.333  47.841  46.323  1.00  0.00    -0.090 SA
BRANCH  26  27
HETATM   27  C   UNL     1      17.457  46.927  47.626  1.00  0.00     0.082 C 
BRANCH  27  28
HETATM   28  C   UNL     1      16.342  47.796  48.201  1.00  0.00     0.006 C 
HETATM   29  C   UNL     1      16.321  49.169  47.547  1.00  0.00     0.006 C 
ENDBRANCH  27  28
ENDBRANCH  26  27
ENDBRANCH   1  26
TORSDOF 8
ENDMDL
MODEL 4
REMARK VINA RESULT:      -8.1      2.128      4.270
REMARK  8 active torsions:
REMARK  status: ('A' for Active; 'I' for Inactive)
REMARK    1  A    between atoms: C_2  and  C_3 
REMARK    2  A    between atoms: C_3  and  S_4 
REMARK    3  A    between atoms: S_4  and  C_5 
REMARK    4  A    between atoms: N_6  and  C_7 
REMARK    5  A    between atoms: C_8  and  O_9 
REMARK    6  A    between atoms: C_15  and  C_16 
REMARK    7  A    between atoms: C_16  and  N_17 
REMARK       I    between atoms: N_17  and  C_18 
REMARK    8  A    between atoms: C_18  and  C_19 
ROOT
HETATM    1  C   UNL     1      24.803  46.854  50.754  1.00  0.00     0.196 A 
HETATM    2  N   UNL     1      24.910  45.503  51.033  1.00  0.00    -0.271 N 
HETATM    3  C   UNL     1      25.459  45.467  52.309  1.00  0.00     0.153 A 
HETATM    4  N   UNL     1      25.665  46.700  52.738  1.00  0.00    -0.132 NA
HETATM    5  N   UNL     1      25.241  47.567  51.767  1.00  0.00    -0.122 NA
ENDROOT
BRANCH   3   6
HETATM    6  C   UNL     1      25.880  44.242  53.037  1.00  0.00     0.204 C 
BRANCH   6   7
HETATM    7  N   UNL     1      26.775  44.620  54.109  1.00  0.00    -0.350 N 
HETATM    8  C   UNL     1      28.136  44.453  53.981  1.00  0.00     0.252 C 
HETATM    9  O   UNL     1      28.659  44.081  52.933  1.00  0.00    -0.268 OA
HETATM   10  H   UNL     1      26.361  44.713  55.027  1.00  0.00     0.163 HD
BRANCH   8  11
HETATM   11  C   UNL     1      28.976  44.704  55.189  1.00  0.00     0.032 A 
HETATM   12  C   UNL     1      30.078  43.907  55.530  1.00  0.00     0.023 A 
HETATM   13  C   UNL     1      30.848  44.206  56.665  1.00  0.00    -0.061 A 
HETATM   14  C   UNL     1      32.019  43.346  57.042  1.00  0.00     0.048 C 
HETATM   15  C   UNL     1      30.480  45.284  57.480  1.00  0.00     0.007 A 
HETATM   16  C   UNL     1      29.372  46.067  57.158  1.00  0.00     0.002 A 
HETATM   17  C   UNL     1      28.624  45.780  56.016  1.00  0.00     0.017 A 
ENDBRANCH   8  11
ENDBRANCH   6   7
ENDBRANCH   3   6
BRANCH   2  18
HETATM   18  C   UNL     1      24.485  44.403  50.249  1.00  0.00     0.076 A 
HETATM   19  C   UNL     1      25.400  43.672  49.475  1.00  0.00     0.095 A 
HETATM   20  C   UNL     1      24.931  42.595  48.713  1.00  0.00     0.039 A 
HETATM   21  C   UNL     1      23.573  42.266  48.707  1.00  0.00     0.003 A 
HETATM   22  C   UNL     1      22.671  43.002  49.468  1.00  0.00     0.002 A 
HETATM   23  C   UNL     1      23.121  44.071  50.241  1.00  0.00     0.033 A 
BRANCH  19  24
HETATM   24  O   UNL     1      26.731  43.972  49.596  1.00  0.00    -0.354 OA
HETATM   25  C   UNL     1      27.571  42.899  50.015  1.00  0.00     0.210 C 
ENDBRANCH  19  24
ENDBRANCH   2  18
BRANCH   1  26
HETATM   26  S   UNL     1      23.992  47.540  49.381  1.00  0.00    -0.090 SA
BRANCH  26  27
HETATM   27  C   UNL     1      25.076  48.961  49.060  1.00  0.00     0.082 C 
BRANCH  27  28
HETATM   28  C   UNL     1      26.532  48.505  49.064  1.00  0.00     0.006 C 
HETATM   29  C   UNL     1      27.479  49.683  48.885  1.00  0.00     0.006 C 
ENDBRANCH  27  28
ENDBRANCH  26  27
ENDBRANCH   1  26
TORSDOF 8
ENDMDL
MODEL 5
REMARK VINA RESULT:      -8.0      3.538      4.967
REMARK  8 active torsions:
REMARK  status: ('A' for Active; 'I' for Inactive)
REMARK    1  A    between atoms: C_2  and  C_3 
REMARK    2  A    between atoms: C_3  and  S_4 
REMARK    3  A    between atoms: S_4  and  C_5 
REMARK    4  A    between atoms: N_6  and  C_7 
REMARK    5  A    between atoms: C_8  and  O_9 
REMARK    6  A    between atoms: C_15  and  C_16 
REMARK    7  A    between atoms: C_16  and  N_17 
REMARK       I    between atoms: N_17  and  C_18 
REMARK    8  A    between atoms: C_18  and  C_19 
ROOT
HETATM    1  C   UNL     1      27.428  41.545  50.608  1.00  0.00     0.196 A 
HETATM    2  N   UNL     1      26.625  42.584  51.043  1.00  0.00    -0.271 N 
HETATM    3  C   UNL     1      27.251  43.030  52.201  1.00  0.00     0.153 A 
HETATM    4  N   UNL     1      28.330  42.302  52.428  1.00  0.00    -0.132 NA
HETATM    5  N   UNL     1      28.446  41.381  51.422  1.00  0.00    -0.122 NA
ENDROOT
BRANCH   3   6
HETATM    6  C   UNL     1      26.729  44.071  53.122  1.00  0.00     0.204 C 
BRANCH   6   7
HETATM    7  N   UNL     1      27.551  44.096  54.312  1.00  0.00    -0.350 N 
HETATM    8  C   UNL     1      28.075  45.281  54.780  1.00  0.00     0.252 C 
HETATM    9  O   UNL     1      27.790  46.369  54.284  1.00  0.00    -0.268 OA
HETATM   10  H   UNL     1      27.964  43.216  54.591  1.00  0.00     0.163 HD
BRANCH   8  11
HETATM   11  C   UNL     1      29.049  45.203  55.907  1.00  0.00     0.032 A 
HETATM   12  C   UNL     1      30.093  44.268  55.949  1.00  0.00     0.023 A 
HETATM   13  C   UNL     1      30.998  44.258  57.023  1.00  0.00    -0.061 A 
HETATM   14  C   UNL     1      32.107  43.249  57.079  1.00  0.00     0.048 C 
HETATM   15  C   UNL     1      30.822  45.164  58.077  1.00  0.00     0.007 A 
HETATM   16  C   UNL     1      29.772  46.082  58.052  1.00  0.00     0.002 A 
HETATM   17  C   UNL     1      28.891  46.103  56.971  1.00  0.00     0.017 A 
ENDBRANCH   8  11
ENDBRANCH   6   7
ENDBRANCH   3   6
BRANCH   2  18
HETATM   18  C   UNL     1      25.478  43.133  50.420  1.00  0.00     0.076 A 
HETATM   19  C   UNL     1      25.580  44.249  49.573  1.00  0.00     0.095 A 
HETATM   20  C   UNL     1      24.416  44.758  48.985  1.00  0.00     0.039 A 
HETATM   21  C   UNL     1      23.173  44.180  49.250  1.00  0.00     0.003 A 
HETATM   22  C   UNL     1      23.078  43.081  50.099  1.00  0.00     0.002 A 
HETATM   23  C   UNL     1      24.227  42.554  50.686  1.00  0.00     0.033 A 
BRANCH  19  24
HETATM   24  O   UNL     1      26.831  44.712  49.267  1.00  0.00    -0.354 OA
HETATM   25  C   UNL     1      27.142  46.017  49.749  1.00  0.00     0.210 C 
ENDBRANCH  19  24
ENDBRANCH   2  18
BRANCH   1  26
HETATM   26  S   UNL     1      27.276  40.720  49.088  1.00  0.00    -0.090 SA
BRANCH  26  27
HETATM   27  C   UNL     1      26.787  39.073  49.678  1.00  0.00     0.082 C 
BRANCH  27  28
HETATM   28  C   UNL     1      27.939  38.093  49.475  1.00  0.00     0.006 C 
HETATM   29  C   UNL     1      29.118  38.764  48.787  1.00  0.00     0.006 C 
ENDBRANCH  27  28
ENDBRANCH  26  27
ENDBRANCH   1  26
TORSDOF 8
ENDMDL
MODEL 6
REMARK VINA RESULT:      -7.9      2.649      8.295
REMARK  8 active torsions:
REMARK  status: ('A' for Active; 'I' for Inactive)
REMARK    1  A    between atoms: C_2  and  C_3 
REMARK    2  A    between atoms: C_3  and  S_4 
REMARK    3  A    between atoms: S_4  and  C_5 
REMARK    4  A    between atoms: N_6  and  C_7 
REMARK    5  A    between atoms: C_8  and  O_9 
REMARK    6  A    between atoms: C_15  and  C_16 
REMARK    7  A    between atoms: C_16  and  N_17 
REMARK       I    between atoms: N_17  and  C_18 
REMARK    8  A    between atoms: C_18  and  C_19 
ROOT
HETATM    1  C   UNL     1      25.796  45.594  53.178  1.00  0.00     0.196 A 
HETATM    2  N   UNL     1      25.798  45.313  51.823  1.00  0.00    -0.271 N 
HETATM    3  C   UNL     1      25.747  46.565  51.222  1.00  0.00     0.153 A 
HETATM    4  N   UNL     1      25.710  47.502  52.153  1.00  0.00    -0.132 NA
HETATM    5  N   UNL     1      25.754  46.892  53.377  1.00  0.00    -0.122 NA
ENDROOT
BRANCH   3   6
HETATM    6  C   UNL     1      25.617  46.822  49.765  1.00  0.00     0.204 C 
BRANCH   6   7
HETATM    7  N   UNL     1      24.321  47.409  49.508  1.00  0.00    -0.350 N 
HETATM    8  C   UNL     1      24.213  48.700  49.040  1.00  0.00     0.252 C 
HETATM    9  O   UNL     1      25.193  49.370  48.724  1.00  0.00    -0.268 OA
HETATM   10  H   UNL     1      23.531  46.967  49.959  1.00  0.00     0.163 HD
BRANCH   8  11
HETATM   11  C   UNL     1      22.845  49.291  48.964  1.00  0.00     0.032 A 
HETATM   12  C   UNL     1      21.677  48.533  49.129  1.00  0.00     0.023 A 
HETATM   13  C   UNL     1      20.416  49.148  49.072  1.00  0.00    -0.061 A 
HETATM   14  C   UNL     1      19.163  48.337  49.233  1.00  0.00     0.048 C 
HETATM   15  C   UNL     1      20.332  50.520  48.806  1.00  0.00     0.007 A 
HETATM   16  C   UNL     1      21.490  51.275  48.619  1.00  0.00     0.002 A 
HETATM   17  C   UNL     1      22.741  50.664  48.699  1.00  0.00     0.017 A 
ENDBRANCH   8  11
ENDBRANCH   6   7
ENDBRANCH   3   6
BRANCH   2  18
HETATM   18  C   UNL     1      25.910  44.056  51.182  1.00  0.00     0.076 A 
HETATM   19  C   UNL     1      24.768  43.309  50.852  1.00  0.00     0.095 A 
HETATM   20  C   UNL     1      24.931  42.069  50.223  1.00  0.00     0.039 A 
HETATM   21  C   UNL     1      26.208  41.575  49.945  1.00  0.00     0.003 A 
HETATM   22  C   UNL     1      27.335  42.316  50.284  1.00  0.00     0.002 A 
HETATM   23  C   UNL     1      27.192  43.557  50.902  1.00  0.00     0.033 A 
BRANCH  19  24
HETATM   24  O   UNL     1      23.542  43.883  51.054  1.00  0.00    -0.354 OA
HETATM   25  C   UNL     1      22.741  44.058  49.888  1.00  0.00     0.210 C 
ENDBRANCH  19  24
ENDBRANCH   2  18
BRANCH   1  26
HETATM   26  S   UNL     1      26.057  44.439  54.448  1.00  0.00    -0.090 SA
BRANCH  26  27
HETATM   27  C   UNL     1      27.845  44.644  54.690  1.00  0.00     0.082 C 
BRANCH  27  28
HETATM   28  C   UNL     1      28.566  43.357  54.301  1.00  0.00     0.006 C 
HETATM   29  C   UNL     1      29.987  43.336  54.843  1.00  0.00     0.006 C 
ENDBRANCH  27  28
ENDBRANCH  26  27
ENDBRANCH   1  26
TORSDOF 8
ENDMDL
MODEL 7
REMARK VINA RESULT:      -7.8      1.447      2.606
REMARK  8 active torsions:
REMARK  status: ('A' for Active; 'I' for Inactive)
REMARK    1  A    between atoms: C_2  and  C_3 
REMARK    2  A    between atoms: C_3  and  S_4 
REMARK    3  A    between atoms: S_4  and  C_5 
REMARK    4  A    between atoms: N_6  and  C_7 
REMARK    5  A    between atoms: C_8  and  O_9 
REMARK    6  A    between atoms: C_15  and  C_16 
REMARK    7  A    between atoms: C_16  and  N_17 
REMARK       I    between atoms: N_17  and  C_18 
REMARK    8  A    between atoms: C_18  and  C_19 
ROOT
HETATM    1  C   UNL     1      23.529  45.536  49.361  1.00  0.00     0.196 A 
HETATM    2  N   UNL     1      24.031  46.699  49.918  1.00  0.00    -0.271 N 
HETATM    3  C   UNL     1      24.708  46.264  51.051  1.00  0.00     0.153 A 
HETATM    4  N   UNL     1      24.603  44.950  51.151  1.00  0.00    -0.132 NA
HETATM    5  N   UNL     1      23.875  44.495  50.085  1.00  0.00    -0.122 NA
ENDROOT
BRANCH   3   6
HETATM    6  C   UNL     1      25.342  47.137  52.071  1.00  0.00     0.204 C 
BRANCH   6   7
HETATM    7  N   UNL     1      26.390  46.395  52.735  1.00  0.00    -0.350 N 
HETATM    8  C   UNL     1      26.606  46.540  54.088  1.00  0.00     0.252 C 
HETATM    9  O   UNL     1      25.868  47.213  54.805  1.00  0.00    -0.268 OA
HETATM   10  H   UNL     1      27.122  46.025  52.144  1.00  0.00     0.163 HD
BRANCH   8  11
HETATM   11  C   UNL     1      27.811  45.876  54.667  1.00  0.00     0.032 A 
HETATM   12  C   UNL     1      28.282  44.632  54.223  1.00  0.00     0.023 A 
HETATM   13  C   UNL     1      29.437  44.066  54.787  1.00  0.00    -0.061 A 
HETATM   14  C   UNL     1      29.935  42.728  54.325  1.00  0.00     0.048 C 
HETATM   15  C   UNL     1      30.091  44.735  55.829  1.00  0.00     0.007 A 
HETATM   16  C   UNL     1      29.614  45.962  56.290  1.00  0.00     0.002 A 
HETATM   17  C   UNL     1      28.480  46.531  55.710  1.00  0.00     0.017 A 
ENDBRANCH   8  11
ENDBRANCH   6   7
ENDBRANCH   3   6
BRANCH   2  18
HETATM   18  C   UNL     1      23.954  48.021  49.418  1.00  0.00     0.076 A 
HETATM   19  C   UNL     1      25.097  48.679  48.935  1.00  0.00     0.095 A 
HETATM   20  C   UNL     1      24.971  49.988  48.456  1.00  0.00     0.039 A 
HETATM   21  C   UNL     1      23.733  50.636  48.475  1.00  0.00     0.003 A 
HETATM   22  C   UNL     1      22.607  49.983  48.965  1.00  0.00     0.002 A 
HETATM   23  C   UNL     1      22.712  48.675  49.437  1.00  0.00     0.033 A 
BRANCH  19  24
HETATM   24  O   UNL     1      26.261  47.964  48.845  1.00  0.00    -0.354 OA
HETATM   25  C   UNL     1      27.445  48.661  49.222  1.00  0.00     0.210 C 
ENDBRANCH  19  24
ENDBRANCH   2  18
BRANCH   1  26
HETATM   26  S   UNL     1      22.762  45.409  47.809  1.00  0.00    -0.090 SA
BRANCH  26  27
HETATM   27  C   UNL     1      23.240  43.714  47.367  1.00  0.00     0.082 C 
BRANCH  27  28
HETATM   28  C   UNL     1      22.064  43.007  46.700  1.00  0.00     0.006 C 
HETATM   29  C   UNL     1      20.882  43.949  46.526  1.00  0.00     0.006 C 
ENDBRANCH  27  28
ENDBRANCH  26  27
ENDBRANCH   1  26
TORSDOF 8
ENDMDL
MODEL 8
REMARK VINA RESULT:      -7.6      2.342      3.988
REMARK  8 active torsions:
REMARK  status: ('A' for Active; 'I' for Inactive)
REMARK    1  A    between atoms: C_2  and  C_3 
REMARK    2  A    between atoms: C_3  and  S_4 
REMARK    3  A    between atoms: S_4  and  C_5 
REMARK    4  A    between atoms: N_6  and  C_7 
REMARK    5  A    between atoms: C_8  and  O_9 
REMARK    6  A    between atoms: C_15  and  C_16 
REMARK    7  A    between atoms: C_16  and  N_17 
REMARK       I    between atoms: N_17  and  C_18 
REMARK    8  A    between atoms: C_18  and  C_19 
ROOT
HETATM    1  C   UNL     1      22.046  46.420  47.732  1.00  0.00     0.196 A 
HETATM    2  N   UNL     1      22.448  47.430  48.588  1.00  0.00    -0.271 N 
HETATM    3  C   UNL     1      23.530  46.883  49.267  1.00  0.00     0.153 A 
HETATM    4  N   UNL     1      23.739  45.648  48.845  1.00  0.00    -0.132 NA
HETATM    5  N   UNL     1      22.816  45.365  47.875  1.00  0.00    -0.122 NA
ENDROOT
BRANCH   3   6
HETATM    6  C   UNL     1      24.264  47.524  50.388  1.00  0.00     0.204 C 
BRANCH   6   7
HETATM    7  N   UNL     1      25.038  46.515  51.077  1.00  0.00    -0.350 N 
HETATM    8  C   UNL     1      25.528  46.748  52.344  1.00  0.00     0.252 C 
HETATM    9  O   UNL     1      25.250  47.761  52.982  1.00  0.00    -0.268 OA
HETATM   10  H   UNL     1      25.450  45.794  50.500  1.00  0.00     0.163 HD
BRANCH   8  11
HETATM   11  C   UNL     1      26.458  45.732  52.918  1.00  0.00     0.032 A 
HETATM   12  C   UNL     1      27.314  46.005  53.994  1.00  0.00     0.023 A 
HETATM   13  C   UNL     1      28.150  45.001  54.511  1.00  0.00    -0.061 A 
HETATM   14  C   UNL     1      29.078  45.294  55.653  1.00  0.00     0.048 C 
HETATM   15  C   UNL     1      28.153  43.735  53.912  1.00  0.00     0.007 A 
HETATM   16  C   UNL     1      27.320  43.465  52.827  1.00  0.00     0.002 A 
HETATM   17  C   UNL     1      26.475  44.458  52.333  1.00  0.00     0.017 A 
ENDBRANCH   8  11
ENDBRANCH   6   7
ENDBRANCH   3   6
BRANCH   2  18
HETATM   18  C   UNL     1      21.940  48.747  48.700  1.00  0.00     0.076 A 
HETATM   19  C   UNL     1      22.616  49.833  48.122  1.00  0.00     0.095 A 
HETATM   20  C   UNL     1      22.077  51.117  48.264  1.00  0.00     0.039 A 
HETATM   21  C   UNL     1      20.896  51.317  48.984  1.00  0.00     0.003 A 
HETATM   22  C   UNL     1      20.237  50.237  49.562  1.00  0.00     0.002 A 
HETATM   23  C   UNL     1      20.754  48.950  49.423  1.00  0.00     0.033 A 
BRANCH  19  24
HETATM   24  O   UNL     1      23.711  49.570  47.344  1.00  0.00    -0.354 OA
HETATM   25  C   UNL     1      24.955  50.058  47.840  1.00  0.00     0.210 C 
ENDBRANCH  19  24
ENDBRANCH   2  18
BRANCH   1  26
HETATM   26  S   UNL     1      20.862  46.577  46.473  1.00  0.00    -0.090 SA
BRANCH  26  27
HETATM   27  C   UNL     1      19.346  46.335  47.444  1.00  0.00     0.082 C 
BRANCH  27  28
HETATM   28  C   UNL     1      18.278  47.322  46.982  1.00  0.00     0.006 C 
HETATM   29  C   UNL     1      18.903  48.536  46.310  1.00  0.00     0.006 C 
ENDBRANCH  27  28
ENDBRANCH  26  27
ENDBRANCH   1  26
TORSDOF 8
ENDMDL
MODEL 9
REMARK VINA RESULT:      -7.6     11.028     13.668
REMARK  8 active torsions:
REMARK  status: ('A' for Active; 'I' for Inactive)
REMARK    1  A    between atoms: C_2  and  C_3 
REMARK    2  A    between atoms: C_3  and  S_4 
REMARK    3  A    between atoms: S_4  and  C_5 
REMARK    4  A    between atoms: N_6  and  C_7 
REMARK    5  A    between atoms: C_8  and  O_9 
REMARK    6  A    between atoms: C_15  and  C_16 
REMARK    7  A    between atoms: C_16  and  N_17 
REMARK       I    between atoms: N_17  and  C_18 
REMARK    8  A    between atoms: C_18  and  C_19 
ROOT
HETATM    1  C   UNL     1      32.480  49.281  40.974  1.00  0.00     0.196 A 
HETATM    2  N   UNL     1      31.458  49.167  40.048  1.00  0.00    -0.271 N 
HETATM    3  C   UNL     1      31.334  47.797  39.852  1.00  0.00     0.153 A 
HETATM    4  N   UNL     1      32.220  47.161  40.598  1.00  0.00    -0.132 NA
HETATM    5  N   UNL     1      32.928  48.092  41.309  1.00  0.00    -0.122 NA
ENDROOT
BRANCH   3   6
HETATM    6  C   UNL     1      30.442  47.141  38.862  1.00  0.00     0.204 C 
BRANCH   6   7
HETATM    7  N   UNL     1      29.234  46.713  39.533  1.00  0.00    -0.350 N 
HETATM    8  C   UNL     1      28.012  47.249  39.190  1.00  0.00     0.252 C 
HETATM    9  O   UNL     1      27.873  48.023  38.246  1.00  0.00    -0.268 OA
HETATM   10  H   UNL     1      29.355  46.262  40.430  1.00  0.00     0.163 HD
BRANCH   8  11
HETATM   11  C   UNL     1      26.841  46.887  40.040  1.00  0.00     0.032 A 
HETATM   12  C   UNL     1      26.877  45.852  40.986  1.00  0.00     0.023 A 
HETATM   13  C   UNL     1      25.751  45.572  41.778  1.00  0.00    -0.061 A 
HETATM   14  C   UNL     1      25.781  44.456  42.780  1.00  0.00     0.048 C 
HETATM   15  C   UNL     1      24.575  46.308  41.584  1.00  0.00     0.007 A 
HETATM   16  C   UNL     1      24.527  47.323  40.629  1.00  0.00     0.002 A 
HETATM   17  C   UNL     1      25.655  47.613  39.862  1.00  0.00     0.017 A 
ENDBRANCH   8  11
ENDBRANCH   6   7
ENDBRANCH   3   6
BRANCH   2  18
HETATM   18  C   UNL     1      30.658  50.192  39.486  1.00  0.00     0.076 A 
HETATM   19  C   UNL     1      29.454  50.584  40.095  1.00  0.00     0.095 A 
HETATM   20  C   UNL     1      28.696  51.598  39.499  1.00  0.00     0.039 A 
HETATM   21  C   UNL     1      29.118  52.197  38.309  1.00  0.00     0.003 A 
HETATM   22  C   UNL     1      30.306  51.795  37.706  1.00  0.00     0.002 A 
HETATM   23  C   UNL     1      31.079  50.794  38.291  1.00  0.00     0.033 A 
BRANCH  19  24
HETATM   24  O   UNL     1      29.140  50.038  41.311  1.00  0.00    -0.354 OA
HETATM   25  C   UNL     1      27.757  50.055  41.657  1.00  0.00     0.210 C 
ENDBRANCH  19  24
ENDBRANCH   2  18
BRANCH   1  26
HETATM   26  S   UNL     1      32.958  50.745  41.775  1.00  0.00    -0.090 SA
BRANCH  26  27
HETATM   27  C   UNL     1      32.081  50.534  43.351  1.00  0.00     0.082 C 
BRANCH  27  28
HETATM   28  C   UNL     1      32.373  51.722  44.263  1.00  0.00     0.006 C 
HETATM   29  C   UNL     1      33.863  52.029  44.307  1.00  0.00     0.006 C 
ENDBRANCH  27  28
ENDBRANCH  26  27
ENDBRANCH   1  26
TORSDOF 8
ENDMDL
MODEL 10
REMARK VINA RESULT:      -7.5     11.983     13.458
REMARK  8 active torsions:
REMARK  status: ('A' for Active; 'I' for Inactive)
REMARK    1  A    between atoms: C_2  and  C_3 
REMARK    2  A    between atoms: C_3  and  S_4 
REMARK    3  A    between atoms: S_4  and  C_5 
REMARK    4  A    between atoms: N_6  and  C_7 
REMARK    5  A    between atoms: C_8  and  O_9 
REMARK    6  A    between atoms: C_15  and  C_16 
REMARK    7  A    between atoms: C_16  and  N_17 
REMARK       I    between atoms: N_17  and  C_18 
REMARK    8  A    between atoms: C_18  and  C_19 
ROOT
HETATM    1  C   UNL     1      27.457  49.111  38.371  1.00  0.00     0.196 A 
HETATM    2  N   UNL     1      28.359  49.858  39.107  1.00  0.00    -0.271 N 
HETATM    3  C   UNL     1      28.054  51.173  38.777  1.00  0.00     0.153 A 
HETATM    4  N   UNL     1      27.057  51.191  37.910  1.00  0.00    -0.132 NA
HETATM    5  N   UNL     1      26.677  49.899  37.667  1.00  0.00    -0.122 NA
ENDROOT
BRANCH   3   6
HETATM    6  C   UNL     1      28.808  52.375  39.217  1.00  0.00     0.204 C 
BRANCH   6   7
HETATM    7  N   UNL     1      29.650  52.013  40.336  1.00  0.00    -0.350 N 
HETATM    8  C   UNL     1      30.582  52.899  40.831  1.00  0.00     0.252 C 
HETATM    9  O   UNL     1      30.673  54.055  40.424  1.00  0.00    -0.268 OA
HETATM   10  H   UNL     1      29.741  51.025  40.528  1.00  0.00     0.163 HD
BRANCH   8  11
HETATM   11  C   UNL     1      31.527  52.394  41.869  1.00  0.00     0.032 A 
HETATM   12  C   UNL     1      32.777  51.839  41.557  1.00  0.00     0.023 A 
HETATM   13  C   UNL     1      33.637  51.404  42.579  1.00  0.00    -0.061 A 
HETATM   14  C   UNL     1      34.968  50.795  42.248  1.00  0.00     0.048 C 
HETATM   15  C   UNL     1      33.217  51.489  43.912  1.00  0.00     0.007 A 
HETATM   16  C   UNL     1      31.967  52.019  44.227  1.00  0.00     0.002 A 
HETATM   17  C   UNL     1      31.126  52.472  43.210  1.00  0.00     0.017 A 
ENDBRANCH   8  11
ENDBRANCH   6   7
ENDBRANCH   3   6
BRANCH   2  18
HETATM   18  C   UNL     1      29.319  49.409  40.047  1.00  0.00     0.076 A 
HETATM   19  C   UNL     1      30.652  49.183  39.666  1.00  0.00     0.095 A 
HETATM   20  C   UNL     1      31.562  48.734  40.630  1.00  0.00     0.039 A 
HETATM   21  C   UNL     1      31.148  48.497  41.944  1.00  0.00     0.003 A 
HETATM   22  C   UNL     1      29.824  48.713  42.311  1.00  0.00     0.002 A 
HETATM   23  C   UNL     1      28.906  49.169  41.367  1.00  0.00     0.033 A 
BRANCH  19  24
HETATM   24  O   UNL     1      31.026  49.527  38.395  1.00  0.00    -0.354 OA
HETATM   25  C   UNL     1      31.958  50.600  38.294  1.00  0.00     0.210 C 
ENDBRANCH  19  24
ENDBRANCH   2  18
BRANCH   1  26
HETATM   26  S   UNL     1      27.206  47.400  38.519  1.00  0.00    -0.090 SA
BRANCH  26  27
HETATM   27  C   UNL     1      28.694  46.795  37.671  1.00  0.00     0.082 C 
BRANCH  27  28
HETATM   28  C   UNL     1      29.509  45.925  38.623  1.00  0.00     0.006 C 
HETATM   29  C   UNL     1      28.756  45.674  39.921  1.00  0.00     0.006 C 
ENDBRANCH  27  28
ENDBRANCH  26  27
ENDBRANCH   1  26
TORSDOF 8
ENDMDL
