MODEL 1
REMARK VINA RESULT:      -8.2      0.000      0.000
REMARK  5 active torsions:
REMARK  status: ('A' for Active; 'I' for Inactive)
REMARK    1  A    between atoms: C_3  and  N_4 
REMARK       I    between atoms: N_4  and  C_5 
REMARK       I    between atoms: C_5  and  N_6 
REMARK    2  A    between atoms: N_6  and  C_7 
REMARK    3  A    between atoms: C_7  and  C_8 
REMARK    4  A    between atoms: C_8  and  C_9 
REMARK    5  A    between atoms: N_15  and  C_16 
ROOT
HETATM    1  C   UNL     1      28.331  41.016  51.060  1.00  0.00     0.054 C 
HETATM    2  C   UNL     1      28.291  41.935  52.223  1.00  0.00     0.003 A 
HETATM    3  C   UNL     1      27.207  42.689  52.733  1.00  0.00     0.159 A 
HETATM    4  N   UNL     1      27.574  43.428  53.783  1.00  0.00    -0.149 NA
HETATM    5  N   UNL     1      28.891  43.147  53.991  1.00  0.00    -0.241 N 
HETATM    6  C   UNL     1      29.350  42.269  53.039  1.00  0.00     0.129 A 
ENDROOT
BRANCH   3   7
HETATM    7  N   UNL     1      25.938  42.693  52.194  1.00  0.00    -0.291 N 
HETATM    8  C   UNL     1      25.202  43.743  51.741  1.00  0.00     0.321 C 
HETATM    9  N   UNL     1      25.701  44.991  51.949  1.00  0.00    -0.343 N 
HETATM   10  O   UNL     1      24.114  43.539  51.206  1.00  0.00    -0.247 OA
HETATM   11  H   UNL     1      26.675  45.013  52.252  1.00  0.00     0.164 HD
HETATM   12  H   UNL     1      25.474  41.805  52.084  1.00  0.00     0.172 HD
BRANCH   9  13
HETATM   13  C   UNL     1      25.074  46.194  51.441  1.00  0.00     0.133 C 
BRANCH  13  14
HETATM   14  C   UNL     1      26.025  47.381  51.417  1.00  0.00     0.137 C 
BRANCH  14  15
HETATM   15  C   UNL     1      26.418  47.706  50.000  1.00  0.00     0.389 C 
HETATM   16  F   UNL     1      25.354  48.084  49.260  1.00  0.00    -0.171 F 
HETATM   17  F   UNL     1      27.317  48.713  49.969  1.00  0.00    -0.171 F 
HETATM   18  F   UNL     1      26.982  46.639  49.393  1.00  0.00    -0.171 F 
ENDBRANCH  14  15
ENDBRANCH  13  14
ENDBRANCH   9  13
ENDBRANCH   3   7
BRANCH   5  19
HETATM   19  C   UNL     1      29.603  43.811  55.033  1.00  0.00     0.079 A 
HETATM   20  C   UNL     1      29.314  45.104  55.496  1.00  0.00     0.062 A 
HETATM   21 CL   UNL     1      28.208  46.208  54.754  1.00  0.00    -0.082 Cl
HETATM   22  C   UNL     1      30.036  45.634  56.578  1.00  0.00     0.026 A 
HETATM   23  C   UNL     1      31.050  44.901  57.194  1.00  0.00     0.002 A 
HETATM   24  C   UNL     1      31.367  43.636  56.720  1.00  0.00     0.002 A 
HETATM   25  C   UNL     1      30.658  43.097  55.646  1.00  0.00     0.033 A 
ENDBRANCH   5  19
TORSDOF 5
ENDMDL
MODEL 2
REMARK VINA RESULT:      -8.2      3.001      4.502
REMARK  5 active torsions:
REMARK  status: ('A' for Active; 'I' for Inactive)
REMARK    1  A    between atoms: C_3  and  N_4 
REMARK       I    between atoms: N_4  and  C_5 
REMARK       I    between atoms: C_5  and  N_6 
REMARK    2  A    between atoms: N_6  and  C_7 
REMARK    3  A    between atoms: C_7  and  C_8 
REMARK    4  A    between atoms: C_8  and  C_9 
REMARK    5  A    between atoms: N_15  and  C_16 
ROOT
HETATM    1  C   UNL     1      25.923  47.758  54.167  1.00  0.00     0.054 C 
HETATM    2  C   UNL     1      26.785  46.592  54.473  1.00  0.00     0.003 A 
HETATM    3  C   UNL     1      26.621  45.234  54.106  1.00  0.00     0.159 A 
HETATM    4  N   UNL     1      27.599  44.471  54.600  1.00  0.00    -0.149 NA
HETATM    5  N   UNL     1      28.428  45.319  55.271  1.00  0.00    -0.241 N 
HETATM    6  C   UNL     1      27.937  46.602  55.231  1.00  0.00     0.129 A 
ENDROOT
BRANCH   3   7
HETATM    7  N   UNL     1      25.566  44.750  53.363  1.00  0.00    -0.291 N 
HETATM    8  C   UNL     1      25.575  43.842  52.350  1.00  0.00     0.321 C 
HETATM    9  N   UNL     1      26.788  43.428  51.894  1.00  0.00    -0.343 N 
HETATM   10  O   UNL     1      24.512  43.464  51.862  1.00  0.00    -0.247 OA
HETATM   11  H   UNL     1      27.576  43.691  52.487  1.00  0.00     0.164 HD
HETATM   12  H   UNL     1      24.642  45.077  53.596  1.00  0.00     0.172 HD
BRANCH   9  13
HETATM   13  C   UNL     1      26.951  42.400  50.888  1.00  0.00     0.133 C 
BRANCH  13  14
HETATM   14  C   UNL     1      27.282  41.042  51.491  1.00  0.00     0.137 C 
BRANCH  14  15
HETATM   15  C   UNL     1      28.489  41.150  52.385  1.00  0.00     0.389 C 
HETATM   16  F   UNL     1      29.288  42.176  52.026  1.00  0.00    -0.171 F 
HETATM   17  F   UNL     1      28.119  41.348  53.669  1.00  0.00    -0.171 F 
HETATM   18  F   UNL     1      29.228  40.019  52.345  1.00  0.00    -0.171 F 
ENDBRANCH  14  15
ENDBRANCH  13  14
ENDBRANCH   9  13
ENDBRANCH   3   7
BRANCH   5  19
HETATM   19  C   UNL     1      29.569  44.804  55.955  1.00  0.00     0.079 A 
HETATM   20  C   UNL     1      29.957  45.183  57.250  1.00  0.00     0.062 A 
HETATM   21 CL   UNL     1      29.274  46.487  58.158  1.00  0.00    -0.082 Cl
HETATM   22  C   UNL     1      31.060  44.559  57.856  1.00  0.00     0.026 A 
HETATM   23  C   UNL     1      31.788  43.576  57.188  1.00  0.00     0.002 A 
HETATM   24  C   UNL     1      31.433  43.221  55.894  1.00  0.00     0.002 A 
HETATM   25  C   UNL     1      30.340  43.832  55.279  1.00  0.00     0.033 A 
ENDBRANCH   5  19
TORSDOF 5
ENDMDL
MODEL 3
REMARK VINA RESULT:      -8.1      4.036      5.403
REMARK  5 active torsions:
REMARK  status: ('A' for Active; 'I' for Inactive)
REMARK    1  A    between atoms: C_3  and  N_4 
REMARK       I    between atoms: N_4  and  C_5 
REMARK       I    between atoms: C_5  and  N_6 
REMARK    2  A    between atoms: N_6  and  C_7 
REMARK    3  A    between atoms: C_7  and  C_8 
REMARK    4  A    between atoms: C_8  and  C_9 
REMARK    5  A    between atoms: N_15  and  C_16 
ROOT
HETATM    1  C   UNL     1      24.699  44.306  51.887  1.00  0.00     0.054 C 
HETATM    2  C   UNL     1      26.129  44.216  52.264  1.00  0.00     0.003 A 
HETATM    3  C   UNL     1      27.242  43.831  51.478  1.00  0.00     0.159 A 
HETATM    4  N   UNL     1      28.373  43.847  52.187  1.00  0.00    -0.149 NA
HETATM    5  N   UNL     1      28.023  44.267  53.435  1.00  0.00    -0.241 N 
HETATM    6  C   UNL     1      26.665  44.467  53.510  1.00  0.00     0.129 A 
ENDROOT
BRANCH   3   7
HETATM    7  N   UNL     1      27.167  43.451  50.155  1.00  0.00    -0.291 N 
HETATM    8  C   UNL     1      27.208  42.202  49.618  1.00  0.00     0.321 C 
HETATM    9  N   UNL     1      27.488  41.170  50.459  1.00  0.00    -0.343 N 
HETATM   10  O   UNL     1      27.034  42.053  48.410  1.00  0.00    -0.247 OA
HETATM   11  H   UNL     1      27.449  41.409  51.450  1.00  0.00     0.164 HD
HETATM   12  H   UNL     1      27.039  44.176  49.467  1.00  0.00     0.172 HD
BRANCH   9  13
HETATM   13  C   UNL     1      27.473  39.782  50.047  1.00  0.00     0.133 C 
BRANCH  13  14
HETATM   14  C   UNL     1      28.794  39.342  49.434  1.00  0.00     0.137 C 
BRANCH  14  15
HETATM   15  C   UNL     1      29.484  38.354  50.337  1.00  0.00     0.389 C 
HETATM   16  F   UNL     1      29.580  38.815  51.602  1.00  0.00    -0.171 F 
HETATM   17  F   UNL     1      28.809  37.185  50.376  1.00  0.00    -0.171 F 
HETATM   18  F   UNL     1      30.735  38.086  49.901  1.00  0.00    -0.171 F 
ENDBRANCH  14  15
ENDBRANCH  13  14
ENDBRANCH   9  13
ENDBRANCH   3   7
BRANCH   5  19
HETATM   19  C   UNL     1      29.012  44.358  54.459  1.00  0.00     0.079 A 
HETATM   20  C   UNL     1      29.175  45.461  55.311  1.00  0.00     0.062 A 
HETATM   21 CL   UNL     1      28.374  46.985  55.140  1.00  0.00    -0.082 Cl
HETATM   22  C   UNL     1      30.137  45.415  56.333  1.00  0.00     0.026 A 
HETATM   23  C   UNL     1      30.948  44.294  56.508  1.00  0.00     0.002 A 
HETATM   24  C   UNL     1      30.818  43.213  55.647  1.00  0.00     0.002 A 
HETATM   25  C   UNL     1      29.866  43.245  54.628  1.00  0.00     0.033 A 
ENDBRANCH   5  19
TORSDOF 5
ENDMDL
MODEL 4
REMARK VINA RESULT:      -8.0      2.208      3.052
REMARK  5 active torsions:
REMARK  status: ('A' for Active; 'I' for Inactive)
REMARK    1  A    between atoms: C_3  and  N_4 
REMARK       I    between atoms: N_4  and  C_5 
REMARK       I    between atoms: C_5  and  N_6 
REMARK    2  A    between atoms: N_6  and  C_7 
REMARK    3  A    between atoms: C_7  and  C_8 
REMARK    4  A    between atoms: C_8  and  C_9 
REMARK    5  A    between atoms: N_15  and  C_16 
ROOT
HETATM    1  C   UNL     1      26.120  48.038  54.469  1.00  0.00     0.054 C 
HETATM    2  C   UNL     1      26.913  46.830  54.799  1.00  0.00     0.003 A 
HETATM    3  C   UNL     1      26.634  45.470  54.520  1.00  0.00     0.159 A 
HETATM    4  N   UNL     1      27.580  44.665  55.009  1.00  0.00    -0.149 NA
HETATM    5  N   UNL     1      28.501  45.485  55.589  1.00  0.00    -0.241 N 
HETATM    6  C   UNL     1      28.101  46.796  55.499  1.00  0.00     0.129 A 
ENDROOT
BRANCH   3   7
HETATM    7  N   UNL     1      25.509  45.025  53.858  1.00  0.00    -0.291 N 
HETATM    8  C   UNL     1      25.278  44.943  52.521  1.00  0.00     0.321 C 
HETATM    9  N   UNL     1      26.211  45.482  51.691  1.00  0.00    -0.343 N 
HETATM   10  O   UNL     1      24.237  44.431  52.114  1.00  0.00    -0.247 OA
HETATM   11  H   UNL     1      27.092  45.725  52.145  1.00  0.00     0.164 HD
HETATM   12  H   UNL     1      24.743  44.684  54.417  1.00  0.00     0.172 HD
BRANCH   9  13
HETATM   13  C   UNL     1      26.143  45.386  50.248  1.00  0.00     0.133 C 
BRANCH  13  14
HETATM   14  C   UNL     1      25.533  46.625  49.610  1.00  0.00     0.137 C 
BRANCH  14  15
HETATM   15  C   UNL     1      26.545  47.739  49.563  1.00  0.00     0.389 C 
HETATM   16  F   UNL     1      26.117  48.771  48.805  1.00  0.00    -0.171 F 
HETATM   17  F   UNL     1      26.793  48.215  50.802  1.00  0.00    -0.171 F 
HETATM   18  F   UNL     1      27.719  47.311  49.049  1.00  0.00    -0.171 F 
ENDBRANCH  14  15
ENDBRANCH  13  14
ENDBRANCH   9  13
ENDBRANCH   3   7
BRANCH   5  19
HETATM   19  C   UNL     1      29.637  44.925  56.246  1.00  0.00     0.079 A 
HETATM   20  C   UNL     1      30.486  43.960  55.683  1.00  0.00     0.062 A 
HETATM   21 CL   UNL     1      30.196  43.112  54.203  1.00  0.00    -0.082 Cl
HETATM   22  C   UNL     1      31.619  43.530  56.393  1.00  0.00     0.026 A 
HETATM   23  C   UNL     1      31.909  44.036  57.660  1.00  0.00     0.002 A 
HETATM   24  C   UNL     1      31.056  44.964  58.239  1.00  0.00     0.002 A 
HETATM   25  C   UNL     1      29.926  45.400  57.545  1.00  0.00     0.033 A 
ENDBRANCH   5  19
TORSDOF 5
ENDMDL
MODEL 5
REMARK VINA RESULT:      -7.8      4.731      8.731
REMARK  5 active torsions:
REMARK  status: ('A' for Active; 'I' for Inactive)
REMARK    1  A    between atoms: C_3  and  N_4 
REMARK       I    between atoms: N_4  and  C_5 
REMARK       I    between atoms: C_5  and  N_6 
REMARK    2  A    between atoms: N_6  and  C_7 
REMARK    3  A    between atoms: C_7  and  C_8 
REMARK    4  A    between atoms: C_8  and  C_9 
REMARK    5  A    between atoms: N_15  and  C_16 
ROOT
HETATM    1  C   UNL     1      27.747  48.855  49.141  1.00  0.00     0.054 C 
HETATM    2  C   UNL     1      26.279  48.673  49.223  1.00  0.00     0.003 A 
HETATM    3  C   UNL     1      25.537  47.620  49.813  1.00  0.00     0.159 A 
HETATM    4  N   UNL     1      24.223  47.798  49.656  1.00  0.00    -0.149 NA
HETATM    5  N   UNL     1      24.086  48.978  48.988  1.00  0.00    -0.241 N 
HETATM    6  C   UNL     1      25.319  49.507  48.691  1.00  0.00     0.129 A 
ENDROOT
BRANCH   3   7
HETATM    7  N   UNL     1      26.097  46.528  50.441  1.00  0.00    -0.291 N 
HETATM    8  C   UNL     1      26.241  46.284  51.771  1.00  0.00     0.321 C 
HETATM    9  N   UNL     1      25.915  47.288  52.629  1.00  0.00    -0.343 N 
HETATM   10  O   UNL     1      26.690  45.203  52.146  1.00  0.00    -0.247 OA
HETATM   11  H   UNL     1      25.408  48.063  52.201  1.00  0.00     0.164 HD
HETATM   12  H   UNL     1      26.434  45.778  49.859  1.00  0.00     0.172 HD
BRANCH   9  13
HETATM   13  C   UNL     1      25.930  47.139  54.069  1.00  0.00     0.133 C 
BRANCH  13  14
HETATM   14  C   UNL     1      27.203  47.686  54.698  1.00  0.00     0.137 C 
BRANCH  14  15
HETATM   15  C   UNL     1      27.957  46.583  55.392  1.00  0.00     0.389 C 
HETATM   16  F   UNL     1      29.230  46.492  54.951  1.00  0.00    -0.171 F 
HETATM   17  F   UNL     1      27.999  46.795  56.726  1.00  0.00    -0.171 F 
HETATM   18  F   UNL     1      27.366  45.385  55.190  1.00  0.00    -0.171 F 
ENDBRANCH  14  15
ENDBRANCH  13  14
ENDBRANCH   9  13
ENDBRANCH   3   7
BRANCH   5  19
HETATM   19  C   UNL     1      22.787  49.444  48.626  1.00  0.00     0.079 A 
HETATM   20  C   UNL     1      21.788  48.645  48.048  1.00  0.00     0.062 A 
HETATM   21 CL   UNL     1      22.009  47.031  47.466  1.00  0.00    -0.082 Cl
HETATM   22  C   UNL     1      20.518  49.191  47.798  1.00  0.00     0.026 A 
HETATM   23  C   UNL     1      20.235  50.522  48.099  1.00  0.00     0.002 A 
HETATM   24  C   UNL     1      21.228  51.329  48.637  1.00  0.00     0.002 A 
HETATM   25  C   UNL     1      22.494  50.800  48.892  1.00  0.00     0.033 A 
ENDBRANCH   5  19
TORSDOF 5
ENDMDL
MODEL 6
REMARK VINA RESULT:      -7.7      3.623      6.760
REMARK  5 active torsions:
REMARK  status: ('A' for Active; 'I' for Inactive)
REMARK    1  A    between atoms: C_3  and  N_4 
REMARK       I    between atoms: N_4  and  C_5 
REMARK       I    between atoms: C_5  and  N_6 
REMARK    2  A    between atoms: N_6  and  C_7 
REMARK    3  A    between atoms: C_7  and  C_8 
REMARK    4  A    between atoms: C_8  and  C_9 
REMARK    5  A    between atoms: N_15  and  C_16 
ROOT
HETATM    1  C   UNL     1      26.411  48.746  55.871  1.00  0.00     0.054 C 
HETATM    2  C   UNL     1      26.534  47.622  54.913  1.00  0.00     0.003 A 
HETATM    3  C   UNL     1      27.461  46.551  54.902  1.00  0.00     0.159 A 
HETATM    4  N   UNL     1      27.271  45.749  53.851  1.00  0.00    -0.149 NA
HETATM    5  N   UNL     1      26.204  46.265  53.179  1.00  0.00    -0.241 N 
HETATM    6  C   UNL     1      25.763  47.415  53.789  1.00  0.00     0.129 A 
ENDROOT
BRANCH   3   7
HETATM    7  N   UNL     1      28.460  46.375  55.835  1.00  0.00    -0.291 N 
HETATM    8  C   UNL     1      29.420  45.413  55.892  1.00  0.00     0.321 C 
HETATM    9  N   UNL     1      29.337  44.394  54.994  1.00  0.00    -0.343 N 
HETATM   10  O   UNL     1      30.289  45.471  56.760  1.00  0.00    -0.247 OA
HETATM   11  H   UNL     1      28.673  44.551  54.236  1.00  0.00     0.164 HD
HETATM   12  H   UNL     1      28.530  47.052  56.577  1.00  0.00     0.172 HD
BRANCH   9  13
HETATM   13  C   UNL     1      30.338  43.354  54.878  1.00  0.00     0.133 C 
BRANCH  13  14
HETATM   14  C   UNL     1      30.418  42.777  53.472  1.00  0.00     0.137 C 
BRANCH  14  15
HETATM   15  C   UNL     1      29.105  42.145  53.092  1.00  0.00     0.389 C 
HETATM   16  F   UNL     1      28.379  41.808  54.180  1.00  0.00    -0.171 F 
HETATM   17  F   UNL     1      28.360  42.993  52.349  1.00  0.00    -0.171 F 
HETATM   18  F   UNL     1      29.295  41.025  52.362  1.00  0.00    -0.171 F 
ENDBRANCH  14  15
ENDBRANCH  13  14
ENDBRANCH   9  13
ENDBRANCH   3   7
BRANCH   5  19
HETATM   19  C   UNL     1      25.761  45.652  51.970  1.00  0.00     0.079 A 
HETATM   20  C   UNL     1      25.911  46.214  50.692  1.00  0.00     0.062 A 
HETATM   21 CL   UNL     1      26.446  47.826  50.364  1.00  0.00    -0.082 Cl
HETATM   22  C   UNL     1      25.500  45.489  49.561  1.00  0.00     0.026 A 
HETATM   23  C   UNL     1      24.930  44.223  49.685  1.00  0.00     0.002 A 
HETATM   24  C   UNL     1      24.745  43.675  50.946  1.00  0.00     0.002 A 
HETATM   25  C   UNL     1      25.148  44.384  52.079  1.00  0.00     0.033 A 
ENDBRANCH   5  19
TORSDOF 5
ENDMDL
MODEL 7
REMARK VINA RESULT:      -7.7      4.549      6.330
REMARK  5 active torsions:
REMARK  status: ('A' for Active; 'I' for Inactive)
REMARK    1  A    between atoms: C_3  and  N_4 
REMARK       I    between atoms: N_4  and  C_5 
REMARK       I    between atoms: C_5  and  N_6 
REMARK    2  A    between atoms: N_6  and  C_7 
REMARK    3  A    between atoms: C_7  and  C_8 
REMARK    4  A    between atoms: C_8  and  C_9 
REMARK    5  A    between atoms: N_15  and  C_16 
ROOT
HETATM    1  C   UNL     1      23.239  46.106  48.827  1.00  0.00     0.054 C 
HETATM    2  C   UNL     1      24.240  46.572  49.816  1.00  0.00     0.003 A 
HETATM    3  C   UNL     1      25.089  47.704  49.768  1.00  0.00     0.159 A 
HETATM    4  N   UNL     1      25.880  47.771  50.841  1.00  0.00    -0.149 NA
HETATM    5  N   UNL     1      25.542  46.703  51.618  1.00  0.00    -0.241 N 
HETATM    6  C   UNL     1      24.573  45.949  51.000  1.00  0.00     0.129 A 
ENDROOT
BRANCH   3   7
HETATM    7  N   UNL     1      25.125  48.608  48.727  1.00  0.00    -0.291 N 
HETATM    8  C   UNL     1      24.335  49.693  48.506  1.00  0.00     0.321 C 
HETATM    9  N   UNL     1      23.272  49.870  49.336  1.00  0.00    -0.343 N 
HETATM   10  O   UNL     1      24.578  50.439  47.560  1.00  0.00    -0.247 OA
HETATM   11  H   UNL     1      23.280  49.279  50.167  1.00  0.00     0.164 HD
HETATM   12  H   UNL     1      25.842  48.488  48.029  1.00  0.00     0.172 HD
BRANCH   9  13
HETATM   13  C   UNL     1      22.402  51.026  49.277  1.00  0.00     0.133 C 
BRANCH  13  14
HETATM   14  C   UNL     1      21.233  50.828  48.323  1.00  0.00     0.137 C 
BRANCH  14  15
HETATM   15  C   UNL     1      19.987  51.459  48.888  1.00  0.00     0.389 C 
HETATM   16  F   UNL     1      20.054  51.584  50.230  1.00  0.00    -0.171 F 
HETATM   17  F   UNL     1      19.795  52.691  48.370  1.00  0.00    -0.171 F 
HETATM   18  F   UNL     1      18.893  50.721  48.598  1.00  0.00    -0.171 F 
ENDBRANCH  14  15
ENDBRANCH  13  14
ENDBRANCH   9  13
ENDBRANCH   3   7
BRANCH   5  19
HETATM   19  C   UNL     1      26.238  46.462  52.839  1.00  0.00     0.079 A 
HETATM   20  C   UNL     1      27.017  45.323  53.099  1.00  0.00     0.062 A 
HETATM   21 CL   UNL     1      27.097  43.915  52.097  1.00  0.00    -0.082 Cl
HETATM   22  C   UNL     1      27.718  45.222  54.312  1.00  0.00     0.026 A 
HETATM   23  C   UNL     1      27.643  46.229  55.273  1.00  0.00     0.002 A 
HETATM   24  C   UNL     1      26.847  47.342  55.039  1.00  0.00     0.002 A 
HETATM   25  C   UNL     1      26.145  47.456  53.839  1.00  0.00     0.033 A 
ENDBRANCH   5  19
TORSDOF 5
ENDMDL
MODEL 8
REMARK VINA RESULT:      -7.5      4.441      6.272
REMARK  5 active torsions:
REMARK  status: ('A' for Active; 'I' for Inactive)
REMARK    1  A    between atoms: C_3  and  N_4 
REMARK       I    between atoms: N_4  and  C_5 
REMARK       I    between atoms: C_5  and  N_6 
REMARK    2  A    between atoms: N_6  and  C_7 
REMARK    3  A    between atoms: C_7  and  C_8 
REMARK    4  A    between atoms: C_8  and  C_9 
REMARK    5  A    between atoms: N_15  and  C_16 
ROOT
HETATM    1  C   UNL     1      23.769  42.686  49.956  1.00  0.00     0.054 C 
HETATM    2  C   UNL     1      25.125  42.921  50.505  1.00  0.00     0.003 A 
HETATM    3  C   UNL     1      26.387  42.759  49.882  1.00  0.00     0.159 A 
HETATM    4  N   UNL     1      27.388  43.043  50.719  1.00  0.00    -0.149 NA
HETATM    5  N   UNL     1      26.798  43.421  51.888  1.00  0.00    -0.241 N 
HETATM    6  C   UNL     1      25.431  43.324  51.788  1.00  0.00     0.129 A 
ENDROOT
BRANCH   3   7
HETATM    7  N   UNL     1      26.565  42.326  48.586  1.00  0.00    -0.291 N 
HETATM    8  C   UNL     1      27.301  41.279  48.125  1.00  0.00     0.321 C 
HETATM    9  N   UNL     1      28.084  40.623  49.023  1.00  0.00    -0.343 N 
HETATM   10  O   UNL     1      27.267  40.990  46.930  1.00  0.00    -0.247 OA
HETATM   11  H   UNL     1      27.896  40.856  49.999  1.00  0.00     0.164 HD
HETATM   12  H   UNL     1      26.075  42.819  47.857  1.00  0.00     0.172 HD
BRANCH   9  13
HETATM   13  C   UNL     1      28.847  39.437  48.696  1.00  0.00     0.133 C 
BRANCH  13  14
HETATM   14  C   UNL     1      28.536  38.270  49.622  1.00  0.00     0.137 C 
BRANCH  14  15
HETATM   15  C   UNL     1      29.735  37.950  50.477  1.00  0.00     0.389 C 
HETATM   16  F   UNL     1      29.718  36.669  50.904  1.00  0.00    -0.171 F 
HETATM   17  F   UNL     1      30.881  38.138  49.787  1.00  0.00    -0.171 F 
HETATM   18  F   UNL     1      29.782  38.746  51.568  1.00  0.00    -0.171 F 
ENDBRANCH  14  15
ENDBRANCH  13  14
ENDBRANCH   9  13
ENDBRANCH   3   7
BRANCH   5  19
HETATM   19  C   UNL     1      27.604  43.759  53.015  1.00  0.00     0.079 A 
HETATM   20  C   UNL     1      28.556  42.906  53.596  1.00  0.00     0.062 A 
HETATM   21 CL   UNL     1      28.771  41.234  53.208  1.00  0.00    -0.082 Cl
HETATM   22  C   UNL     1      29.347  43.369  54.660  1.00  0.00     0.026 A 
HETATM   23  C   UNL     1      29.192  44.660  55.164  1.00  0.00     0.002 A 
HETATM   24  C   UNL     1      28.228  45.497  54.619  1.00  0.00     0.002 A 
HETATM   25  C   UNL     1      27.436  45.051  53.561  1.00  0.00     0.033 A 
ENDBRANCH   5  19
TORSDOF 5
ENDMDL
MODEL 9
REMARK VINA RESULT:      -7.5      1.842      2.402
REMARK  5 active torsions:
REMARK  status: ('A' for Active; 'I' for Inactive)
REMARK    1  A    between atoms: C_3  and  N_4 
REMARK       I    between atoms: N_4  and  C_5 
REMARK       I    between atoms: C_5  and  N_6 
REMARK    2  A    between atoms: N_6  and  C_7 
REMARK    3  A    between atoms: C_7  and  C_8 
REMARK    4  A    between atoms: C_8  and  C_9 
REMARK    5  A    between atoms: N_15  and  C_16 
ROOT
HETATM    1  C   UNL     1      29.052  40.954  52.431  1.00  0.00     0.054 C 
HETATM    2  C   UNL     1      29.015  42.264  53.123  1.00  0.00     0.003 A 
HETATM    3  C   UNL     1      28.669  43.539  52.613  1.00  0.00     0.159 A 
HETATM    4  N   UNL     1      28.788  44.489  53.543  1.00  0.00    -0.149 NA
HETATM    5  N   UNL     1      29.183  43.848  54.679  1.00  0.00    -0.241 N 
HETATM    6  C   UNL     1      29.355  42.506  54.437  1.00  0.00     0.129 A 
ENDROOT
BRANCH   3   7
HETATM    7  N   UNL     1      28.293  43.780  51.309  1.00  0.00    -0.291 N 
HETATM    8  C   UNL     1      27.140  44.325  50.836  1.00  0.00     0.321 C 
HETATM    9  N   UNL     1      26.146  44.560  51.734  1.00  0.00    -0.343 N 
HETATM   10  O   UNL     1      27.020  44.546  49.632  1.00  0.00    -0.247 OA
HETATM   11  H   UNL     1      26.431  44.484  52.711  1.00  0.00     0.164 HD
HETATM   12  H   UNL     1      28.954  43.554  50.583  1.00  0.00     0.172 HD
BRANCH   9  13
HETATM   13  C   UNL     1      24.903  45.219  51.391  1.00  0.00     0.133 C 
BRANCH  13  14
HETATM   14  C   UNL     1      25.009  46.735  51.465  1.00  0.00     0.137 C 
BRANCH  14  15
HETATM   15  C   UNL     1      24.826  47.337  50.097  1.00  0.00     0.389 C 
HETATM   16  F   UNL     1      25.980  47.847  49.616  1.00  0.00    -0.171 F 
HETATM   17  F   UNL     1      24.389  46.409  49.218  1.00  0.00    -0.171 F 
HETATM   18  F   UNL     1      23.914  48.335  50.120  1.00  0.00    -0.171 F 
ENDBRANCH  14  15
ENDBRANCH  13  14
ENDBRANCH   9  13
ENDBRANCH   3   7
BRANCH   5  19
HETATM   19  C   UNL     1      29.438  44.596  55.866  1.00  0.00     0.079 A 
HETATM   20  C   UNL     1      30.559  44.420  56.692  1.00  0.00     0.062 A 
HETATM   21 CL   UNL     1      31.708  43.133  56.559  1.00  0.00    -0.082 Cl
HETATM   22  C   UNL     1      30.747  45.262  57.801  1.00  0.00     0.026 A 
HETATM   23  C   UNL     1      29.828  46.265  58.106  1.00  0.00     0.002 A 
HETATM   24  C   UNL     1      28.698  46.423  57.315  1.00  0.00     0.002 A 
HETATM   25  C   UNL     1      28.499  45.594  56.211  1.00  0.00     0.033 A 
ENDBRANCH   5  19
TORSDOF 5
ENDMDL
MODEL 10
REMARK VINA RESULT:      -7.3      4.196      5.840
REMARK  5 active torsions:
REMARK  status: ('A' for Active; 'I' for Inactive)
REMARK    1  A    between atoms: C_3  and  N_4 
REMARK       I    between atoms: N_4  and  C_5 
REMARK       I    between atoms: C_5  and  N_6 
REMARK    2  A    between atoms: N_6  and  C_7 
REMARK    3  A    between atoms: C_7  and  C_8 
REMARK    4  A    between atoms: C_8  and  C_9 
REMARK    5  A    between atoms: N_15  and  C_16 
ROOT
HETATM    1  C   UNL     1      24.030  42.827  50.447  1.00  0.00     0.054 C 
HETATM    2  C   UNL     1      25.335  43.281  50.984  1.00  0.00     0.003 A 
HETATM    3  C   UNL     1      26.613  43.256  50.375  1.00  0.00     0.159 A 
HETATM    4  N   UNL     1      27.557  43.727  51.194  1.00  0.00    -0.149 NA
HETATM    5  N   UNL     1      26.908  44.092  52.336  1.00  0.00    -0.241 N 
HETATM    6  C   UNL     1      25.568  43.802  52.239  1.00  0.00     0.129 A 
ENDROOT
BRANCH   3   7
HETATM    7  N   UNL     1      26.864  42.771  49.109  1.00  0.00    -0.291 N 
HETATM    8  C   UNL     1      27.184  41.507  48.722  1.00  0.00     0.321 C 
HETATM    9  N   UNL     1      27.423  40.596  49.704  1.00  0.00    -0.343 N 
HETATM   10  O   UNL     1      27.284  41.244  47.526  1.00  0.00    -0.247 OA
HETATM   11  H   UNL     1      27.149  40.899  50.639  1.00  0.00     0.164 HD
HETATM   12  H   UNL     1      26.782  43.415  48.338  1.00  0.00     0.172 HD
BRANCH   9  13
HETATM   13  C   UNL     1      27.682  39.195  49.442  1.00  0.00     0.133 C 
BRANCH  13  14
HETATM   14  C   UNL     1      29.166  38.897  49.284  1.00  0.00     0.137 C 
BRANCH  14  15
HETATM   15  C   UNL     1      29.698  38.231  50.525  1.00  0.00     0.389 C 
HETATM   16  F   UNL     1      31.035  38.053  50.464  1.00  0.00    -0.171 F 
HETATM   17  F   UNL     1      29.433  38.974  51.621  1.00  0.00    -0.171 F 
HETATM   18  F   UNL     1      29.131  37.018  50.710  1.00  0.00    -0.171 F 
ENDBRANCH  14  15
ENDBRANCH  13  14
ENDBRANCH   9  13
ENDBRANCH   3   7
BRANCH   5  19
HETATM   19  C   UNL     1      27.648  44.608  53.440  1.00  0.00     0.079 A 
HETATM   20  C   UNL     1      27.340  45.798  54.118  1.00  0.00     0.062 A 
HETATM   21 CL   UNL     1      26.164  46.962  53.612  1.00  0.00    -0.082 Cl
HETATM   22  C   UNL     1      28.095  46.176  55.240  1.00  0.00     0.026 A 
HETATM   23  C   UNL     1      29.161  45.395  55.686  1.00  0.00     0.002 A 
HETATM   24  C   UNL     1      29.495  44.235  55.001  1.00  0.00     0.002 A 
HETATM   25  C   UNL     1      28.753  43.848  53.885  1.00  0.00     0.033 A 
ENDBRANCH   5  19
TORSDOF 5
ENDMDL
