MODEL 1
REMARK VINA RESULT:      -9.8      0.000      0.000
REMARK  4 active torsions:
REMARK  status: ('A' for Active; 'I' for Inactive)
REMARK    1  A    between atoms: C_6  and  C_7 
REMARK    2  A    between atoms: C_7  and  N_8 
REMARK    3  A    between atoms: C_11  and  C_12 
REMARK    4  A    between atoms: C_12  and  C_13 
ROOT
HETATM    1  N   UNL     1      26.193  44.738  52.385  1.00  0.00    -0.064 N 
HETATM    2  H   UNL     1      26.821  45.544  52.568  1.00  0.00     0.280 HD
HETATM    3  C   UNL     1      25.941  44.131  53.749  1.00  0.00     0.247 C 
HETATM    4  C   UNL     1      27.275  43.793  54.428  1.00  0.00     0.086 C 
HETATM    5  C   UNL     1      28.143  42.909  53.524  1.00  0.00     0.016 C 
HETATM    6  C   UNL     1      28.278  43.457  52.101  1.00  0.00     0.029 C 
HETATM    7  C   UNL     1      26.930  43.794  51.475  1.00  0.00     0.235 C 
ENDROOT
BRANCH   1   8
HETATM    8  C   UNL     1      24.954  45.340  51.756  1.00  0.00     0.313 C 
BRANCH   8   9
HETATM    9  C   UNL     1      25.190  46.493  50.836  1.00  0.00     0.131 A 
HETATM   10  N   UNL     1      24.271  47.191  50.197  1.00  0.00    -0.232 NA
HETATM   11  C   UNL     1      24.951  48.169  49.510  1.00  0.00     0.085 A 
HETATM   12  C   UNL     1      26.318  48.059  49.727  1.00  0.00     0.062 A 
HETATM   13  C   UNL     1      24.463  49.191  48.686  1.00  0.00     0.034 A 
HETATM   14  C   UNL     1      27.254  48.925  49.159  1.00  0.00     0.032 A 
HETATM   15  N   UNL     1      26.449  46.979  50.564  1.00  0.00    -0.341 N 
HETATM   16  C   UNL     1      26.751  49.942  48.341  1.00  0.00     0.002 A 
HETATM   17  C   UNL     1      25.380  50.076  48.106  1.00  0.00     0.002 A 
HETATM   18  H   UNL     1      27.328  46.629  50.919  1.00  0.00     0.167 HD
ENDBRANCH   8   9
ENDBRANCH   1   8
BRANCH   4  19
HETATM   19  C   UNL     1      27.993  45.094  54.772  1.00  0.00     0.165 C 
HETATM   20  O   UNL     1      27.753  46.106  54.106  1.00  0.00    -0.292 OA
BRANCH  19  21
HETATM   21  C   UNL     1      28.988  45.146  55.887  1.00  0.00     0.012 A 
HETATM   22  C   UNL     1      30.087  44.284  55.957  1.00  0.00     0.039 A 
HETATM   23  C   UNL     1      30.973  44.376  57.033  1.00  0.00     0.035 A 
HETATM   24 CL   UNL     1      32.319  43.307  57.113  1.00  0.00    -0.084 Cl
HETATM   25  C   UNL     1      30.779  45.320  58.038  1.00  0.00     0.024 A 
HETATM   26  C   UNL     1      29.690  46.187  57.968  1.00  0.00     0.003 A 
HETATM   27  C   UNL     1      28.798  46.100  56.897  1.00  0.00     0.015 A 
ENDBRANCH  19  21
ENDBRANCH   4  19
TORSDOF 4
ENDMDL
MODEL 2
REMARK VINA RESULT:      -9.8      1.814      2.603
REMARK  4 active torsions:
REMARK  status: ('A' for Active; 'I' for Inactive)
REMARK    1  A    between atoms: C_6  and  C_7 
REMARK    2  A    between atoms: C_7  and  N_8 
REMARK    3  A    between atoms: C_11  and  C_12 
REMARK    4  A    between atoms: C_12  and  C_13 
ROOT
HETATM    1  N   UNL     1      27.588  42.241  50.978  1.00  0.00    -0.064 N 
HETATM    2  H   UNL     1      28.486  42.761  50.995  1.00  0.00     0.280 HD
HETATM    3  C   UNL     1      26.869  42.679  52.237  1.00  0.00     0.247 C 
HETATM    4  C   UNL     1      27.758  42.430  53.463  1.00  0.00     0.086 C 
HETATM    5  C   UNL     1      28.230  40.972  53.513  1.00  0.00     0.016 C 
HETATM    6  C   UNL     1      28.828  40.490  52.189  1.00  0.00     0.029 C 
HETATM    7  C   UNL     1      27.919  40.774  50.999  1.00  0.00     0.235 C 
ENDROOT
BRANCH   1   8
HETATM    8  C   UNL     1      26.898  42.686  49.706  1.00  0.00     0.313 C 
BRANCH   8   9
HETATM    9  C   UNL     1      26.444  44.110  49.681  1.00  0.00     0.131 A 
HETATM   10  N   UNL     1      27.214  45.181  49.676  1.00  0.00    -0.232 NA
HETATM   11  C   UNL     1      26.361  46.257  49.608  1.00  0.00     0.085 A 
HETATM   12  C   UNL     1      25.038  45.832  49.580  1.00  0.00     0.062 A 
HETATM   13  C   UNL     1      26.645  47.628  49.557  1.00  0.00     0.034 A 
HETATM   14  C   UNL     1      23.955  46.709  49.506  1.00  0.00     0.032 A 
HETATM   15  N   UNL     1      25.115  44.463  49.640  1.00  0.00    -0.341 N 
HETATM   16  C   UNL     1      24.257  48.075  49.453  1.00  0.00     0.002 A 
HETATM   17  C   UNL     1      25.577  48.530  49.479  1.00  0.00     0.002 A 
HETATM   18  H   UNL     1      24.318  43.841  49.637  1.00  0.00     0.167 HD
ENDBRANCH   8   9
ENDBRANCH   1   8
BRANCH   4  19
HETATM   19  C   UNL     1      28.945  43.387  53.409  1.00  0.00     0.165 C 
HETATM   20  O   UNL     1      29.445  43.662  52.314  1.00  0.00    -0.292 OA
BRANCH  19  21
HETATM   21  C   UNL     1      29.511  43.973  54.663  1.00  0.00     0.012 A 
HETATM   22  C   UNL     1      30.572  43.384  55.358  1.00  0.00     0.039 A 
HETATM   23  C   UNL     1      31.047  43.977  56.530  1.00  0.00     0.035 A 
HETATM   24 CL   UNL     1      32.350  43.242  57.381  1.00  0.00    -0.084 Cl
HETATM   25  C   UNL     1      30.478  45.151  57.017  1.00  0.00     0.024 A 
HETATM   26  C   UNL     1      29.425  45.745  56.324  1.00  0.00     0.003 A 
HETATM   27  C   UNL     1      28.944  45.159  55.152  1.00  0.00     0.015 A 
ENDBRANCH  19  21
ENDBRANCH   4  19
TORSDOF 4
ENDMDL
MODEL 3
REMARK VINA RESULT:      -9.6      3.354      7.929
REMARK  4 active torsions:
REMARK  status: ('A' for Active; 'I' for Inactive)
REMARK    1  A    between atoms: C_6  and  C_7 
REMARK    2  A    between atoms: C_7  and  N_8 
REMARK    3  A    between atoms: C_11  and  C_12 
REMARK    4  A    between atoms: C_12  and  C_13 
ROOT
HETATM    1  N   UNL     1      25.410  44.489  52.072  1.00  0.00    -0.064 N 
HETATM    2  H   UNL     1      25.038  45.431  52.299  1.00  0.00     0.280 HD
HETATM    3  C   UNL     1      26.690  44.756  51.309  1.00  0.00     0.247 C 
HETATM    4  C   UNL     1      26.403  45.665  50.105  1.00  0.00     0.086 C 
HETATM    5  C   UNL     1      25.288  45.082  49.230  1.00  0.00     0.016 C 
HETATM    6  C   UNL     1      24.046  44.680  50.029  1.00  0.00     0.029 C 
HETATM    7  C   UNL     1      24.382  43.793  51.223  1.00  0.00     0.235 C 
ENDROOT
BRANCH   1   8
HETATM    8  C   UNL     1      25.638  43.822  53.412  1.00  0.00     0.313 C 
BRANCH   8   9
HETATM    9  C   UNL     1      26.934  44.143  54.082  1.00  0.00     0.131 A 
HETATM   10  N   UNL     1      27.234  45.257  54.722  1.00  0.00    -0.232 NA
HETATM   11  C   UNL     1      28.510  45.082  55.203  1.00  0.00     0.085 A 
HETATM   12  C   UNL     1      29.003  43.836  54.841  1.00  0.00     0.062 A 
HETATM   13  C   UNL     1      29.308  45.944  55.967  1.00  0.00     0.034 A 
HETATM   14  C   UNL     1      30.275  43.383  55.199  1.00  0.00     0.032 A 
HETATM   15  N   UNL     1      27.989  43.260  54.118  1.00  0.00    -0.341 N 
HETATM   16  C   UNL     1      31.058  44.255  55.964  1.00  0.00     0.002 A 
HETATM   17  C   UNL     1      30.586  45.514  56.342  1.00  0.00     0.002 A 
HETATM   18  H   UNL     1      28.026  42.338  53.706  1.00  0.00     0.167 HD
ENDBRANCH   8   9
ENDBRANCH   1   8
BRANCH   4  19
HETATM   19  C   UNL     1      26.026  47.052  50.618  1.00  0.00     0.165 C 
HETATM   20  O   UNL     1      25.889  47.226  51.833  1.00  0.00    -0.292 OA
BRANCH  19  21
HETATM   21  C   UNL     1      25.806  48.184  49.667  1.00  0.00     0.012 A 
HETATM   22  C   UNL     1      24.532  48.583  49.251  1.00  0.00     0.039 A 
HETATM   23  C   UNL     1      24.396  49.641  48.350  1.00  0.00     0.035 A 
HETATM   24 CL   UNL     1      22.823  50.121  47.841  1.00  0.00    -0.084 Cl
HETATM   25  C   UNL     1      25.514  50.310  47.861  1.00  0.00     0.024 A 
HETATM   26  C   UNL     1      26.786  49.921  48.278  1.00  0.00     0.003 A 
HETATM   27  C   UNL     1      26.931  48.863  49.177  1.00  0.00     0.015 A 
ENDBRANCH  19  21
ENDBRANCH   4  19
TORSDOF 4
ENDMDL
MODEL 4
REMARK VINA RESULT:      -9.1      3.365      6.154
REMARK  4 active torsions:
REMARK  status: ('A' for Active; 'I' for Inactive)
REMARK    1  A    between atoms: C_6  and  C_7 
REMARK    2  A    between atoms: C_7  and  N_8 
REMARK    3  A    between atoms: C_11  and  C_12 
REMARK    4  A    between atoms: C_12  and  C_13 
ROOT
HETATM    1  N   UNL     1      26.074  42.944  51.673  1.00  0.00    -0.064 N 
HETATM    2  H   UNL     1      26.375  42.406  52.508  1.00  0.00     0.280 HD
HETATM    3  C   UNL     1      27.295  43.746  51.274  1.00  0.00     0.247 C 
HETATM    4  C   UNL     1      27.785  44.584  52.464  1.00  0.00     0.086 C 
HETATM    5  C   UNL     1      26.652  45.448  53.029  1.00  0.00     0.016 C 
HETATM    6  C   UNL     1      25.370  44.657  53.298  1.00  0.00     0.029 C 
HETATM    7  C   UNL     1      24.933  43.828  52.096  1.00  0.00     0.235 C 
ENDROOT
BRANCH   1   8
HETATM    8  C   UNL     1      25.682  41.898  50.651  1.00  0.00     0.313 C 
BRANCH   8   9
HETATM    9  C   UNL     1      26.734  40.891  50.320  1.00  0.00     0.131 A 
HETATM   10  N   UNL     1      27.028  40.425  49.121  1.00  0.00    -0.232 NA
HETATM   11  C   UNL     1      28.082  39.561  49.301  1.00  0.00     0.085 A 
HETATM   12  C   UNL     1      28.433  39.490  50.643  1.00  0.00     0.062 A 
HETATM   13  C   UNL     1      28.796  38.807  48.361  1.00  0.00     0.034 A 
HETATM   14  C   UNL     1      29.476  38.693  51.119  1.00  0.00     0.032 A 
HETATM   15  N   UNL     1      27.555  40.335  51.274  1.00  0.00    -0.341 N 
HETATM   16  C   UNL     1      30.181  37.949  50.167  1.00  0.00     0.002 A 
HETATM   17  C   UNL     1      29.849  38.001  48.811  1.00  0.00     0.002 A 
HETATM   18  H   UNL     1      27.543  40.515  52.269  1.00  0.00     0.167 HD
ENDBRANCH   8   9
ENDBRANCH   1   8
BRANCH   4  19
HETATM   19  C   UNL     1      28.339  43.644  53.530  1.00  0.00     0.165 C 
HETATM   20  O   UNL     1      28.135  42.430  53.424  1.00  0.00    -0.292 OA
BRANCH  19  21
HETATM   21  C   UNL     1      29.103  44.179  54.697  1.00  0.00     0.012 A 
HETATM   22  C   UNL     1      30.187  43.501  55.264  1.00  0.00     0.039 A 
HETATM   23  C   UNL     1      30.852  44.051  56.362  1.00  0.00     0.035 A 
HETATM   24 CL   UNL     1      32.181  43.206  57.055  1.00  0.00    -0.084 Cl
HETATM   25  C   UNL     1      30.451  45.270  56.902  1.00  0.00     0.024 A 
HETATM   26  C   UNL     1      29.376  45.953  56.336  1.00  0.00     0.003 A 
HETATM   27  C   UNL     1      28.705  45.410  55.238  1.00  0.00     0.015 A 
ENDBRANCH  19  21
ENDBRANCH   4  19
TORSDOF 4
ENDMDL
MODEL 5
REMARK VINA RESULT:      -9.1      2.966      7.475
REMARK  4 active torsions:
REMARK  status: ('A' for Active; 'I' for Inactive)
REMARK    1  A    between atoms: C_6  and  C_7 
REMARK    2  A    between atoms: C_7  and  N_8 
REMARK    3  A    between atoms: C_11  and  C_12 
REMARK    4  A    between atoms: C_12  and  C_13 
ROOT
HETATM    1  N   UNL     1      26.557  46.150  53.579  1.00  0.00    -0.064 N 
HETATM    2  H   UNL     1      27.398  45.750  53.121  1.00  0.00     0.280 HD
HETATM    3  C   UNL     1      25.683  44.952  53.887  1.00  0.00     0.247 C 
HETATM    4  C   UNL     1      25.424  44.148  52.605  1.00  0.00     0.086 C 
HETATM    5  C   UNL     1      24.852  45.045  51.501  1.00  0.00     0.016 C 
HETATM    6  C   UNL     1      25.661  46.327  51.290  1.00  0.00     0.029 C 
HETATM    7  C   UNL     1      25.908  47.081  52.592  1.00  0.00     0.235 C 
ENDROOT
BRANCH   1   8
HETATM    8  C   UNL     1      27.077  46.849  54.817  1.00  0.00     0.313 C 
BRANCH   8   9
HETATM    9  C   UNL     1      28.223  46.179  55.504  1.00  0.00     0.131 A 
HETATM   10  N   UNL     1      28.629  46.388  56.742  1.00  0.00    -0.232 NA
HETATM   11  C   UNL     1      29.678  45.524  56.945  1.00  0.00     0.085 A 
HETATM   12  C   UNL     1      29.925  44.777  55.800  1.00  0.00     0.062 A 
HETATM   13  C   UNL     1      30.463  45.316  58.086  1.00  0.00     0.034 A 
HETATM   14  C   UNL     1      30.932  43.813  55.719  1.00  0.00     0.032 A 
HETATM   15  N   UNL     1      28.995  45.219  54.893  1.00  0.00    -0.341 N 
HETATM   16  C   UNL     1      31.705  43.616  56.869  1.00  0.00     0.002 A 
HETATM   17  C   UNL     1      31.478  44.353  58.033  1.00  0.00     0.002 A 
HETATM   18  H   UNL     1      28.903  44.872  53.948  1.00  0.00     0.167 HD
ENDBRANCH   8   9
ENDBRANCH   1   8
BRANCH   4  19
HETATM   19  C   UNL     1      26.732  43.500  52.160  1.00  0.00     0.165 C 
HETATM   20  O   UNL     1      27.802  44.025  52.482  1.00  0.00    -0.292 OA
BRANCH  19  21
HETATM   21  C   UNL     1      26.724  42.256  51.331  1.00  0.00     0.012 A 
HETATM   22  C   UNL     1      27.778  41.337  51.340  1.00  0.00     0.039 A 
HETATM   23  C   UNL     1      27.714  40.200  50.531  1.00  0.00     0.035 A 
HETATM   24 CL   UNL     1      29.019  39.078  50.546  1.00  0.00    -0.084 Cl
HETATM   25  C   UNL     1      26.610  39.966  49.716  1.00  0.00     0.024 A 
HETATM   26  C   UNL     1      25.554  40.875  49.709  1.00  0.00     0.003 A 
HETATM   27  C   UNL     1      25.610  42.015  50.513  1.00  0.00     0.015 A 
ENDBRANCH  19  21
ENDBRANCH   4  19
TORSDOF 4
ENDMDL
MODEL 6
REMARK VINA RESULT:      -8.8      1.994      2.989
REMARK  4 active torsions:
REMARK  status: ('A' for Active; 'I' for Inactive)
REMARK    1  A    between atoms: C_6  and  C_7 
REMARK    2  A    between atoms: C_7  and  N_8 
REMARK    3  A    between atoms: C_11  and  C_12 
REMARK    4  A    between atoms: C_12  and  C_13 
ROOT
HETATM    1  N   UNL     1      24.990  44.735  50.405  1.00  0.00    -0.064 N 
HETATM    2  H   UNL     1      25.039  45.418  51.185  1.00  0.00     0.280 HD
HETATM    3  C   UNL     1      24.999  43.380  51.082  1.00  0.00     0.247 C 
HETATM    4  C   UNL     1      26.226  43.259  51.997  1.00  0.00     0.086 C 
HETATM    5  C   UNL     1      27.517  43.558  51.226  1.00  0.00     0.016 C 
HETATM    6  C   UNL     1      27.451  44.862  50.427  1.00  0.00     0.029 C 
HETATM    7  C   UNL     1      26.208  44.945  49.548  1.00  0.00     0.235 C 
ENDROOT
BRANCH   1   8
HETATM    8  C   UNL     1      23.690  45.042  49.693  1.00  0.00     0.313 C 
BRANCH   8   9
HETATM    9  C   UNL     1      23.455  46.481  49.366  1.00  0.00     0.131 A 
HETATM   10  N   UNL     1      24.356  47.446  49.370  1.00  0.00    -0.232 NA
HETATM   11  C   UNL     1      23.693  48.580  48.967  1.00  0.00     0.085 A 
HETATM   12  C   UNL     1      22.355  48.304  48.720  1.00  0.00     0.062 A 
HETATM   13  C   UNL     1      24.174  49.883  48.781  1.00  0.00     0.034 A 
HETATM   14  C   UNL     1      21.442  49.269  48.290  1.00  0.00     0.032 A 
HETATM   15  N   UNL     1      22.223  46.965  48.992  1.00  0.00    -0.341 N 
HETATM   16  C   UNL     1      21.939  50.564  48.106  1.00  0.00     0.002 A 
HETATM   17  C   UNL     1      23.280  50.869  48.347  1.00  0.00     0.002 A 
HETATM   18  H   UNL     1      21.362  46.443  48.908  1.00  0.00     0.167 HD
ENDBRANCH   8   9
ENDBRANCH   1   8
BRANCH   4  19
HETATM   19  C   UNL     1      26.057  44.216  53.172  1.00  0.00     0.165 C 
HETATM   20  O   UNL     1      24.926  44.626  53.455  1.00  0.00    -0.292 OA
BRANCH  19  21
HETATM   21  C   UNL     1      27.241  44.670  53.964  1.00  0.00     0.012 A 
HETATM   22  C   UNL     1      28.269  43.803  54.347  1.00  0.00     0.039 A 
HETATM   23  C   UNL     1      29.342  44.288  55.097  1.00  0.00     0.035 A 
HETATM   24 CL   UNL     1      30.599  43.212  55.569  1.00  0.00    -0.084 Cl
HETATM   25  C   UNL     1      29.406  45.629  55.467  1.00  0.00     0.024 A 
HETATM   26  C   UNL     1      28.387  46.499  55.081  1.00  0.00     0.003 A 
HETATM   27  C   UNL     1      27.310  46.022  54.332  1.00  0.00     0.015 A 
ENDBRANCH  19  21
ENDBRANCH   4  19
TORSDOF 4
ENDMDL
MODEL 7
REMARK VINA RESULT:      -8.7      1.882      3.131
REMARK  4 active torsions:
REMARK  status: ('A' for Active; 'I' for Inactive)
REMARK    1  A    between atoms: C_6  and  C_7 
REMARK    2  A    between atoms: C_7  and  N_8 
REMARK    3  A    between atoms: C_11  and  C_12 
REMARK    4  A    between atoms: C_12  and  C_13 
ROOT
HETATM    1  N   UNL     1      26.057  45.993  50.972  1.00  0.00    -0.064 N 
HETATM    2  H   UNL     1      26.792  45.272  50.838  1.00  0.00     0.280 HD
HETATM    3  C   UNL     1      26.379  46.624  52.311  1.00  0.00     0.247 C 
HETATM    4  C   UNL     1      26.454  45.542  53.397  1.00  0.00     0.086 C 
HETATM    5  C   UNL     1      25.175  44.697  53.419  1.00  0.00     0.016 C 
HETATM    6  C   UNL     1      24.774  44.178  52.036  1.00  0.00     0.029 C 
HETATM    7  C   UNL     1      24.731  45.284  50.988  1.00  0.00     0.235 C 
ENDROOT
BRANCH   1   8
HETATM    8  C   UNL     1      26.220  46.943  49.805  1.00  0.00     0.313 C 
BRANCH   8   9
HETATM    9  C   UNL     1      25.060  47.846  49.539  1.00  0.00     0.131 A 
HETATM   10  N   UNL     1      25.111  49.144  49.302  1.00  0.00    -0.232 NA
HETATM   11  C   UNL     1      23.814  49.536  49.075  1.00  0.00     0.085 A 
HETATM   12  C   UNL     1      22.949  48.455  49.186  1.00  0.00     0.062 A 
HETATM   13  C   UNL     1      23.300  50.801  48.761  1.00  0.00     0.034 A 
HETATM   14  C   UNL     1      21.569  48.557  49.000  1.00  0.00     0.032 A 
HETATM   15  N   UNL     1      23.762  47.393  49.493  1.00  0.00    -0.341 N 
HETATM   16  C   UNL     1      21.072  49.827  48.683  1.00  0.00     0.002 A 
HETATM   17  C   UNL     1      21.920  50.931  48.566  1.00  0.00     0.002 A 
HETATM   18  H   UNL     1      23.442  46.445  49.640  1.00  0.00     0.167 HD
ENDBRANCH   8   9
ENDBRANCH   1   8
BRANCH   4  19
HETATM   19  C   UNL     1      27.680  44.671  53.137  1.00  0.00     0.165 C 
HETATM   20  O   UNL     1      27.798  44.112  52.041  1.00  0.00    -0.292 OA
BRANCH  19  21
HETATM   21  C   UNL     1      28.718  44.478  54.195  1.00  0.00     0.012 A 
HETATM   22  C   UNL     1      28.828  45.320  55.306  1.00  0.00     0.039 A 
HETATM   23  C   UNL     1      29.829  45.092  56.253  1.00  0.00     0.035 A 
HETATM   24 CL   UNL     1      29.959  46.137  57.613  1.00  0.00    -0.084 Cl
HETATM   25  C   UNL     1      30.719  44.031  56.108  1.00  0.00     0.024 A 
HETATM   26  C   UNL     1      30.609  43.184  55.007  1.00  0.00     0.003 A 
HETATM   27  C   UNL     1      29.612  43.406  54.054  1.00  0.00     0.015 A 
ENDBRANCH  19  21
ENDBRANCH   4  19
TORSDOF 4
ENDMDL
MODEL 8
REMARK VINA RESULT:      -8.7      3.386      8.307
REMARK  4 active torsions:
REMARK  status: ('A' for Active; 'I' for Inactive)
REMARK    1  A    between atoms: C_6  and  C_7 
REMARK    2  A    between atoms: C_7  and  N_8 
REMARK    3  A    between atoms: C_11  and  C_12 
REMARK    4  A    between atoms: C_12  and  C_13 
ROOT
HETATM    1  N   UNL     1      27.207  44.846  52.536  1.00  0.00    -0.064 N 
HETATM    2  H   UNL     1      27.868  45.334  51.902  1.00  0.00     0.280 HD
HETATM    3  C   UNL     1      26.010  44.524  51.667  1.00  0.00     0.247 C 
HETATM    4  C   UNL     1      25.478  45.805  51.011  1.00  0.00     0.086 C 
HETATM    5  C   UNL     1      25.188  46.881  52.063  1.00  0.00     0.016 C 
HETATM    6  C   UNL     1      26.353  47.103  53.031  1.00  0.00     0.029 C 
HETATM    7  C   UNL     1      26.859  45.802  53.643  1.00  0.00     0.235 C 
ENDROOT
BRANCH   1   8
HETATM    8  C   UNL     1      27.953  43.617  53.011  1.00  0.00     0.313 C 
BRANCH   8   9
HETATM    9  C   UNL     1      28.813  43.809  54.218  1.00  0.00     0.131 A 
HETATM   10  N   UNL     1      29.787  43.016  54.625  1.00  0.00    -0.232 NA
HETATM   11  C   UNL     1      30.316  43.614  55.744  1.00  0.00     0.085 A 
HETATM   12  C   UNL     1      29.643  44.794  56.033  1.00  0.00     0.062 A 
HETATM   13  C   UNL     1      31.379  43.208  56.561  1.00  0.00     0.034 A 
HETATM   14  C   UNL     1      29.971  45.616  57.113  1.00  0.00     0.032 A 
HETATM   15  N   UNL     1      28.684  44.892  55.056  1.00  0.00    -0.341 N 
HETATM   16  C   UNL     1      31.037  45.198  57.917  1.00  0.00     0.002 A 
HETATM   17  C   UNL     1      31.731  44.016  57.649  1.00  0.00     0.002 A 
HETATM   18  H   UNL     1      28.018  45.648  54.977  1.00  0.00     0.167 HD
ENDBRANCH   8   9
ENDBRANCH   1   8
BRANCH   4  19
HETATM   19  C   UNL     1      26.503  46.297  49.994  1.00  0.00     0.165 C 
HETATM   20  O   UNL     1      27.410  45.537  49.640  1.00  0.00    -0.292 OA
BRANCH  19  21
HETATM   21  C   UNL     1      26.427  47.685  49.443  1.00  0.00     0.012 A 
HETATM   22  C   UNL     1      25.225  48.268  49.031  1.00  0.00     0.039 A 
HETATM   23  C   UNL     1      25.225  49.565  48.513  1.00  0.00     0.035 A 
HETATM   24 CL   UNL     1      23.741  50.272  48.004  1.00  0.00    -0.084 Cl
HETATM   25  C   UNL     1      26.408  50.290  48.405  1.00  0.00     0.024 A 
HETATM   26  C   UNL     1      27.608  49.717  48.822  1.00  0.00     0.003 A 
HETATM   27  C   UNL     1      27.617  48.419  49.339  1.00  0.00     0.015 A 
ENDBRANCH  19  21
ENDBRANCH   4  19
TORSDOF 4
ENDMDL
MODEL 9
REMARK VINA RESULT:      -8.7      3.689      7.750
REMARK  4 active torsions:
REMARK  status: ('A' for Active; 'I' for Inactive)
REMARK    1  A    between atoms: C_6  and  C_7 
REMARK    2  A    between atoms: C_7  and  N_8 
REMARK    3  A    between atoms: C_11  and  C_12 
REMARK    4  A    between atoms: C_12  and  C_13 
ROOT
HETATM    1  N   UNL     1      26.468  44.826  52.031  1.00  0.00    -0.064 N 
HETATM    2  H   UNL     1      27.357  44.294  51.964  1.00  0.00     0.280 HD
HETATM    3  C   UNL     1      25.393  43.764  52.135  1.00  0.00     0.247 C 
HETATM    4  C   UNL     1      25.498  42.793  50.951  1.00  0.00     0.086 C 
HETATM    5  C   UNL     1      25.474  43.549  49.618  1.00  0.00     0.016 C 
HETATM    6  C   UNL     1      26.466  44.713  49.570  1.00  0.00     0.029 C 
HETATM    7  C   UNL     1      26.337  45.640  50.773  1.00  0.00     0.235 C 
ENDROOT
BRANCH   1   8
HETATM    8  C   UNL     1      26.607  45.666  53.283  1.00  0.00     0.313 C 
BRANCH   8   9
HETATM    9  C   UNL     1      27.756  45.317  54.172  1.00  0.00     0.131 A 
HETATM   10  N   UNL     1      28.170  45.995  55.226  1.00  0.00    -0.232 NA
HETATM   11  C   UNL     1      29.219  45.277  55.747  1.00  0.00     0.085 A 
HETATM   12  C   UNL     1      29.457  44.137  54.989  1.00  0.00     0.062 A 
HETATM   13  C   UNL     1      30.011  45.533  56.874  1.00  0.00     0.034 A 
HETATM   14  C   UNL     1      30.462  43.215  55.289  1.00  0.00     0.032 A 
HETATM   15  N   UNL     1      28.522  44.190  53.986  1.00  0.00    -0.341 N 
HETATM   16  C   UNL     1      31.241  43.485  56.419  1.00  0.00     0.002 A 
HETATM   17  C   UNL     1      31.024  44.622  57.200  1.00  0.00     0.002 A 
HETATM   18  H   UNL     1      28.423  43.499  53.255  1.00  0.00     0.167 HD
ENDBRANCH   8   9
ENDBRANCH   1   8
BRANCH   4  19
HETATM   19  C   UNL     1      26.782  41.981  51.096  1.00  0.00     0.165 C 
HETATM   20  O   UNL     1      27.538  42.218  52.043  1.00  0.00    -0.292 OA
BRANCH  19  21
HETATM   21  C   UNL     1      27.133  40.925  50.099  1.00  0.00     0.012 A 
HETATM   22  C   UNL     1      26.680  39.606  50.205  1.00  0.00     0.039 A 
HETATM   23  C   UNL     1      27.056  38.664  49.245  1.00  0.00     0.035 A 
HETATM   24 CL   UNL     1      26.497  37.042  49.388  1.00  0.00    -0.084 Cl
HETATM   25  C   UNL     1      27.875  39.021  48.177  1.00  0.00     0.024 A 
HETATM   26  C   UNL     1      28.323  40.335  48.062  1.00  0.00     0.003 A 
HETATM   27  C   UNL     1      27.953  41.284  49.019  1.00  0.00     0.015 A 
ENDBRANCH  19  21
ENDBRANCH   4  19
TORSDOF 4
ENDMDL
MODEL 10
REMARK VINA RESULT:      -8.5      3.621      8.585
REMARK  4 active torsions:
REMARK  status: ('A' for Active; 'I' for Inactive)
REMARK    1  A    between atoms: C_6  and  C_7 
REMARK    2  A    between atoms: C_7  and  N_8 
REMARK    3  A    between atoms: C_11  and  C_12 
REMARK    4  A    between atoms: C_12  and  C_13 
ROOT
HETATM    1  N   UNL     1      26.120  44.923  51.892  1.00  0.00    -0.064 N 
HETATM    2  H   UNL     1      25.276  44.590  51.388  1.00  0.00     0.280 HD
HETATM    3  C   UNL     1      25.908  46.414  52.050  1.00  0.00     0.247 C 
HETATM    4  C   UNL     1      25.656  47.056  50.678  1.00  0.00     0.086 C 
HETATM    5  C   UNL     1      26.779  46.706  49.694  1.00  0.00     0.016 C 
HETATM    6  C   UNL     1      27.087  45.208  49.644  1.00  0.00     0.029 C 
HETATM    7  C   UNL     1      27.311  44.611  51.029  1.00  0.00     0.235 C 
ENDROOT
BRANCH   1   8
HETATM    8  C   UNL     1      26.113  44.173  53.207  1.00  0.00     0.313 C 
BRANCH   8   9
HETATM    9  C   UNL     1      27.339  44.330  54.048  1.00  0.00     0.131 A 
HETATM   10  N   UNL     1      27.574  45.289  54.924  1.00  0.00    -0.232 NA
HETATM   11  C   UNL     1      28.797  44.999  55.479  1.00  0.00     0.085 A 
HETATM   12  C   UNL     1      29.326  43.842  54.922  1.00  0.00     0.062 A 
HETATM   13  C   UNL     1      29.516  45.677  56.472  1.00  0.00     0.034 A 
HETATM   14  C   UNL     1      30.558  43.305  55.300  1.00  0.00     0.032 A 
HETATM   15  N   UNL     1      28.387  43.440  54.006  1.00  0.00    -0.341 N 
HETATM   16  C   UNL     1      31.262  43.992  56.296  1.00  0.00     0.002 A 
HETATM   17  C   UNL     1      30.753  45.158  56.873  1.00  0.00     0.002 A 
HETATM   18  H   UNL     1      28.466  42.618  53.422  1.00  0.00     0.167 HD
ENDBRANCH   8   9
ENDBRANCH   1   8
BRANCH   4  19
HETATM   19  C   UNL     1      24.304  46.582  50.156  1.00  0.00     0.165 C 
HETATM   20  O   UNL     1      23.918  45.443  50.436  1.00  0.00    -0.292 OA
BRANCH  19  21
HETATM   21  C   UNL     1      23.461  47.472  49.300  1.00  0.00     0.012 A 
HETATM   22  C   UNL     1      23.623  48.861  49.268  1.00  0.00     0.039 A 
HETATM   23  C   UNL     1      22.794  49.637  48.455  1.00  0.00     0.035 A 
HETATM   24 CL   UNL     1      22.998  51.345  48.426  1.00  0.00    -0.084 Cl
HETATM   25  C   UNL     1      21.807  49.046  47.671  1.00  0.00     0.024 A 
HETATM   26  C   UNL     1      21.647  47.661  47.694  1.00  0.00     0.003 A 
HETATM   27  C   UNL     1      22.470  46.878  48.504  1.00  0.00     0.015 A 
ENDBRANCH  19  21
ENDBRANCH   4  19
TORSDOF 4
ENDMDL
