MODEL 1
REMARK VINA RESULT:      -7.6      0.000      0.000
REMARK  5 active torsions:
REMARK  status: ('A' for Active; 'I' for Inactive)
REMARK    1  A    between atoms: C_2  and  O_3 
REMARK    2  A    between atoms: O_3  and  C_4 
REMARK    3  A    between atoms: C_4  and  C_5 
REMARK    4  A    between atoms: C_6  and  C_7 
REMARK    5  A    between atoms: C_22  and  N_23 
ROOT
HETATM    1  C   UNL     1      27.516  42.585  51.904  1.00  0.00     0.075 A 
HETATM    2  C   UNL     1      26.963  43.871  52.130  1.00  0.00     0.008 A 
HETATM    3  C   UNL     1      27.431  44.618  53.249  1.00  0.00     0.045 A 
HETATM    4  C   UNL     1      28.382  43.975  54.062  1.00  0.00     0.143 A 
HETATM    5  N   UNL     1      28.809  44.559  55.246  1.00  0.00    -0.306 N 
HETATM    6  C   UNL     1      28.335  45.731  55.744  1.00  0.00     0.268 A 
HETATM    7  O   UNL     1      28.698  46.159  56.833  1.00  0.00    -0.266 OA
HETATM    8  C   UNL     1      27.388  46.466  54.881  1.00  0.00     0.120 A 
HETATM    9  C   UNL     1      26.869  47.805  55.377  1.00  0.00     0.027 C 
HETATM   10  N   UNL     1      26.439  48.917  55.790  1.00  0.00    -0.096 N 
HETATM   11  C   UNL     1      26.987  45.995  53.676  1.00  0.00     0.046 A 
HETATM   12  N   UNL     1      28.920  42.759  53.833  1.00  0.00    -0.234 NA
HETATM   13  C   UNL     1      28.485  42.069  52.758  1.00  0.00     0.050 A 
HETATM   14  C   UNL     1      29.086  40.707  52.560  1.00  0.00     0.071 C 
HETATM   15  H   UNL     1      29.460  44.028  55.808  1.00  0.00     0.170 HD
ENDROOT
BRANCH  11  16
HETATM   16  N   UNL     1      26.174  46.721  52.815  1.00  0.00    -0.301 NA
HETATM   17  H   UNL     1      25.852  46.241  51.975  1.00  0.00     0.124 HD
HETATM   18  H   UNL     1      25.395  47.197  53.263  1.00  0.00     0.124 HD
ENDBRANCH  11  16
BRANCH   2  19
HETATM   19  C   UNL     1      25.901  44.342  51.218  1.00  0.00    -0.024 A 
HETATM   20  C   UNL     1      24.554  44.031  51.464  1.00  0.00     0.014 A 
HETATM   21  C   UNL     1      23.546  44.484  50.607  1.00  0.00     0.024 A 
HETATM   22  C   UNL     1      23.879  45.243  49.489  1.00  0.00     0.034 A 
HETATM   23 CL   UNL     1      22.640  45.807  48.438  1.00  0.00    -0.084 Cl
HETATM   24  C   UNL     1      25.210  45.550  49.216  1.00  0.00     0.024 A 
HETATM   25  C   UNL     1      26.217  45.100  50.075  1.00  0.00     0.014 A 
ENDBRANCH   2  19
BRANCH   1  26
HETATM   26  C   UNL     1      27.019  41.729  50.815  1.00  0.00     0.296 C 
HETATM   27  O   UNL     1      26.135  40.905  50.958  1.00  0.00    -0.259 OA
BRANCH  26  28
HETATM   28  O   UNL     1      27.745  41.999  49.706  1.00  0.00    -0.318 OA
BRANCH  28  29
HETATM   29  C   UNL     1      27.645  41.046  48.637  1.00  0.00     0.174 C 
HETATM   30  C   UNL     1      28.770  40.039  48.774  1.00  0.00     0.034 C 
ENDBRANCH  28  29
ENDBRANCH  26  28
ENDBRANCH   1  26
TORSDOF 5
ENDMDL
MODEL 2
REMARK VINA RESULT:      -7.4      3.006      6.035
REMARK  5 active torsions:
REMARK  status: ('A' for Active; 'I' for Inactive)
REMARK    1  A    between atoms: C_2  and  O_3 
REMARK    2  A    between atoms: O_3  and  C_4 
REMARK    3  A    between atoms: C_4  and  C_5 
REMARK    4  A    between atoms: C_6  and  C_7 
REMARK    5  A    between atoms: C_22  and  N_23 
ROOT
HETATM    1  C   UNL     1      26.593  43.161  52.324  1.00  0.00     0.075 A 
HETATM    2  C   UNL     1      26.181  42.431  51.179  1.00  0.00     0.008 A 
HETATM    3  C   UNL     1      26.902  41.252  50.835  1.00  0.00     0.045 A 
HETATM    4  C   UNL     1      28.002  40.944  51.656  1.00  0.00     0.143 A 
HETATM    5  N   UNL     1      28.848  39.892  51.337  1.00  0.00    -0.306 N 
HETATM    6  C   UNL     1      28.736  39.121  50.223  1.00  0.00     0.268 A 
HETATM    7  O   UNL     1      29.559  38.253  49.958  1.00  0.00    -0.266 OA
HETATM    8  C   UNL     1      27.551  39.373  49.378  1.00  0.00     0.120 A 
HETATM    9  C   UNL     1      27.360  38.502  48.147  1.00  0.00     0.027 C 
HETATM   10  N   UNL     1      27.203  37.778  47.126  1.00  0.00    -0.096 N 
HETATM   11  C   UNL     1      26.640  40.331  49.670  1.00  0.00     0.046 A 
HETATM   12  N   UNL     1      28.380  41.628  52.756  1.00  0.00    -0.234 NA
HETATM   13  C   UNL     1      27.677  42.732  53.085  1.00  0.00     0.050 A 
HETATM   14  C   UNL     1      28.152  43.482  54.296  1.00  0.00     0.071 C 
HETATM   15  H   UNL     1      29.646  39.747  51.941  1.00  0.00     0.170 HD
ENDROOT
BRANCH  11  16
HETATM   16  N   UNL     1      25.474  40.512  48.937  1.00  0.00    -0.301 NA
HETATM   17  H   UNL     1      25.356  41.415  48.480  1.00  0.00     0.124 HD
HETATM   18  H   UNL     1      25.259  39.762  48.286  1.00  0.00     0.124 HD
ENDBRANCH  11  16
BRANCH   2  19
HETATM   19  C   UNL     1      25.056  42.965  50.384  1.00  0.00    -0.024 A 
HETATM   20  C   UNL     1      23.729  42.655  50.721  1.00  0.00     0.014 A 
HETATM   21  C   UNL     1      22.663  43.168  49.977  1.00  0.00     0.024 A 
HETATM   22  C   UNL     1      22.915  43.985  48.878  1.00  0.00     0.034 A 
HETATM   23 CL   UNL     1      21.605  44.622  47.965  1.00  0.00    -0.084 Cl
HETATM   24  C   UNL     1      24.224  44.292  48.515  1.00  0.00     0.024 A 
HETATM   25  C   UNL     1      25.290  43.783  49.263  1.00  0.00     0.014 A 
ENDBRANCH   2  19
BRANCH   1  26
HETATM   26  C   UNL     1      25.945  44.430  52.687  1.00  0.00     0.296 C 
HETATM   27  O   UNL     1      24.972  44.503  53.414  1.00  0.00    -0.259 OA
BRANCH  26  28
HETATM   28  O   UNL     1      26.587  45.429  52.038  1.00  0.00    -0.318 OA
BRANCH  28  29
HETATM   29  C   UNL     1      26.022  46.741  52.179  1.00  0.00     0.174 C 
HETATM   30  C   UNL     1      25.077  46.992  51.021  1.00  0.00     0.034 C 
ENDBRANCH  28  29
ENDBRANCH  26  28
ENDBRANCH   1  26
TORSDOF 5
ENDMDL
MODEL 3
REMARK VINA RESULT:      -7.3      2.896      5.973
REMARK  5 active torsions:
REMARK  status: ('A' for Active; 'I' for Inactive)
REMARK    1  A    between atoms: C_2  and  O_3 
REMARK    2  A    between atoms: O_3  and  C_4 
REMARK    3  A    between atoms: C_4  and  C_5 
REMARK    4  A    between atoms: C_6  and  C_7 
REMARK    5  A    between atoms: C_22  and  N_23 
ROOT
HETATM    1  C   UNL     1      27.512  42.897  52.639  1.00  0.00     0.075 A 
HETATM    2  C   UNL     1      27.106  42.955  51.281  1.00  0.00     0.008 A 
HETATM    3  C   UNL     1      27.506  41.900  50.413  1.00  0.00     0.045 A 
HETATM    4  C   UNL     1      28.318  40.906  50.988  1.00  0.00     0.143 A 
HETATM    5  N   UNL     1      28.869  39.902  50.203  1.00  0.00    -0.306 N 
HETATM    6  C   UNL     1      28.729  39.812  48.855  1.00  0.00     0.268 A 
HETATM    7  O   UNL     1      29.301  38.944  48.207  1.00  0.00    -0.266 OA
HETATM    8  C   UNL     1      27.825  40.799  48.230  1.00  0.00     0.120 A 
HETATM    9  C   UNL     1      27.601  40.706  46.729  1.00  0.00     0.027 C 
HETATM   10  N   UNL     1      27.416  40.626  45.484  1.00  0.00    -0.096 N 
HETATM   11  C   UNL     1      27.190  41.758  48.945  1.00  0.00     0.046 A 
HETATM   12  N   UNL     1      28.686  40.843  52.284  1.00  0.00    -0.234 NA
HETATM   13  C   UNL     1      28.285  41.837  53.104  1.00  0.00     0.050 A 
HETATM   14  C   UNL     1      28.745  41.745  54.530  1.00  0.00     0.071 C 
HETATM   15  H   UNL     1      29.479  39.243  50.667  1.00  0.00     0.170 HD
ENDROOT
BRANCH  11  16
HETATM   16  N   UNL     1      26.264  42.629  48.383  1.00  0.00    -0.301 NA
HETATM   17  H   UNL     1      25.597  42.226  47.726  1.00  0.00     0.124 HD
HETATM   18  H   UNL     1      25.780  43.225  49.049  1.00  0.00     0.124 HD
ENDBRANCH  11  16
BRANCH   2  19
HETATM   19  C   UNL     1      26.330  44.131  50.838  1.00  0.00    -0.024 A 
HETATM   20  C   UNL     1      24.932  44.160  50.969  1.00  0.00     0.014 A 
HETATM   21  C   UNL     1      24.198  45.277  50.560  1.00  0.00     0.024 A 
HETATM   22  C   UNL     1      24.854  46.371  50.003  1.00  0.00     0.034 A 
HETATM   23 CL   UNL     1      23.953  47.748  49.505  1.00  0.00    -0.084 Cl
HETATM   24  C   UNL     1      26.238  46.358  49.847  1.00  0.00     0.024 A 
HETATM   25  C   UNL     1      26.973  45.242  50.261  1.00  0.00     0.014 A 
ENDBRANCH   2  19
BRANCH   1  26
HETATM   26  C   UNL     1      27.202  43.995  53.569  1.00  0.00     0.296 C 
HETATM   27  O   UNL     1      26.141  44.099  54.155  1.00  0.00    -0.259 OA
BRANCH  26  28
HETATM   28  O   UNL     1      28.262  44.836  53.591  1.00  0.00    -0.318 OA
BRANCH  28  29
HETATM   29  C   UNL     1      28.355  45.707  54.728  1.00  0.00     0.174 C 
HETATM   30  C   UNL     1      29.474  45.220  55.626  1.00  0.00     0.034 C 
ENDBRANCH  28  29
ENDBRANCH  26  28
ENDBRANCH   1  26
TORSDOF 5
ENDMDL
MODEL 4
REMARK VINA RESULT:      -7.3      3.927      7.313
REMARK  5 active torsions:
REMARK  status: ('A' for Active; 'I' for Inactive)
REMARK    1  A    between atoms: C_2  and  O_3 
REMARK    2  A    between atoms: O_3  and  C_4 
REMARK    3  A    between atoms: C_4  and  C_5 
REMARK    4  A    between atoms: C_6  and  C_7 
REMARK    5  A    between atoms: C_22  and  N_23 
ROOT
HETATM    1  C   UNL     1      25.378  43.341  51.296  1.00  0.00     0.075 A 
HETATM    2  C   UNL     1      26.525  42.511  51.387  1.00  0.00     0.008 A 
HETATM    3  C   UNL     1      26.634  41.412  50.489  1.00  0.00     0.045 A 
HETATM    4  C   UNL     1      25.552  41.226  49.611  1.00  0.00     0.143 A 
HETATM    5  N   UNL     1      25.497  40.114  48.783  1.00  0.00    -0.306 N 
HETATM    6  C   UNL     1      26.413  39.111  48.775  1.00  0.00     0.268 A 
HETATM    7  O   UNL     1      26.271  38.117  48.073  1.00  0.00    -0.266 OA
HETATM    8  C   UNL     1      27.598  39.309  49.635  1.00  0.00     0.120 A 
HETATM    9  C   UNL     1      28.673  38.235  49.621  1.00  0.00     0.027 C 
HETATM   10  N   UNL     1      29.564  37.342  49.607  1.00  0.00    -0.096 N 
HETATM   11  C   UNL     1      27.758  40.409  50.410  1.00  0.00     0.046 A 
HETATM   12  N   UNL     1      24.472  42.029  49.512  1.00  0.00    -0.234 NA
HETATM   13  C   UNL     1      24.387  43.080  50.354  1.00  0.00     0.050 A 
HETATM   14  C   UNL     1      23.153  43.927  50.232  1.00  0.00     0.071 C 
HETATM   15  H   UNL     1      24.672  40.014  48.206  1.00  0.00     0.170 HD
ENDROOT
BRANCH  11  16
HETATM   16  N   UNL     1      28.911  40.651  51.146  1.00  0.00    -0.301 NA
HETATM   17  H   UNL     1      29.710  40.048  50.956  1.00  0.00     0.124 HD
HETATM   18  H   UNL     1      29.206  41.623  51.169  1.00  0.00     0.124 HD
ENDBRANCH  11  16
BRANCH   2  19
HETATM   19  C   UNL     1      27.516  42.810  52.441  1.00  0.00    -0.024 A 
HETATM   20  C   UNL     1      27.397  42.241  53.720  1.00  0.00     0.014 A 
HETATM   21  C   UNL     1      28.340  42.514  54.715  1.00  0.00     0.024 A 
HETATM   22  C   UNL     1      29.404  43.370  54.444  1.00  0.00     0.034 A 
HETATM   23 CL   UNL     1      30.569  43.702  55.665  1.00  0.00    -0.084 Cl
HETATM   24  C   UNL     1      29.533  43.959  53.188  1.00  0.00     0.024 A 
HETATM   25  C   UNL     1      28.592  43.682  52.192  1.00  0.00     0.014 A 
ENDBRANCH   2  19
BRANCH   1  26
HETATM   26  C   UNL     1      25.163  44.443  52.246  1.00  0.00     0.296 C 
HETATM   27  O   UNL     1      24.568  44.316  53.299  1.00  0.00    -0.259 OA
BRANCH  26  28
HETATM   28  O   UNL     1      25.689  45.568  51.708  1.00  0.00    -0.318 OA
BRANCH  28  29
HETATM   29  C   UNL     1      25.450  46.786  52.430  1.00  0.00     0.174 C 
HETATM   30  C   UNL     1      26.545  46.965  53.462  1.00  0.00     0.034 C 
ENDBRANCH  28  29
ENDBRANCH  26  28
ENDBRANCH   1  26
TORSDOF 5
ENDMDL
MODEL 5
REMARK VINA RESULT:      -7.1      3.453      6.113
REMARK  5 active torsions:
REMARK  status: ('A' for Active; 'I' for Inactive)
REMARK    1  A    between atoms: C_2  and  O_3 
REMARK    2  A    between atoms: O_3  and  C_4 
REMARK    3  A    between atoms: C_4  and  C_5 
REMARK    4  A    between atoms: C_6  and  C_7 
REMARK    5  A    between atoms: C_22  and  N_23 
ROOT
HETATM    1  C   UNL     1      26.237  45.180  52.290  1.00  0.00     0.075 A 
HETATM    2  C   UNL     1      25.683  44.727  51.066  1.00  0.00     0.008 A 
HETATM    3  C   UNL     1      24.865  45.624  50.322  1.00  0.00     0.045 A 
HETATM    4  C   UNL     1      24.647  46.884  50.908  1.00  0.00     0.143 A 
HETATM    5  N   UNL     1      23.764  47.787  50.332  1.00  0.00    -0.306 N 
HETATM    6  C   UNL     1      23.018  47.539  49.224  1.00  0.00     0.268 A 
HETATM    7  O   UNL     1      22.201  48.349  48.805  1.00  0.00    -0.266 OA
HETATM    8  C   UNL     1      23.276  46.252  48.545  1.00  0.00     0.120 A 
HETATM    9  C   UNL     1      22.498  45.952  47.274  1.00  0.00     0.027 C 
HETATM   10  N   UNL     1      21.851  45.705  46.220  1.00  0.00    -0.096 N 
HETATM   11  C   UNL     1      24.181  45.355  49.005  1.00  0.00     0.046 A 
HETATM   12  N   UNL     1      25.191  47.321  52.063  1.00  0.00    -0.234 NA
HETATM   13  C   UNL     1      25.981  46.469  52.750  1.00  0.00     0.050 A 
HETATM   14  C   UNL     1      26.538  46.984  54.045  1.00  0.00     0.071 C 
HETATM   15  H   UNL     1      23.617  48.658  50.823  1.00  0.00     0.170 HD
ENDROOT
BRANCH  11  16
HETATM   16  N   UNL     1      24.501  44.189  48.323  1.00  0.00    -0.301 NA
HETATM   17  H   UNL     1      25.445  44.124  47.944  1.00  0.00     0.124 HD
HETATM   18  H   UNL     1      24.261  43.329  48.810  1.00  0.00     0.124 HD
ENDBRANCH  11  16
BRANCH   2  19
HETATM   19  C   UNL     1      25.950  43.332  50.657  1.00  0.00    -0.024 A 
HETATM   20  C   UNL     1      27.147  42.991  50.007  1.00  0.00     0.014 A 
HETATM   21  C   UNL     1      27.406  41.671  49.629  1.00  0.00     0.024 A 
HETATM   22  C   UNL     1      26.463  40.680  49.888  1.00  0.00     0.034 A 
HETATM   23 CL   UNL     1      26.782  39.053  49.430  1.00  0.00    -0.084 Cl
HETATM   24  C   UNL     1      25.261  40.997  50.517  1.00  0.00     0.024 A 
HETATM   25  C   UNL     1      25.005  42.318  50.898  1.00  0.00     0.014 A 
ENDBRANCH   2  19
BRANCH   1  26
HETATM   26  C   UNL     1      27.022  44.278  53.147  1.00  0.00     0.296 C 
HETATM   27  O   UNL     1      26.526  43.539  53.976  1.00  0.00    -0.259 OA
BRANCH  26  28
HETATM   28  O   UNL     1      28.332  44.472  52.869  1.00  0.00    -0.318 OA
BRANCH  28  29
HETATM   29  C   UNL     1      29.266  43.754  53.690  1.00  0.00     0.174 C 
HETATM   30  C   UNL     1      29.886  42.643  52.868  1.00  0.00     0.034 C 
ENDBRANCH  28  29
ENDBRANCH  26  28
ENDBRANCH   1  26
TORSDOF 5
ENDMDL
MODEL 6
REMARK VINA RESULT:      -7.0      3.337      5.992
REMARK  5 active torsions:
REMARK  status: ('A' for Active; 'I' for Inactive)
REMARK    1  A    between atoms: C_2  and  O_3 
REMARK    2  A    between atoms: O_3  and  C_4 
REMARK    3  A    between atoms: C_4  and  C_5 
REMARK    4  A    between atoms: C_6  and  C_7 
REMARK    5  A    between atoms: C_22  and  N_23 
ROOT
HETATM    1  C   UNL     1      27.069  42.309  51.407  1.00  0.00     0.075 A 
HETATM    2  C   UNL     1      25.964  43.198  51.368  1.00  0.00     0.008 A 
HETATM    3  C   UNL     1      24.886  42.895  50.488  1.00  0.00     0.045 A 
HETATM    4  C   UNL     1      25.046  41.744  49.695  1.00  0.00     0.143 A 
HETATM    5  N   UNL     1      24.117  41.428  48.714  1.00  0.00    -0.306 N 
HETATM    6  C   UNL     1      23.036  42.189  48.399  1.00  0.00     0.268 A 
HETATM    7  O   UNL     1      22.292  41.895  47.472  1.00  0.00    -0.266 OA
HETATM    8  C   UNL     1      22.801  43.367  49.260  1.00  0.00     0.120 A 
HETATM    9  C   UNL     1      21.577  44.220  48.974  1.00  0.00     0.027 C 
HETATM   10  N   UNL     1      20.559  44.928  48.736  1.00  0.00    -0.096 N 
HETATM   11  C   UNL     1      23.622  43.692  50.287  1.00  0.00     0.046 A 
HETATM   12  N   UNL     1      26.089  40.890  49.748  1.00  0.00    -0.234 NA
HETATM   13  C   UNL     1      27.096  41.176  50.601  1.00  0.00     0.050 A 
HETATM   14  C   UNL     1      28.251  40.217  50.604  1.00  0.00     0.071 C 
HETATM   15  H   UNL     1      24.310  40.613  48.148  1.00  0.00     0.170 HD
ENDROOT
BRANCH  11  16
HETATM   16  N   UNL     1      23.357  44.739  51.161  1.00  0.00    -0.301 NA
HETATM   17  H   UNL     1      23.915  44.776  52.013  1.00  0.00     0.124 HD
HETATM   18  H   UNL     1      23.322  45.658  50.728  1.00  0.00     0.124 HD
ENDBRANCH  11  16
BRANCH   2  19
HETATM   19  C   UNL     1      26.017  44.411  52.210  1.00  0.00    -0.024 A 
HETATM   20  C   UNL     1      26.506  45.621  51.694  1.00  0.00     0.014 A 
HETATM   21  C   UNL     1      26.548  46.773  52.486  1.00  0.00     0.024 A 
HETATM   22  C   UNL     1      26.112  46.720  53.807  1.00  0.00     0.034 A 
HETATM   23 CL   UNL     1      26.156  48.137  54.780  1.00  0.00    -0.084 Cl
HETATM   24  C   UNL     1      25.639  45.526  54.345  1.00  0.00     0.024 A 
HETATM   25  C   UNL     1      25.593  44.376  53.552  1.00  0.00     0.014 A 
ENDBRANCH   2  19
BRANCH   1  26
HETATM   26  C   UNL     1      28.250  42.606  52.233  1.00  0.00     0.296 C 
HETATM   27  O   UNL     1      29.234  43.185  51.813  1.00  0.00    -0.259 OA
BRANCH  26  28
HETATM   28  O   UNL     1      28.042  42.084  53.464  1.00  0.00    -0.318 OA
BRANCH  28  29
HETATM   29  C   UNL     1      29.034  42.390  54.456  1.00  0.00     0.174 C 
HETATM   30  C   UNL     1      28.931  43.859  54.813  1.00  0.00     0.034 C 
ENDBRANCH  28  29
ENDBRANCH  26  28
ENDBRANCH   1  26
TORSDOF 5
ENDMDL
MODEL 7
REMARK VINA RESULT:      -6.9      7.064     10.291
REMARK  5 active torsions:
REMARK  status: ('A' for Active; 'I' for Inactive)
REMARK    1  A    between atoms: C_2  and  O_3 
REMARK    2  A    between atoms: O_3  and  C_4 
REMARK    3  A    between atoms: C_4  and  C_5 
REMARK    4  A    between atoms: C_6  and  C_7 
REMARK    5  A    between atoms: C_22  and  N_23 
ROOT
HETATM    1  C   UNL     1      19.282  49.774  47.950  1.00  0.00     0.075 A 
HETATM    2  C   UNL     1      19.837  48.469  47.934  1.00  0.00     0.008 A 
HETATM    3  C   UNL     1      21.103  48.266  48.554  1.00  0.00     0.045 A 
HETATM    4  C   UNL     1      21.711  49.413  49.096  1.00  0.00     0.143 A 
HETATM    5  N   UNL     1      22.999  49.353  49.609  1.00  0.00    -0.306 N 
HETATM    6  C   UNL     1      23.786  48.246  49.595  1.00  0.00     0.268 A 
HETATM    7  O   UNL     1      24.943  48.275  49.996  1.00  0.00    -0.266 OA
HETATM    8  C   UNL     1      23.152  47.007  49.097  1.00  0.00     0.120 A 
HETATM    9  C   UNL     1      23.980  45.733  49.108  1.00  0.00     0.027 C 
HETATM   10  N   UNL     1      24.669  44.676  49.117  1.00  0.00    -0.096 N 
HETATM   11  C   UNL     1      21.872  46.973  48.654  1.00  0.00     0.046 A 
HETATM   12  N   UNL     1      21.172  50.649  49.128  1.00  0.00    -0.234 NA
HETATM   13  C   UNL     1      19.963  50.826  48.555  1.00  0.00     0.050 A 
HETATM   14  C   UNL     1      19.416  52.224  48.584  1.00  0.00     0.071 C 
HETATM   15  H   UNL     1      23.398  50.220  49.944  1.00  0.00     0.170 HD
ENDROOT
BRANCH  11  16
HETATM   16  N   UNL     1      21.237  45.797  48.277  1.00  0.00    -0.301 NA
HETATM   17  H   UNL     1      20.412  45.530  48.813  1.00  0.00     0.124 HD
HETATM   18  H   UNL     1      21.045  45.716  47.281  1.00  0.00     0.124 HD
ENDBRANCH  11  16
BRANCH   2  19
HETATM   19  C   UNL     1      19.089  47.405  47.232  1.00  0.00    -0.024 A 
HETATM   20  C   UNL     1      18.180  46.590  47.925  1.00  0.00     0.014 A 
HETATM   21  C   UNL     1      17.464  45.590  47.261  1.00  0.00     0.024 A 
HETATM   22  C   UNL     1      17.661  45.387  45.898  1.00  0.00     0.034 A 
HETATM   23 CL   UNL     1      16.776  44.162  45.077  1.00  0.00    -0.084 Cl
HETATM   24  C   UNL     1      18.570  46.173  45.193  1.00  0.00     0.024 A 
HETATM   25  C   UNL     1      19.283  47.176  45.857  1.00  0.00     0.014 A 
ENDBRANCH   2  19
BRANCH   1  26
HETATM   26  C   UNL     1      18.018  50.068  47.257  1.00  0.00     0.296 C 
HETATM   27  O   UNL     1      17.958  50.451  46.104  1.00  0.00    -0.259 OA
BRANCH  26  28
HETATM   28  O   UNL     1      17.006  49.884  48.136  1.00  0.00    -0.318 OA
BRANCH  28  29
HETATM   29  C   UNL     1      15.678  50.006  47.605  1.00  0.00     0.174 C 
HETATM   30  C   UNL     1      15.206  48.639  47.150  1.00  0.00     0.034 C 
ENDBRANCH  28  29
ENDBRANCH  26  28
ENDBRANCH   1  26
TORSDOF 5
ENDMDL
MODEL 8
REMARK VINA RESULT:      -6.8      5.529      8.480
REMARK  5 active torsions:
REMARK  status: ('A' for Active; 'I' for Inactive)
REMARK    1  A    between atoms: C_2  and  O_3 
REMARK    2  A    between atoms: O_3  and  C_4 
REMARK    3  A    between atoms: C_4  and  C_5 
REMARK    4  A    between atoms: C_6  and  C_7 
REMARK    5  A    between atoms: C_22  and  N_23 
ROOT
HETATM    1  C   UNL     1      20.755  46.308  46.813  1.00  0.00     0.075 A 
HETATM    2  C   UNL     1      21.437  47.015  47.836  1.00  0.00     0.008 A 
HETATM    3  C   UNL     1      22.657  46.474  48.331  1.00  0.00     0.045 A 
HETATM    4  C   UNL     1      23.053  45.244  47.777  1.00  0.00     0.143 A 
HETATM    5  N   UNL     1      24.157  44.566  48.276  1.00  0.00    -0.306 N 
HETATM    6  C   UNL     1      24.901  44.978  49.336  1.00  0.00     0.268 A 
HETATM    7  O   UNL     1      25.819  44.298  49.778  1.00  0.00    -0.266 OA
HETATM    8  C   UNL     1      24.555  46.301  49.896  1.00  0.00     0.120 A 
HETATM    9  C   UNL     1      25.392  46.822  51.052  1.00  0.00     0.027 C 
HETATM   10  N   UNL     1      26.088  47.254  52.012  1.00  0.00    -0.096 N 
HETATM   11  C   UNL     1      23.541  47.054  49.408  1.00  0.00     0.046 A 
HETATM   12  N   UNL     1      22.414  44.583  46.789  1.00  0.00    -0.234 NA
HETATM   13  C   UNL     1      21.269  45.115  46.313  1.00  0.00     0.050 A 
HETATM   14  C   UNL     1      20.573  44.330  45.239  1.00  0.00     0.071 C 
HETATM   15  H   UNL     1      24.365  43.666  47.866  1.00  0.00     0.170 HD
ENDROOT
BRANCH  11  16
HETATM   16  N   UNL     1      23.269  48.338  49.862  1.00  0.00    -0.301 NA
HETATM   17  H   UNL     1      23.904  49.076  49.558  1.00  0.00     0.124 HD
HETATM   18  H   UNL     1      22.305  48.638  49.744  1.00  0.00     0.124 HD
ENDBRANCH  11  16
BRANCH   2  19
HETATM   19  C   UNL     1      20.815  48.249  48.360  1.00  0.00    -0.024 A 
HETATM   20  C   UNL     1      21.093  49.496  47.778  1.00  0.00     0.014 A 
HETATM   21  C   UNL     1      20.498  50.663  48.266  1.00  0.00     0.024 A 
HETATM   22  C   UNL     1      19.627  50.594  49.350  1.00  0.00     0.034 A 
HETATM   23 CL   UNL     1      18.888  52.027  49.948  1.00  0.00    -0.084 Cl
HETATM   24  C   UNL     1      19.349  49.370  49.954  1.00  0.00     0.024 A 
HETATM   25  C   UNL     1      19.942  48.203  49.463  1.00  0.00     0.014 A 
ENDBRANCH   2  19
BRANCH   1  26
HETATM   26  C   UNL     1      19.450  46.768  46.315  1.00  0.00     0.296 C 
HETATM   27  O   UNL     1      19.321  47.569  45.408  1.00  0.00    -0.259 OA
BRANCH  26  28
HETATM   28  O   UNL     1      18.487  46.188  47.068  1.00  0.00    -0.318 OA
BRANCH  28  29
HETATM   29  C   UNL     1      17.199  46.822  47.045  1.00  0.00     0.174 C 
HETATM   30  C   UNL     1      16.740  47.048  48.473  1.00  0.00     0.034 C 
ENDBRANCH  28  29
ENDBRANCH  26  28
ENDBRANCH   1  26
TORSDOF 5
ENDMDL
MODEL 9
REMARK VINA RESULT:      -6.7     16.630     19.083
REMARK  5 active torsions:
REMARK  status: ('A' for Active; 'I' for Inactive)
REMARK    1  A    between atoms: C_2  and  O_3 
REMARK    2  A    between atoms: O_3  and  C_4 
REMARK    3  A    between atoms: C_4  and  C_5 
REMARK    4  A    between atoms: C_6  and  C_7 
REMARK    5  A    between atoms: C_22  and  N_23 
ROOT
HETATM    1  C   UNL     1      39.029  45.140  64.140  1.00  0.00     0.075 A 
HETATM    2  C   UNL     1      39.716  46.121  64.899  1.00  0.00     0.008 A 
HETATM    3  C   UNL     1      41.139  46.144  64.841  1.00  0.00     0.045 A 
HETATM    4  C   UNL     1      41.738  45.143  64.055  1.00  0.00     0.143 A 
HETATM    5  N   UNL     1      43.117  44.994  64.031  1.00  0.00    -0.306 N 
HETATM    6  C   UNL     1      43.986  45.732  64.770  1.00  0.00     0.268 A 
HETATM    7  O   UNL     1      45.190  45.504  64.762  1.00  0.00    -0.266 OA
HETATM    8  C   UNL     1      43.396  46.837  65.552  1.00  0.00     0.120 A 
HETATM    9  C   UNL     1      44.337  47.719  66.357  1.00  0.00     0.027 C 
HETATM   10  N   UNL     1      45.120  48.450  67.023  1.00  0.00    -0.096 N 
HETATM   11  C   UNL     1      42.066  47.092  65.561  1.00  0.00     0.046 A 
HETATM   12  N   UNL     1      41.081  44.223  63.317  1.00  0.00    -0.234 NA
HETATM   13  C   UNL     1      39.732  44.224  63.363  1.00  0.00     0.050 A 
HETATM   14  C   UNL     1      39.043  43.163  62.555  1.00  0.00     0.071 C 
HETATM   15  H   UNL     1      43.485  44.229  63.482  1.00  0.00     0.170 HD
ENDROOT
BRANCH  11  16
HETATM   16  N   UNL     1      41.512  48.185  66.214  1.00  0.00    -0.301 NA
HETATM   17  H   UNL     1      41.800  49.108  65.889  1.00  0.00     0.124 HD
HETATM   18  H   UNL     1      40.501  48.154  66.318  1.00  0.00     0.124 HD
ENDBRANCH  11  16
BRANCH   2  19
HETATM   19  C   UNL     1      38.916  47.033  65.743  1.00  0.00    -0.024 A 
HETATM   20  C   UNL     1      38.689  46.742  67.098  1.00  0.00     0.014 A 
HETATM   21  C   UNL     1      37.942  47.609  67.900  1.00  0.00     0.024 A 
HETATM   22  C   UNL     1      37.403  48.769  67.351  1.00  0.00     0.034 A 
HETATM   23 CL   UNL     1      36.489  49.840  68.339  1.00  0.00    -0.084 Cl
HETATM   24  C   UNL     1      37.602  49.069  66.006  1.00  0.00     0.024 A 
HETATM   25  C   UNL     1      38.353  48.205  65.204  1.00  0.00     0.014 A 
ENDBRANCH   2  19
BRANCH   1  26
HETATM   26  C   UNL     1      37.566  45.010  64.219  1.00  0.00     0.296 C 
HETATM   27  O   UNL     1      36.799  45.569  63.457  1.00  0.00    -0.259 OA
BRANCH  26  28
HETATM   28  O   UNL     1      37.273  44.228  65.284  1.00  0.00    -0.318 OA
BRANCH  28  29
HETATM   29  C   UNL     1      36.106  43.401  65.159  1.00  0.00     0.174 C 
HETATM   30  C   UNL     1      36.544  41.955  65.031  1.00  0.00     0.034 C 
ENDBRANCH  28  29
ENDBRANCH  26  28
ENDBRANCH   1  26
TORSDOF 5
ENDMDL
MODEL 10
REMARK VINA RESULT:      -6.6      3.725      6.696
REMARK  5 active torsions:
REMARK  status: ('A' for Active; 'I' for Inactive)
REMARK    1  A    between atoms: C_2  and  O_3 
REMARK    2  A    between atoms: O_3  and  C_4 
REMARK    3  A    between atoms: C_4  and  C_5 
REMARK    4  A    between atoms: C_6  and  C_7 
REMARK    5  A    between atoms: C_22  and  N_23 
ROOT
HETATM    1  C   UNL     1      26.245  44.496  51.242  1.00  0.00     0.075 A 
HETATM    2  C   UNL     1      25.678  43.750  50.177  1.00  0.00     0.008 A 
HETATM    3  C   UNL     1      24.585  44.319  49.463  1.00  0.00     0.045 A 
HETATM    4  C   UNL     1      24.138  45.571  49.921  1.00  0.00     0.143 A 
HETATM    5  N   UNL     1      23.002  46.156  49.380  1.00  0.00    -0.306 N 
HETATM    6  C   UNL     1      22.213  45.582  48.434  1.00  0.00     0.268 A 
HETATM    7  O   UNL     1      21.180  46.116  48.049  1.00  0.00    -0.266 OA
HETATM    8  C   UNL     1      22.694  44.299  47.881  1.00  0.00     0.120 A 
HETATM    9  C   UNL     1      21.868  43.644  46.787  1.00  0.00     0.027 C 
HETATM   10  N   UNL     1      21.181  43.102  45.878  1.00  0.00    -0.096 N 
HETATM   11  C   UNL     1      23.837  43.708  48.305  1.00  0.00     0.046 A 
HETATM   12  N   UNL     1      24.692  46.288  50.921  1.00  0.00    -0.234 NA
HETATM   13  C   UNL     1      25.740  45.748  51.578  1.00  0.00     0.050 A 
HETATM   14  C   UNL     1      26.303  46.564  52.706  1.00  0.00     0.071 C 
HETATM   15  H   UNL     1      22.705  47.036  49.781  1.00  0.00     0.170 HD
ENDROOT
BRANCH  11  16
HETATM   16  N   UNL     1      24.348  42.554  47.726  1.00  0.00    -0.301 NA
HETATM   17  H   UNL     1      24.680  41.830  48.363  1.00  0.00     0.124 HD
HETATM   18  H   UNL     1      23.760  42.140  47.006  1.00  0.00     0.124 HD
ENDBRANCH  11  16
BRANCH   2  19
HETATM   19  C   UNL     1      26.225  42.405  49.903  1.00  0.00    -0.024 A 
HETATM   20  C   UNL     1      25.701  41.272  50.545  1.00  0.00     0.014 A 
HETATM   21  C   UNL     1      26.210  39.998  50.278  1.00  0.00     0.024 A 
HETATM   22  C   UNL     1      27.258  39.847  49.375  1.00  0.00     0.034 A 
HETATM   23 CL   UNL     1      27.882  38.280  49.040  1.00  0.00    -0.084 Cl
HETATM   24  C   UNL     1      27.805  40.959  48.738  1.00  0.00     0.024 A 
HETATM   25  C   UNL     1      27.292  42.233  49.002  1.00  0.00     0.014 A 
ENDBRANCH   2  19
BRANCH   1  26
HETATM   26  C   UNL     1      27.320  43.932  52.073  1.00  0.00     0.296 C 
HETATM   27  O   UNL     1      28.502  44.049  51.811  1.00  0.00    -0.259 OA
BRANCH  26  28
HETATM   28  O   UNL     1      26.748  43.254  53.094  1.00  0.00    -0.318 OA
BRANCH  28  29
HETATM   29  C   UNL     1      27.648  42.612  54.011  1.00  0.00     0.174 C 
HETATM   30  C   UNL     1      28.010  41.246  53.463  1.00  0.00     0.034 C 
ENDBRANCH  28  29
ENDBRANCH  26  28
ENDBRANCH   1  26
TORSDOF 5
ENDMDL
