MODEL 1
REMARK VINA RESULT:      -9.0      0.000      0.000
REMARK  7 active torsions:
REMARK  status: ('A' for Active; 'I' for Inactive)
REMARK    1  A    between atoms: C_3  and  C_4 
REMARK    2  A    between atoms: C_4  and  N_5 
REMARK       I    between atoms: N_5  and  C_6 
REMARK    3  A    between atoms: C_6  and  C_7 
REMARK    4  A    between atoms: C_7  and  N_8 
REMARK    5  A    between atoms: C_10  and  C_11 
REMARK    6  A    between atoms: C_11  and  N_12 
REMARK       I    between atoms: N_12  and  C_13 
REMARK       I    between atoms: C_13  and  N_14 
REMARK    7  A    between atoms: N_14  and  C_15 
ROOT
HETATM    1  N   UNL     1      25.712  45.974  50.993  1.00  0.00    -0.057 N 
HETATM    2  H   UNL     1      25.724  45.294  51.777  1.00  0.00     0.281 HD
HETATM    3  C   UNL     1      24.252  45.948  50.520  1.00  0.00     0.206 C 
HETATM    4  C   UNL     1      23.942  44.504  50.090  1.00  0.00     0.035 C 
HETATM    5  C   UNL     1      24.916  43.983  49.038  1.00  0.00     0.004 C 
HETATM    6  C   UNL     1      26.356  44.088  49.525  1.00  0.00     0.028 C 
HETATM    7  C   UNL     1      26.716  45.493  49.987  1.00  0.00     0.236 C 
ENDROOT
BRANCH   1   8
HETATM    8  C   UNL     1      26.121  47.267  51.707  1.00  0.00     0.337 C 
BRANCH   8   9
HETATM    9  C   UNL     1      26.233  47.038  53.214  1.00  0.00     0.243 C 
HETATM   10  N   UNL     1      27.011  45.981  53.596  1.00  0.00    -0.355 N 
HETATM   11  H   UNL     1      27.561  45.452  52.929  1.00  0.00     0.162 HD
HETATM   12  O   UNL     1      25.610  47.769  53.982  1.00  0.00    -0.272 OA
BRANCH  10  13
HETATM   13  C   UNL     1      27.139  45.589  54.987  1.00  0.00     0.169 C 
BRANCH  13  14
HETATM   14  C   UNL     1      28.477  44.934  55.148  1.00  0.00     0.006 A 
HETATM   15  C   UNL     1      28.938  43.728  54.638  1.00  0.00    -0.047 A 
HETATM   16  C   UNL     1      28.179  42.792  53.753  1.00  0.00     0.049 C 
HETATM   17  C   UNL     1      30.290  43.478  55.054  1.00  0.00     0.015 A 
HETATM   18  C   UNL     1      30.797  44.475  55.853  1.00  0.00     0.051 A 
HETATM   19  S   UNL     1      29.666  45.722  56.109  1.00  0.00    -0.104 SA
ENDBRANCH  13  14
ENDBRANCH  10  13
ENDBRANCH   8   9
ENDBRANCH   1   8
BRANCH   3  20
HETATM   20  C   UNL     1      23.976  46.994  49.395  1.00  0.00     0.157 C 
BRANCH  20  21
HETATM   21  N   UNL     1      23.373  48.235  49.851  1.00  0.00    -0.341 N 
HETATM   22  C   UNL     1      22.165  48.648  49.317  1.00  0.00     0.320 C 
HETATM   23  N   UNL     1      21.758  49.834  49.875  1.00  0.00    -0.309 N 
HETATM   24  O   UNL     1      21.622  48.003  48.431  1.00  0.00    -0.247 OA
HETATM   25  H   UNL     1      22.391  50.263  50.534  1.00  0.00     0.170 HD
HETATM   26  H   UNL     1      23.507  48.483  50.824  1.00  0.00     0.164 HD
BRANCH  23  27
HETATM   27  C   UNL     1      20.611  50.590  49.557  1.00  0.00     0.036 A 
HETATM   28  C   UNL     1      20.584  51.597  48.590  1.00  0.00     0.029 A 
HETATM   29  C   UNL     1      19.405  52.311  48.348  1.00  0.00     0.002 A 
HETATM   30  C   UNL     1      18.247  52.023  49.068  1.00  0.00     0.000 A 
HETATM   31  C   UNL     1      18.264  51.016  50.029  1.00  0.00     0.002 A 
HETATM   32  C   UNL     1      19.441  50.304  50.273  1.00  0.00     0.029 A 
ENDBRANCH  23  27
ENDBRANCH  20  21
ENDBRANCH   3  20
TORSDOF 7
ENDMDL
MODEL 2
REMARK VINA RESULT:      -8.9      3.312      9.349
REMARK  7 active torsions:
REMARK  status: ('A' for Active; 'I' for Inactive)
REMARK    1  A    between atoms: C_3  and  C_4 
REMARK    2  A    between atoms: C_4  and  N_5 
REMARK       I    between atoms: N_5  and  C_6 
REMARK    3  A    between atoms: C_6  and  C_7 
REMARK    4  A    between atoms: C_7  and  N_8 
REMARK    5  A    between atoms: C_10  and  C_11 
REMARK    6  A    between atoms: C_11  and  N_12 
REMARK       I    between atoms: N_12  and  C_13 
REMARK       I    between atoms: C_13  and  N_14 
REMARK    7  A    between atoms: N_14  and  C_15 
ROOT
HETATM    1  N   UNL     1      25.771  44.132  50.965  1.00  0.00    -0.057 N 
HETATM    2  H   UNL     1      25.611  44.719  50.123  1.00  0.00     0.281 HD
HETATM    3  C   UNL     1      27.031  43.331  50.607  1.00  0.00     0.206 C 
HETATM    4  C   UNL     1      26.707  42.521  49.341  1.00  0.00     0.035 C 
HETATM    5  C   UNL     1      25.471  41.641  49.507  1.00  0.00     0.004 C 
HETATM    6  C   UNL     1      24.262  42.469  49.925  1.00  0.00     0.028 C 
HETATM    7  C   UNL     1      24.531  43.312  51.163  1.00  0.00     0.236 C 
ENDROOT
BRANCH   1   8
HETATM    8  C   UNL     1      25.987  45.200  52.043  1.00  0.00     0.337 C 
BRANCH   8   9
HETATM    9  C   UNL     1      25.224  46.478  51.694  1.00  0.00     0.243 C 
HETATM   10  N   UNL     1      24.785  46.573  50.404  1.00  0.00    -0.355 N 
HETATM   11  H   UNL     1      24.867  45.801  49.752  1.00  0.00     0.162 HD
HETATM   12  O   UNL     1      25.079  47.346  52.555  1.00  0.00    -0.272 OA
BRANCH  10  13
HETATM   13  C   UNL     1      24.125  47.765  49.906  1.00  0.00     0.169 C 
BRANCH  13  14
HETATM   14  C   UNL     1      25.175  48.636  49.287  1.00  0.00     0.006 A 
HETATM   15  C   UNL     1      25.033  49.743  48.462  1.00  0.00    -0.047 A 
HETATM   16  C   UNL     1      23.743  50.354  48.015  1.00  0.00     0.049 C 
HETATM   17  C   UNL     1      26.314  50.272  48.086  1.00  0.00     0.015 A 
HETATM   18  C   UNL     1      27.363  49.563  48.621  1.00  0.00     0.051 A 
HETATM   19  S   UNL     1      26.828  48.262  49.580  1.00  0.00    -0.104 SA
ENDBRANCH  13  14
ENDBRANCH  10  13
ENDBRANCH   8   9
ENDBRANCH   1   8
BRANCH   3  20
HETATM   20  C   UNL     1      27.524  42.444  51.793  1.00  0.00     0.157 C 
BRANCH  20  21
HETATM   21  N   UNL     1      28.724  42.923  52.455  1.00  0.00    -0.341 N 
HETATM   22  C   UNL     1      28.685  43.239  53.802  1.00  0.00     0.320 C 
HETATM   23  N   UNL     1      29.912  43.667  54.244  1.00  0.00    -0.309 N 
HETATM   24  O   UNL     1      27.639  43.164  54.430  1.00  0.00    -0.247 OA
HETATM   25  H   UNL     1      30.640  43.746  53.549  1.00  0.00     0.170 HD
HETATM   26  H   UNL     1      29.608  42.543  52.140  1.00  0.00     0.164 HD
BRANCH  23  27
HETATM   27  C   UNL     1      30.256  44.121  55.534  1.00  0.00     0.036 A 
HETATM   28  C   UNL     1      29.749  45.285  56.113  1.00  0.00     0.029 A 
HETATM   29  C   UNL     1      30.156  45.672  57.395  1.00  0.00     0.002 A 
HETATM   30  C   UNL     1      31.069  44.897  58.107  1.00  0.00     0.000 A 
HETATM   31  C   UNL     1      31.576  43.731  57.540  1.00  0.00     0.002 A 
HETATM   32  C   UNL     1      31.171  43.346  56.259  1.00  0.00     0.029 A 
ENDBRANCH  23  27
ENDBRANCH  20  21
ENDBRANCH   3  20
TORSDOF 7
ENDMDL
MODEL 3
REMARK VINA RESULT:      -8.9      2.938     10.040
REMARK  7 active torsions:
REMARK  status: ('A' for Active; 'I' for Inactive)
REMARK    1  A    between atoms: C_3  and  C_4 
REMARK    2  A    between atoms: C_4  and  N_5 
REMARK       I    between atoms: N_5  and  C_6 
REMARK    3  A    between atoms: C_6  and  C_7 
REMARK    4  A    between atoms: C_7  and  N_8 
REMARK    5  A    between atoms: C_10  and  C_11 
REMARK    6  A    between atoms: C_11  and  N_12 
REMARK       I    between atoms: N_12  and  C_13 
REMARK       I    between atoms: C_13  and  N_14 
REMARK    7  A    between atoms: N_14  and  C_15 
ROOT
HETATM    1  N   UNL     1      25.147  45.335  50.357  1.00  0.00    -0.057 N 
HETATM    2  H   UNL     1      25.368  45.563  49.368  1.00  0.00     0.281 HD
HETATM    3  C   UNL     1      26.485  44.832  50.916  1.00  0.00     0.206 C 
HETATM    4  C   UNL     1      26.894  43.610  50.077  1.00  0.00     0.035 C 
HETATM    5  C   UNL     1      25.818  42.529  50.051  1.00  0.00     0.004 C 
HETATM    6  C   UNL     1      24.492  43.089  49.551  1.00  0.00     0.028 C 
HETATM    7  C   UNL     1      24.045  44.317  50.330  1.00  0.00     0.236 C 
ENDROOT
BRANCH   1   8
HETATM    8  C   UNL     1      24.713  46.704  50.893  1.00  0.00     0.337 C 
BRANCH   8   9
HETATM    9  C   UNL     1      24.151  47.570  49.766  1.00  0.00     0.243 C 
HETATM   10  N   UNL     1      22.830  47.381  49.476  1.00  0.00    -0.355 N 
HETATM   11  H   UNL     1      22.237  46.784  50.041  1.00  0.00     0.162 HD
HETATM   12  O   UNL     1      24.901  48.344  49.172  1.00  0.00    -0.272 OA
BRANCH  10  13
HETATM   13  C   UNL     1      22.182  48.068  48.374  1.00  0.00     0.169 C 
BRANCH  13  14
HETATM   14  C   UNL     1      21.325  49.149  48.959  1.00  0.00     0.006 A 
HETATM   15  C   UNL     1      21.599  50.500  49.131  1.00  0.00    -0.047 A 
HETATM   16  C   UNL     1      22.852  51.207  48.724  1.00  0.00     0.049 C 
HETATM   17  C   UNL     1      20.492  51.174  49.749  1.00  0.00     0.015 A 
HETATM   18  C   UNL     1      19.441  50.333  50.026  1.00  0.00     0.051 A 
HETATM   19  S   UNL     1      19.764  48.732  49.546  1.00  0.00    -0.104 SA
ENDBRANCH  13  14
ENDBRANCH  10  13
ENDBRANCH   8   9
ENDBRANCH   1   8
BRANCH   3  20
HETATM   20  C   UNL     1      26.410  44.529  52.445  1.00  0.00     0.157 C 
BRANCH  20  21
HETATM   21  N   UNL     1      27.407  45.210  53.251  1.00  0.00    -0.341 N 
HETATM   22  C   UNL     1      28.120  44.502  54.204  1.00  0.00     0.320 C 
HETATM   23  N   UNL     1      29.014  45.314  54.856  1.00  0.00    -0.309 N 
HETATM   24  O   UNL     1      27.885  43.319  54.407  1.00  0.00    -0.247 OA
HETATM   25  H   UNL     1      28.999  46.292  54.608  1.00  0.00     0.170 HD
HETATM   26  H   UNL     1      27.929  45.955  52.808  1.00  0.00     0.164 HD
BRANCH  23  27
HETATM   27  C   UNL     1      29.877  44.972  55.917  1.00  0.00     0.036 A 
HETATM   28  C   UNL     1      30.824  43.949  55.855  1.00  0.00     0.029 A 
HETATM   29  C   UNL     1      31.631  43.665  56.963  1.00  0.00     0.002 A 
HETATM   30  C   UNL     1      31.498  44.402  58.137  1.00  0.00     0.000 A 
HETATM   31  C   UNL     1      30.561  45.428  58.206  1.00  0.00     0.002 A 
HETATM   32  C   UNL     1      29.753  45.711  57.102  1.00  0.00     0.029 A 
ENDBRANCH  23  27
ENDBRANCH  20  21
ENDBRANCH   3  20
TORSDOF 7
ENDMDL
MODEL 4
REMARK VINA RESULT:      -8.3      4.970      9.336
REMARK  7 active torsions:
REMARK  status: ('A' for Active; 'I' for Inactive)
REMARK    1  A    between atoms: C_3  and  C_4 
REMARK    2  A    between atoms: C_4  and  N_5 
REMARK       I    between atoms: N_5  and  C_6 
REMARK    3  A    between atoms: C_6  and  C_7 
REMARK    4  A    between atoms: C_7  and  N_8 
REMARK    5  A    between atoms: C_10  and  C_11 
REMARK    6  A    between atoms: C_11  and  N_12 
REMARK       I    between atoms: N_12  and  C_13 
REMARK       I    between atoms: C_13  and  N_14 
REMARK    7  A    between atoms: N_14  and  C_15 
ROOT
HETATM    1  N   UNL     1      27.016  39.686  49.437  1.00  0.00    -0.057 N 
HETATM    2  H   UNL     1      27.149  39.677  48.407  1.00  0.00     0.281 HD
HETATM    3  C   UNL     1      28.400  40.080  49.971  1.00  0.00     0.206 C 
HETATM    4  C   UNL     1      29.393  39.011  49.486  1.00  0.00     0.035 C 
HETATM    5  C   UNL     1      28.980  37.599  49.892  1.00  0.00     0.004 C 
HETATM    6  C   UNL     1      27.576  37.276  49.395  1.00  0.00     0.028 C 
HETATM    7  C   UNL     1      26.550  38.314  49.826  1.00  0.00     0.236 C 
ENDROOT
BRANCH   1   8
HETATM    8  C   UNL     1      25.946  40.772  49.594  1.00  0.00     0.337 C 
BRANCH   8   9
HETATM    9  C   UNL     1      26.528  42.151  49.285  1.00  0.00     0.243 C 
HETATM   10  N   UNL     1      26.264  43.125  50.206  1.00  0.00    -0.355 N 
HETATM   11  H   UNL     1      25.804  42.921  51.085  1.00  0.00     0.162 HD
HETATM   12  O   UNL     1      27.155  42.319  48.240  1.00  0.00    -0.272 OA
BRANCH  10  13
HETATM   13  C   UNL     1      26.676  44.502  50.003  1.00  0.00     0.169 C 
BRANCH  13  14
HETATM   14  C   UNL     1      26.321  45.264  51.243  1.00  0.00     0.006 A 
HETATM   15  C   UNL     1      26.149  46.631  51.422  1.00  0.00    -0.047 A 
HETATM   16  C   UNL     1      26.256  47.682  50.365  1.00  0.00     0.049 C 
HETATM   17  C   UNL     1      25.823  46.933  52.787  1.00  0.00     0.015 A 
HETATM   18  C   UNL     1      25.765  45.814  53.583  1.00  0.00     0.051 A 
HETATM   19  S   UNL     1      26.095  44.392  52.707  1.00  0.00    -0.104 SA
ENDBRANCH  13  14
ENDBRANCH  10  13
ENDBRANCH   8   9
ENDBRANCH   1   8
BRANCH   3  20
HETATM   20  C   UNL     1      28.404  40.263  51.521  1.00  0.00     0.157 C 
BRANCH  20  21
HETATM   21  N   UNL     1      29.262  41.329  52.007  1.00  0.00    -0.341 N 
HETATM   22  C   UNL     1      29.023  41.889  53.251  1.00  0.00     0.320 C 
HETATM   23  N   UNL     1      29.938  42.872  53.533  1.00  0.00    -0.309 N 
HETATM   24  O   UNL     1      28.069  41.528  53.924  1.00  0.00    -0.247 OA
HETATM   25  H   UNL     1      30.604  43.090  52.807  1.00  0.00     0.170 HD
HETATM   26  H   UNL     1      30.240  41.290  51.747  1.00  0.00     0.164 HD
BRANCH  23  27
HETATM   27  C   UNL     1      29.993  43.700  54.673  1.00  0.00     0.036 A 
HETATM   28  C   UNL     1      29.200  44.835  54.853  1.00  0.00     0.029 A 
HETATM   29  C   UNL     1      29.330  45.611  56.011  1.00  0.00     0.002 A 
HETATM   30  C   UNL     1      30.250  45.257  56.995  1.00  0.00     0.000 A 
HETATM   31  C   UNL     1      31.040  44.124  56.827  1.00  0.00     0.002 A 
HETATM   32  C   UNL     1      30.912  43.350  55.671  1.00  0.00     0.029 A 
ENDBRANCH  23  27
ENDBRANCH  20  21
ENDBRANCH   3  20
TORSDOF 7
ENDMDL
MODEL 5
REMARK VINA RESULT:      -8.3      2.937      9.794
REMARK  7 active torsions:
REMARK  status: ('A' for Active; 'I' for Inactive)
REMARK    1  A    between atoms: C_3  and  C_4 
REMARK    2  A    between atoms: C_4  and  N_5 
REMARK       I    between atoms: N_5  and  C_6 
REMARK    3  A    between atoms: C_6  and  C_7 
REMARK    4  A    between atoms: C_7  and  N_8 
REMARK    5  A    between atoms: C_10  and  C_11 
REMARK    6  A    between atoms: C_11  and  N_12 
REMARK       I    between atoms: N_12  and  C_13 
REMARK       I    between atoms: C_13  and  N_14 
REMARK    7  A    between atoms: N_14  and  C_15 
ROOT
HETATM    1  N   UNL     1      24.853  43.801  50.199  1.00  0.00    -0.057 N 
HETATM    2  H   UNL     1      25.064  43.864  49.184  1.00  0.00     0.281 HD
HETATM    3  C   UNL     1      25.963  44.638  50.848  1.00  0.00     0.206 C 
HETATM    4  C   UNL     1      27.304  43.995  50.455  1.00  0.00     0.035 C 
HETATM    5  C   UNL     1      27.378  42.518  50.830  1.00  0.00     0.004 C 
HETATM    6  C   UNL     1      26.221  41.738  50.217  1.00  0.00     0.028 C 
HETATM    7  C   UNL     1      24.865  42.343  50.554  1.00  0.00     0.236 C 
ENDROOT
BRANCH   1   8
HETATM    8  C   UNL     1      23.462  44.441  50.260  1.00  0.00     0.337 C 
BRANCH   8   9
HETATM    9  C   UNL     1      23.134  45.141  48.941  1.00  0.00     0.243 C 
HETATM   10  N   UNL     1      22.724  46.440  49.047  1.00  0.00    -0.355 N 
HETATM   11  H   UNL     1      22.739  46.937  49.930  1.00  0.00     0.162 HD
HETATM   12  O   UNL     1      23.218  44.511  47.888  1.00  0.00    -0.272 OA
BRANCH  10  13
HETATM   13  C   UNL     1      22.295  47.204  47.890  1.00  0.00     0.169 C 
BRANCH  13  14
HETATM   14  C   UNL     1      22.417  48.656  48.239  1.00  0.00     0.006 A 
HETATM   15  C   UNL     1      21.438  49.639  48.291  1.00  0.00    -0.047 A 
HETATM   16  C   UNL     1      19.978  49.449  48.028  1.00  0.00     0.049 C 
HETATM   17  C   UNL     1      22.001  50.906  48.661  1.00  0.00     0.015 A 
HETATM   18  C   UNL     1      23.359  50.848  48.867  1.00  0.00     0.051 A 
HETATM   19  S   UNL     1      23.972  49.279  48.626  1.00  0.00    -0.104 SA
ENDBRANCH  13  14
ENDBRANCH  10  13
ENDBRANCH   8   9
ENDBRANCH   1   8
BRANCH   3  20
HETATM   20  C   UNL     1      25.777  44.772  52.392  1.00  0.00     0.157 C 
BRANCH  20  21
HETATM   21  N   UNL     1      26.897  45.376  53.091  1.00  0.00    -0.341 N 
HETATM   22  C   UNL     1      27.597  44.640  54.032  1.00  0.00     0.320 C 
HETATM   23  N   UNL     1      28.618  45.378  54.577  1.00  0.00    -0.309 N 
HETATM   24  O   UNL     1      27.253  43.501  54.314  1.00  0.00    -0.247 OA
HETATM   25  H   UNL     1      28.689  46.339  54.277  1.00  0.00     0.170 HD
HETATM   26  H   UNL     1      27.462  46.038  52.573  1.00  0.00     0.164 HD
BRANCH  23  27
HETATM   27  C   UNL     1      29.514  44.994  55.595  1.00  0.00     0.036 A 
HETATM   28  C   UNL     1      30.412  43.931  55.486  1.00  0.00     0.029 A 
HETATM   29  C   UNL     1      31.256  43.607  56.553  1.00  0.00     0.002 A 
HETATM   30  C   UNL     1      31.212  44.343  57.734  1.00  0.00     0.000 A 
HETATM   31  C   UNL     1      30.324  45.409  57.851  1.00  0.00     0.002 A 
HETATM   32  C   UNL     1      29.479  45.732  56.786  1.00  0.00     0.029 A 
ENDBRANCH  23  27
ENDBRANCH  20  21
ENDBRANCH   3  20
TORSDOF 7
ENDMDL
MODEL 6
REMARK VINA RESULT:      -8.1      2.953      9.813
REMARK  7 active torsions:
REMARK  status: ('A' for Active; 'I' for Inactive)
REMARK    1  A    between atoms: C_3  and  C_4 
REMARK    2  A    between atoms: C_4  and  N_5 
REMARK       I    between atoms: N_5  and  C_6 
REMARK    3  A    between atoms: C_6  and  C_7 
REMARK    4  A    between atoms: C_7  and  N_8 
REMARK    5  A    between atoms: C_10  and  C_11 
REMARK    6  A    between atoms: C_11  and  N_12 
REMARK       I    between atoms: N_12  and  C_13 
REMARK       I    between atoms: C_13  and  N_14 
REMARK    7  A    between atoms: N_14  and  C_15 
ROOT
HETATM    1  N   UNL     1      24.543  45.798  49.601  1.00  0.00    -0.057 N 
HETATM    2  H   UNL     1      25.096  46.117  48.782  1.00  0.00     0.281 HD
HETATM    3  C   UNL     1      25.389  44.656  50.180  1.00  0.00     0.206 C 
HETATM    4  C   UNL     1      25.530  43.593  49.078  1.00  0.00     0.035 C 
HETATM    5  C   UNL     1      24.182  43.120  48.543  1.00  0.00     0.004 C 
HETATM    6  C   UNL     1      23.351  44.293  48.038  1.00  0.00     0.028 C 
HETATM    7  C   UNL     1      23.195  45.391  49.082  1.00  0.00     0.236 C 
ENDROOT
BRANCH   1   8
HETATM    8  C   UNL     1      24.518  47.065  50.463  1.00  0.00     0.337 C 
BRANCH   8   9
HETATM    9  C   UNL     1      24.297  48.303  49.593  1.00  0.00     0.243 C 
HETATM   10  N   UNL     1      23.033  48.819  49.607  1.00  0.00    -0.355 N 
HETATM   11  H   UNL     1      22.318  48.468  50.234  1.00  0.00     0.162 HD
HETATM   12  O   UNL     1      25.230  48.738  48.918  1.00  0.00    -0.272 OA
BRANCH  10  13
HETATM   13  C   UNL     1      22.653  49.937  48.764  1.00  0.00     0.169 C 
BRANCH  13  14
HETATM   14  C   UNL     1      21.309  49.624  48.180  1.00  0.00     0.006 A 
HETATM   15  C   UNL     1      20.182  50.428  48.073  1.00  0.00    -0.047 A 
HETATM   16  C   UNL     1      20.067  51.854  48.508  1.00  0.00     0.049 C 
HETATM   17  C   UNL     1      19.101  49.717  47.452  1.00  0.00     0.015 A 
HETATM   18  C   UNL     1      19.431  48.424  47.122  1.00  0.00     0.051 A 
HETATM   19  S   UNL     1      21.037  48.050  47.545  1.00  0.00    -0.104 SA
ENDBRANCH  13  14
ENDBRANCH  10  13
ENDBRANCH   8   9
ENDBRANCH   1   8
BRANCH   3  20
HETATM   20  C   UNL     1      24.789  44.089  51.505  1.00  0.00     0.157 C 
BRANCH  20  21
HETATM   21  N   UNL     1      25.752  43.457  52.389  1.00  0.00    -0.341 N 
HETATM   22  C   UNL     1      26.691  44.232  53.048  1.00  0.00     0.320 C 
HETATM   23  N   UNL     1      27.505  43.458  53.837  1.00  0.00    -0.309 N 
HETATM   24  O   UNL     1      26.749  45.438  52.856  1.00  0.00    -0.247 OA
HETATM   25  H   UNL     1      27.357  42.460  53.795  1.00  0.00     0.170 HD
HETATM   26  H   UNL     1      25.439  42.647  52.911  1.00  0.00     0.164 HD
BRANCH  23  27
HETATM   27  C   UNL     1      28.603  43.875  54.616  1.00  0.00     0.036 A 
HETATM   28  C   UNL     1      28.667  45.100  55.284  1.00  0.00     0.029 A 
HETATM   29  C   UNL     1      29.804  45.442  56.024  1.00  0.00     0.002 A 
HETATM   30  C   UNL     1      30.882  44.563  56.105  1.00  0.00     0.000 A 
HETATM   31  C   UNL     1      30.825  43.337  55.448  1.00  0.00     0.002 A 
HETATM   32  C   UNL     1      29.691  42.996  54.707  1.00  0.00     0.029 A 
ENDBRANCH  23  27
ENDBRANCH  20  21
ENDBRANCH   3  20
TORSDOF 7
ENDMDL
MODEL 7
REMARK VINA RESULT:      -8.0      3.073      9.903
REMARK  7 active torsions:
REMARK  status: ('A' for Active; 'I' for Inactive)
REMARK    1  A    between atoms: C_3  and  C_4 
REMARK    2  A    between atoms: C_4  and  N_5 
REMARK       I    between atoms: N_5  and  C_6 
REMARK    3  A    between atoms: C_6  and  C_7 
REMARK    4  A    between atoms: C_7  and  N_8 
REMARK    5  A    between atoms: C_10  and  C_11 
REMARK    6  A    between atoms: C_11  and  N_12 
REMARK       I    between atoms: N_12  and  C_13 
REMARK       I    between atoms: C_13  and  N_14 
REMARK    7  A    between atoms: N_14  and  C_15 
ROOT
HETATM    1  N   UNL     1      23.910  44.489  48.987  1.00  0.00    -0.057 N 
HETATM    2  H   UNL     1      23.972  44.524  47.951  1.00  0.00     0.281 HD
HETATM    3  C   UNL     1      25.289  43.966  49.410  1.00  0.00     0.206 C 
HETATM    4  C   UNL     1      25.470  42.586  48.756  1.00  0.00     0.035 C 
HETATM    5  C   UNL     1      24.338  41.621  49.100  1.00  0.00     0.004 C 
HETATM    6  C   UNL     1      22.984  42.209  48.721  1.00  0.00     0.028 C 
HETATM    7  C   UNL     1      22.757  43.589  49.322  1.00  0.00     0.236 C 
ENDROOT
BRANCH   1   8
HETATM    8  C   UNL     1      23.663  45.964  49.324  1.00  0.00     0.337 C 
BRANCH   8   9
HETATM    9  C   UNL     1      22.541  46.534  48.457  1.00  0.00     0.243 C 
HETATM   10  N   UNL     1      21.544  47.183  49.129  1.00  0.00    -0.355 N 
HETATM   11  H   UNL     1      21.600  47.366  50.124  1.00  0.00     0.162 HD
HETATM   12  O   UNL     1      22.571  46.355  47.240  1.00  0.00    -0.272 OA
BRANCH  10  13
HETATM   13  C   UNL     1      20.371  47.698  48.448  1.00  0.00     0.169 C 
BRANCH  13  14
HETATM   14  C   UNL     1      20.185  49.119  48.885  1.00  0.00     0.006 A 
HETATM   15  C   UNL     1      20.928  50.247  48.563  1.00  0.00    -0.047 A 
HETATM   16  C   UNL     1      22.108  50.299  47.647  1.00  0.00     0.049 C 
HETATM   17  C   UNL     1      20.402  51.412  49.218  1.00  0.00     0.015 A 
HETATM   18  C   UNL     1      19.308  51.136  50.002  1.00  0.00     0.051 A 
HETATM   19  S   UNL     1      18.894  49.486  49.959  1.00  0.00    -0.104 SA
ENDBRANCH  13  14
ENDBRANCH  10  13
ENDBRANCH   8   9
ENDBRANCH   1   8
BRANCH   3  20
HETATM   20  C   UNL     1      25.460  43.936  50.961  1.00  0.00     0.157 C 
BRANCH  20  21
HETATM   21  N   UNL     1      26.833  43.828  51.422  1.00  0.00    -0.341 N 
HETATM   22  C   UNL     1      27.135  44.096  52.746  1.00  0.00     0.320 C 
HETATM   23  N   UNL     1      28.477  43.936  52.988  1.00  0.00    -0.309 N 
HETATM   24  O   UNL     1      26.266  44.469  53.521  1.00  0.00    -0.247 OA
HETATM   25  H   UNL     1      29.054  43.708  52.193  1.00  0.00     0.170 HD
HETATM   26  H   UNL     1      27.406  43.109  50.999  1.00  0.00     0.164 HD
BRANCH  23  27
HETATM   27  C   UNL     1      29.170  44.163  54.195  1.00  0.00     0.036 A 
HETATM   28  C   UNL     1      28.979  45.282  55.007  1.00  0.00     0.029 A 
HETATM   29  C   UNL     1      29.723  45.437  56.182  1.00  0.00     0.002 A 
HETATM   30  C   UNL     1      30.659  44.476  56.554  1.00  0.00     0.000 A 
HETATM   31  C   UNL     1      30.852  43.353  55.754  1.00  0.00     0.002 A 
HETATM   32  C   UNL     1      30.111  43.199  54.579  1.00  0.00     0.029 A 
ENDBRANCH  23  27
ENDBRANCH  20  21
ENDBRANCH   3  20
TORSDOF 7
ENDMDL
MODEL 8
REMARK VINA RESULT:      -8.0      2.868     10.076
REMARK  7 active torsions:
REMARK  status: ('A' for Active; 'I' for Inactive)
REMARK    1  A    between atoms: C_3  and  C_4 
REMARK    2  A    between atoms: C_4  and  N_5 
REMARK       I    between atoms: N_5  and  C_6 
REMARK    3  A    between atoms: C_6  and  C_7 
REMARK    4  A    between atoms: C_7  and  N_8 
REMARK    5  A    between atoms: C_10  and  C_11 
REMARK    6  A    between atoms: C_11  and  N_12 
REMARK       I    between atoms: N_12  and  C_13 
REMARK       I    between atoms: C_13  and  N_14 
REMARK    7  A    between atoms: N_14  and  C_15 
ROOT
HETATM    1  N   UNL     1      24.948  45.354  51.402  1.00  0.00    -0.057 N 
HETATM    2  H   UNL     1      23.961  45.599  51.616  1.00  0.00     0.281 HD
HETATM    3  C   UNL     1      25.265  44.240  52.409  1.00  0.00     0.206 C 
HETATM    4  C   UNL     1      25.065  44.830  53.815  1.00  0.00     0.035 C 
HETATM    5  C   UNL     1      25.893  46.091  54.045  1.00  0.00     0.004 C 
HETATM    6  C   UNL     1      25.592  47.144  52.986  1.00  0.00     0.028 C 
HETATM    7  C   UNL     1      25.751  46.610  51.569  1.00  0.00     0.236 C 
ENDROOT
BRANCH   1   8
HETATM    8  C   UNL     1      24.834  44.880  49.949  1.00  0.00     0.337 C 
BRANCH   8   9
HETATM    9  C   UNL     1      23.484  45.282  49.356  1.00  0.00     0.243 C 
HETATM   10  N   UNL     1      23.315  46.616  49.118  1.00  0.00    -0.355 N 
HETATM   11  H   UNL     1      24.073  47.280  49.228  1.00  0.00     0.162 HD
HETATM   12  O   UNL     1      22.631  44.416  49.161  1.00  0.00    -0.272 OA
BRANCH  10  13
HETATM   13  C   UNL     1      22.055  47.155  48.640  1.00  0.00     0.169 C 
BRANCH  13  14
HETATM   14  C   UNL     1      22.119  48.645  48.786  1.00  0.00     0.006 A 
HETATM   15  C   UNL     1      21.136  49.536  49.193  1.00  0.00    -0.047 A 
HETATM   16  C   UNL     1      19.747  49.187  49.623  1.00  0.00     0.049 C 
HETATM   17  C   UNL     1      21.627  50.885  49.176  1.00  0.00     0.015 A 
HETATM   18  C   UNL     1      22.933  50.974  48.759  1.00  0.00     0.051 A 
HETATM   19  S   UNL     1      23.588  49.446  48.391  1.00  0.00    -0.104 SA
ENDBRANCH  13  14
ENDBRANCH  10  13
ENDBRANCH   8   9
ENDBRANCH   1   8
BRANCH   3  20
HETATM   20  C   UNL     1      26.689  43.637  52.193  1.00  0.00     0.157 C 
BRANCH  20  21
HETATM   21  N   UNL     1      27.762  44.354  52.860  1.00  0.00    -0.341 N 
HETATM   22  C   UNL     1      28.330  43.827  54.007  1.00  0.00     0.320 C 
HETATM   23  N   UNL     1      29.325  44.643  54.484  1.00  0.00    -0.309 N 
HETATM   24  O   UNL     1      27.905  42.788  54.492  1.00  0.00    -0.247 OA
HETATM   25  H   UNL     1      29.472  45.511  53.991  1.00  0.00     0.170 HD
HETATM   26  H   UNL     1      28.406  44.870  52.273  1.00  0.00     0.164 HD
BRANCH  23  27
HETATM   27  C   UNL     1      30.097  44.471  55.652  1.00  0.00     0.036 A 
HETATM   28  C   UNL     1      30.952  43.390  55.871  1.00  0.00     0.029 A 
HETATM   29  C   UNL     1      31.670  43.289  57.068  1.00  0.00     0.002 A 
HETATM   30  C   UNL     1      31.543  44.269  58.050  1.00  0.00     0.000 A 
HETATM   31  C   UNL     1      30.697  45.354  57.837  1.00  0.00     0.002 A 
HETATM   32  C   UNL     1      29.978  45.454  56.644  1.00  0.00     0.029 A 
ENDBRANCH  23  27
ENDBRANCH  20  21
ENDBRANCH   3  20
TORSDOF 7
ENDMDL
MODEL 9
REMARK VINA RESULT:      -7.7      4.961      9.219
REMARK  7 active torsions:
REMARK  status: ('A' for Active; 'I' for Inactive)
REMARK    1  A    between atoms: C_3  and  C_4 
REMARK    2  A    between atoms: C_4  and  N_5 
REMARK       I    between atoms: N_5  and  C_6 
REMARK    3  A    between atoms: C_6  and  C_7 
REMARK    4  A    between atoms: C_7  and  N_8 
REMARK    5  A    between atoms: C_10  and  C_11 
REMARK    6  A    between atoms: C_11  and  N_12 
REMARK       I    between atoms: N_12  and  C_13 
REMARK       I    between atoms: C_13  and  N_14 
REMARK    7  A    between atoms: N_14  and  C_15 
ROOT
HETATM    1  N   UNL     1      26.160  43.991  50.538  1.00  0.00    -0.057 N 
HETATM    2  H   UNL     1      25.804  43.771  49.587  1.00  0.00     0.281 HD
HETATM    3  C   UNL     1      24.919  44.522  51.269  1.00  0.00     0.206 C 
HETATM    4  C   UNL     1      24.429  45.755  50.492  1.00  0.00     0.035 C 
HETATM    5  C   UNL     1      25.515  46.813  50.324  1.00  0.00     0.004 C 
HETATM    6  C   UNL     1      26.751  46.226  49.653  1.00  0.00     0.028 C 
HETATM    7  C   UNL     1      27.271  44.985  50.366  1.00  0.00     0.236 C 
ENDROOT
BRANCH   1   8
HETATM    8  C   UNL     1      26.631  42.612  51.012  1.00  0.00     0.337 C 
BRANCH   8   9
HETATM    9  C   UNL     1      26.932  41.706  49.818  1.00  0.00     0.243 C 
HETATM   10  N   UNL     1      28.091  40.987  49.897  1.00  0.00    -0.355 N 
HETATM   11  H   UNL     1      28.657  40.975  50.738  1.00  0.00     0.162 HD
HETATM   12  O   UNL     1      26.160  41.697  48.860  1.00  0.00    -0.272 OA
BRANCH  10  13
HETATM   13  C   UNL     1      28.551  40.154  48.802  1.00  0.00     0.169 C 
BRANCH  13  14
HETATM   14  C   UNL     1      28.030  38.769  49.041  1.00  0.00     0.006 A 
HETATM   15  C   UNL     1      28.534  37.763  49.855  1.00  0.00    -0.047 A 
HETATM   16  C   UNL     1      29.741  37.855  50.732  1.00  0.00     0.049 C 
HETATM   17  C   UNL     1      27.721  36.583  49.774  1.00  0.00     0.015 A 
HETATM   18  C   UNL     1      26.655  36.724  48.917  1.00  0.00     0.051 A 
HETATM   19  S   UNL     1      26.613  38.270  48.206  1.00  0.00    -0.104 SA
ENDBRANCH  13  14
ENDBRANCH  10  13
ENDBRANCH   8   9
ENDBRANCH   1   8
BRANCH   3  20
HETATM   20  C   UNL     1      25.202  44.818  52.775  1.00  0.00     0.157 C 
BRANCH  20  21
HETATM   21  N   UNL     1      26.580  45.165  53.080  1.00  0.00    -0.341 N 
HETATM   22  C   UNL     1      27.191  44.627  54.199  1.00  0.00     0.320 C 
HETATM   23  N   UNL     1      28.486  45.067  54.314  1.00  0.00    -0.309 N 
HETATM   24  O   UNL     1      26.569  43.900  54.960  1.00  0.00    -0.247 OA
HETATM   25  H   UNL     1      28.796  45.741  53.629  1.00  0.00     0.170 HD
HETATM   26  H   UNL     1      27.202  45.316  52.295  1.00  0.00     0.164 HD
BRANCH  23  27
HETATM   27  C   UNL     1      29.408  44.782  55.341  1.00  0.00     0.036 A 
HETATM   28  C   UNL     1      29.592  45.581  56.471  1.00  0.00     0.029 A 
HETATM   29  C   UNL     1      30.542  45.232  57.436  1.00  0.00     0.002 A 
HETATM   30  C   UNL     1      31.312  44.081  57.282  1.00  0.00     0.000 A 
HETATM   31  C   UNL     1      31.132  43.275  56.162  1.00  0.00     0.002 A 
HETATM   32  C   UNL     1      30.185  43.624  55.196  1.00  0.00     0.029 A 
ENDBRANCH  23  27
ENDBRANCH  20  21
ENDBRANCH   3  20
TORSDOF 7
ENDMDL
MODEL 10
REMARK VINA RESULT:      -7.5      4.111      9.964
REMARK  7 active torsions:
REMARK  status: ('A' for Active; 'I' for Inactive)
REMARK    1  A    between atoms: C_3  and  C_4 
REMARK    2  A    between atoms: C_4  and  N_5 
REMARK       I    between atoms: N_5  and  C_6 
REMARK    3  A    between atoms: C_6  and  C_7 
REMARK    4  A    between atoms: C_7  and  N_8 
REMARK    5  A    between atoms: C_10  and  C_11 
REMARK    6  A    between atoms: C_11  and  N_12 
REMARK       I    between atoms: N_12  and  C_13 
REMARK       I    between atoms: C_13  and  N_14 
REMARK    7  A    between atoms: N_14  and  C_15 
ROOT
HETATM    1  N   UNL     1      25.186  45.364  51.743  1.00  0.00    -0.057 N 
HETATM    2  H   UNL     1      24.192  45.605  51.925  1.00  0.00     0.281 HD
HETATM    3  C   UNL     1      25.462  44.222  52.732  1.00  0.00     0.206 C 
HETATM    4  C   UNL     1      25.209  44.775  54.144  1.00  0.00     0.035 C 
HETATM    5  C   UNL     1      26.029  46.028  54.440  1.00  0.00     0.004 C 
HETATM    6  C   UNL     1      25.771  47.109  53.398  1.00  0.00     0.028 C 
HETATM    7  C   UNL     1      25.984  46.613  51.974  1.00  0.00     0.236 C 
ENDROOT
BRANCH   1   8
HETATM    8  C   UNL     1      25.128  44.928  50.275  1.00  0.00     0.337 C 
BRANCH   8   9
HETATM    9  C   UNL     1      23.774  45.285  49.661  1.00  0.00     0.243 C 
HETATM   10  N   UNL     1      23.666  46.552  49.162  1.00  0.00    -0.355 N 
HETATM   11  H   UNL     1      24.462  47.176  49.108  1.00  0.00     0.162 HD
HETATM   12  O   UNL     1      22.868  44.452  49.677  1.00  0.00    -0.272 OA
BRANCH  10  13
HETATM   13  C   UNL     1      22.415  47.060  48.629  1.00  0.00     0.169 C 
BRANCH  13  14
HETATM   14  C   UNL     1      22.421  48.547  48.808  1.00  0.00     0.006 A 
HETATM   15  C   UNL     1      21.387  49.398  49.175  1.00  0.00    -0.047 A 
HETATM   16  C   UNL     1      19.988  48.996  49.516  1.00  0.00     0.049 C 
HETATM   17  C   UNL     1      21.833  50.762  49.213  1.00  0.00     0.015 A 
HETATM   18  C   UNL     1      23.159  50.901  48.876  1.00  0.00     0.051 A 
HETATM   19  S   UNL     1      23.883  49.403  48.516  1.00  0.00    -0.104 SA
ENDBRANCH  13  14
ENDBRANCH  10  13
ENDBRANCH   8   9
ENDBRANCH   1   8
BRANCH   3  20
HETATM   20  C   UNL     1      26.893  43.622  52.555  1.00  0.00     0.157 C 
BRANCH  20  21
HETATM   21  N   UNL     1      26.929  42.187  52.332  1.00  0.00    -0.341 N 
HETATM   22  C   UNL     1      27.366  41.693  51.116  1.00  0.00     0.320 C 
HETATM   23  N   UNL     1      27.332  40.321  51.100  1.00  0.00    -0.309 N 
HETATM   24  O   UNL     1      27.677  42.453  50.209  1.00  0.00    -0.247 OA
HETATM   25  H   UNL     1      26.957  39.869  51.921  1.00  0.00     0.170 HD
HETATM   26  H   UNL     1      27.155  41.602  53.127  1.00  0.00     0.164 HD
BRANCH  23  27
HETATM   27  C   UNL     1      27.652  39.461  50.029  1.00  0.00     0.036 A 
HETATM   28  C   UNL     1      28.903  38.868  49.850  1.00  0.00     0.029 A 
HETATM   29  C   UNL     1      29.141  38.039  48.748  1.00  0.00     0.002 A 
HETATM   30  C   UNL     1      28.131  37.795  47.821  1.00  0.00     0.000 A 
HETATM   31  C   UNL     1      26.878  38.377  47.994  1.00  0.00     0.002 A 
HETATM   32  C   UNL     1      26.641  39.206  49.093  1.00  0.00     0.029 A 
ENDBRANCH  23  27
ENDBRANCH  20  21
ENDBRANCH   3  20
TORSDOF 7
ENDMDL
