MODEL 1
REMARK VINA RESULT:      -8.3      0.000      0.000
REMARK  4 active torsions:
REMARK  status: ('A' for Active; 'I' for Inactive)
REMARK    1  A    between atoms: C_2  and  C_3 
REMARK    2  A    between atoms: C_7  and  N_8 
REMARK       I    between atoms: N_8  and  C_9 
REMARK    3  A    between atoms: C_9  and  C_10 
REMARK    4  A    between atoms: C_12  and  C_13 
ROOT
HETATM    1  N   UNL     1      26.025  46.622  51.105  1.00  0.00    -0.308 N 
HETATM    2  C   UNL     1      26.054  46.716  52.487  1.00  0.00     0.257 C 
HETATM    3  O   UNL     1      25.432  47.548  53.145  1.00  0.00    -0.267 OA
HETATM    4  H   UNL     1      26.495  45.865  50.627  1.00  0.00     0.170 HD
ENDROOT
BRANCH   2   5
HETATM    5  C   UNL     1      26.881  45.694  53.188  1.00  0.00     0.033 A 
HETATM    6  C   UNL     1      27.620  45.996  54.341  1.00  0.00     0.029 A 
HETATM    7  C   UNL     1      28.415  45.014  54.949  1.00  0.00    -0.023 A 
HETATM    8  C   UNL     1      28.449  43.726  54.401  1.00  0.00     0.012 A 
HETATM    9  C   UNL     1      27.690  43.413  53.271  1.00  0.00     0.002 A 
HETATM   10  C   UNL     1      26.904  44.395  52.667  1.00  0.00     0.017 A 
BRANCH   7  11
HETATM   11  C   UNL     1      29.212  45.323  56.123  1.00  0.00    -0.002 A 
HETATM   12  C   UNL     1      30.527  44.942  56.298  1.00  0.00     0.153 A 
HETATM   13  O   UNL     1      30.999  45.376  57.495  1.00  0.00    -0.334 OA
HETATM   14  C   UNL     1      29.988  46.052  58.096  1.00  0.00     0.142 A 
HETATM   15  C   UNL     1      28.871  46.056  57.293  1.00  0.00     0.038 A 
ENDBRANCH   7  11
ENDBRANCH   2   5
BRANCH   1  16
HETATM   16  C   UNL     1      25.272  47.486  50.335  1.00  0.00     0.126 A 
HETATM   17  N   UNL     1      23.903  47.538  50.336  1.00  0.00    -0.262 N 
HETATM   18  N   UNL     1      23.398  48.449  49.484  1.00  0.00    -0.178 NA
HETATM   19  H   UNL     1      23.276  46.960  50.893  1.00  0.00     0.191 HD
HETATM   20  C   UNL     1      24.482  49.001  48.926  1.00  0.00     0.058 A 
HETATM   21  C   UNL     1      25.680  48.437  49.432  1.00  0.00     0.079 A 
BRANCH  20  22
HETATM   22  C   UNL     1      24.341  50.076  47.902  1.00  0.00     0.056 C 
HETATM   23  C   UNL     1      23.199  51.031  48.217  1.00  0.00     0.011 C 
ENDBRANCH  20  22
ENDBRANCH   1  16
TORSDOF 4
ENDMDL
MODEL 2
REMARK VINA RESULT:      -8.2      1.726      2.189
REMARK  4 active torsions:
REMARK  status: ('A' for Active; 'I' for Inactive)
REMARK    1  A    between atoms: C_2  and  C_3 
REMARK    2  A    between atoms: C_7  and  N_8 
REMARK       I    between atoms: N_8  and  C_9 
REMARK    3  A    between atoms: C_9  and  C_10 
REMARK    4  A    between atoms: C_12  and  C_13 
ROOT
HETATM    1  N   UNL     1      27.000  45.285  51.608  1.00  0.00    -0.308 N 
HETATM    2  C   UNL     1      26.901  44.651  52.837  1.00  0.00     0.257 C 
HETATM    3  O   UNL     1      25.853  44.490  53.458  1.00  0.00    -0.267 OA
HETATM    4  H   UNL     1      27.879  45.316  51.110  1.00  0.00     0.170 HD
ENDROOT
BRANCH   2   5
HETATM    5  C   UNL     1      28.174  44.108  53.388  1.00  0.00     0.033 A 
HETATM    6  C   UNL     1      28.665  44.493  54.644  1.00  0.00     0.029 A 
HETATM    7  C   UNL     1      29.886  43.986  55.112  1.00  0.00    -0.023 A 
HETATM    8  C   UNL     1      30.600  43.081  54.317  1.00  0.00     0.012 A 
HETATM    9  C   UNL     1      30.099  42.672  53.079  1.00  0.00     0.002 A 
HETATM   10  C   UNL     1      28.886  43.182  52.617  1.00  0.00     0.017 A 
BRANCH   7  11
HETATM   11  C   UNL     1      30.424  44.403  56.395  1.00  0.00    -0.002 A 
HETATM   12  C   UNL     1      31.377  43.705  57.109  1.00  0.00     0.153 A 
HETATM   13  O   UNL     1      31.674  44.345  58.269  1.00  0.00    -0.334 OA
HETATM   14  C   UNL     1      30.917  45.470  58.304  1.00  0.00     0.142 A 
HETATM   15  C   UNL     1      30.138  45.558  57.174  1.00  0.00     0.038 A 
ENDBRANCH   7  11
ENDBRANCH   2   5
BRANCH   1  16
HETATM   16  C   UNL     1      25.892  45.805  50.969  1.00  0.00     0.126 A 
HETATM   17  N   UNL     1      24.864  45.055  50.460  1.00  0.00    -0.262 N 
HETATM   18  N   UNL     1      23.907  45.789  49.863  1.00  0.00    -0.178 NA
HETATM   19  H   UNL     1      24.785  44.040  50.487  1.00  0.00     0.191 HD
HETATM   20  C   UNL     1      24.335  47.050  50.003  1.00  0.00     0.058 A 
HETATM   21  C   UNL     1      25.570  47.112  50.696  1.00  0.00     0.079 A 
BRANCH  20  22
HETATM   22  C   UNL     1      23.536  48.185  49.459  1.00  0.00     0.056 C 
HETATM   23  C   UNL     1      22.496  47.728  48.447  1.00  0.00     0.011 C 
ENDBRANCH  20  22
ENDBRANCH   1  16
TORSDOF 4
ENDMDL
MODEL 3
REMARK VINA RESULT:      -8.2      4.634      7.194
REMARK  4 active torsions:
REMARK  status: ('A' for Active; 'I' for Inactive)
REMARK    1  A    between atoms: C_2  and  C_3 
REMARK    2  A    between atoms: C_7  and  N_8 
REMARK       I    between atoms: N_8  and  C_9 
REMARK    3  A    between atoms: C_9  and  C_10 
REMARK    4  A    between atoms: C_12  and  C_13 
ROOT
HETATM    1  N   UNL     1      28.860  41.738  51.846  1.00  0.00    -0.308 N 
HETATM    2  C   UNL     1      28.697  41.599  53.215  1.00  0.00     0.257 C 
HETATM    3  O   UNL     1      28.392  40.551  53.780  1.00  0.00    -0.267 OA
HETATM    4  H   UNL     1      29.191  42.608  51.449  1.00  0.00     0.170 HD
ENDROOT
BRANCH   2   5
HETATM    5  C   UNL     1      28.958  42.822  54.025  1.00  0.00     0.033 A 
HETATM    6  C   UNL     1      28.056  43.896  54.063  1.00  0.00     0.029 A 
HETATM    7  C   UNL     1      28.355  45.045  54.809  1.00  0.00    -0.023 A 
HETATM    8  C   UNL     1      29.557  45.100  55.527  1.00  0.00     0.012 A 
HETATM    9  C   UNL     1      30.442  44.020  55.516  1.00  0.00     0.002 A 
HETATM   10  C   UNL     1      30.141  42.882  54.769  1.00  0.00     0.017 A 
BRANCH   7  11
HETATM   11  C   UNL     1      27.448  46.178  54.828  1.00  0.00    -0.002 A 
HETATM   12  C   UNL     1      26.224  46.212  54.191  1.00  0.00     0.153 A 
HETATM   13  O   UNL     1      25.610  47.407  54.391  1.00  0.00    -0.334 OA
HETATM   14  C   UNL     1      26.435  48.149  55.172  1.00  0.00     0.142 A 
HETATM   15  C   UNL     1      27.573  47.438  55.475  1.00  0.00     0.038 A 
ENDBRANCH   7  11
ENDBRANCH   2   5
BRANCH   1  16
HETATM   16  C   UNL     1      28.682  40.676  50.982  1.00  0.00     0.126 A 
HETATM   17  N   UNL     1      29.160  39.409  51.199  1.00  0.00    -0.262 N 
HETATM   18  N   UNL     1      28.877  38.550  50.202  1.00  0.00    -0.178 NA
HETATM   19  H   UNL     1      29.693  39.093  52.006  1.00  0.00     0.191 HD
HETATM   20  C   UNL     1      28.191  39.292  49.324  1.00  0.00     0.058 A 
HETATM   21  C   UNL     1      28.037  40.629  49.771  1.00  0.00     0.079 A 
BRANCH  20  22
HETATM   22  C   UNL     1      27.691  38.692  48.054  1.00  0.00     0.056 C 
HETATM   23  C   UNL     1      28.697  37.737  47.429  1.00  0.00     0.011 C 
ENDBRANCH  20  22
ENDBRANCH   1  16
TORSDOF 4
ENDMDL
MODEL 4
REMARK VINA RESULT:      -8.2      4.380      6.151
REMARK  4 active torsions:
REMARK  status: ('A' for Active; 'I' for Inactive)
REMARK    1  A    between atoms: C_2  and  C_3 
REMARK    2  A    between atoms: C_7  and  N_8 
REMARK       I    between atoms: N_8  and  C_9 
REMARK    3  A    between atoms: C_9  and  C_10 
REMARK    4  A    between atoms: C_12  and  C_13 
ROOT
HETATM    1  N   UNL     1      27.933  42.252  52.487  1.00  0.00    -0.308 N 
HETATM    2  C   UNL     1      27.396  43.529  52.522  1.00  0.00     0.257 C 
HETATM    3  O   UNL     1      26.535  43.946  51.751  1.00  0.00    -0.267 OA
HETATM    4  H   UNL     1      28.581  41.942  53.200  1.00  0.00     0.170 HD
ENDROOT
BRANCH   2   5
HETATM    5  C   UNL     1      27.898  44.413  53.611  1.00  0.00     0.033 A 
HETATM    6  C   UNL     1      28.936  44.020  54.469  1.00  0.00     0.029 A 
HETATM    7  C   UNL     1      29.355  44.867  55.506  1.00  0.00    -0.023 A 
HETATM    8  C   UNL     1      28.736  46.113  55.663  1.00  0.00     0.012 A 
HETATM    9  C   UNL     1      27.724  46.519  54.791  1.00  0.00     0.002 A 
HETATM   10  C   UNL     1      27.308  45.672  53.764  1.00  0.00     0.017 A 
BRANCH   7  11
HETATM   11  C   UNL     1      30.404  44.459  56.424  1.00  0.00    -0.002 A 
HETATM   12  C   UNL     1      30.678  45.079  57.625  1.00  0.00     0.153 A 
HETATM   13  O   UNL     1      31.715  44.471  58.256  1.00  0.00    -0.334 OA
HETATM   14  C   UNL     1      32.109  43.442  57.464  1.00  0.00     0.142 A 
HETATM   15  C   UNL     1      31.332  43.385  56.331  1.00  0.00     0.038 A 
ENDBRANCH   7  11
ENDBRANCH   2   5
BRANCH   1  16
HETATM   16  C   UNL     1      27.532  41.321  51.550  1.00  0.00     0.126 A 
HETATM   17  N   UNL     1      26.235  40.927  51.351  1.00  0.00    -0.262 N 
HETATM   18  N   UNL     1      26.098  39.991  50.394  1.00  0.00    -0.178 NA
HETATM   19  H   UNL     1      25.416  41.263  51.855  1.00  0.00     0.191 HD
HETATM   20  C   UNL     1      27.349  39.786  49.964  1.00  0.00     0.058 A 
HETATM   21  C   UNL     1      28.282  40.602  50.652  1.00  0.00     0.079 A 
BRANCH  20  22
HETATM   22  C   UNL     1      27.625  38.795  48.884  1.00  0.00     0.056 C 
HETATM   23  C   UNL     1      28.982  38.128  49.043  1.00  0.00     0.011 C 
ENDBRANCH  20  22
ENDBRANCH   1  16
TORSDOF 4
ENDMDL
MODEL 5
REMARK VINA RESULT:      -8.2      1.887      2.395
REMARK  4 active torsions:
REMARK  status: ('A' for Active; 'I' for Inactive)
REMARK    1  A    between atoms: C_2  and  C_3 
REMARK    2  A    between atoms: C_7  and  N_8 
REMARK       I    between atoms: N_8  and  C_9 
REMARK    3  A    between atoms: C_9  and  C_10 
REMARK    4  A    between atoms: C_12  and  C_13 
ROOT
HETATM    1  N   UNL     1      26.564  45.545  51.491  1.00  0.00    -0.308 N 
HETATM    2  C   UNL     1      27.186  44.433  50.945  1.00  0.00     0.257 C 
HETATM    3  O   UNL     1      27.176  44.142  49.751  1.00  0.00    -0.267 OA
HETATM    4  H   UNL     1      26.677  45.773  52.470  1.00  0.00     0.170 HD
ENDROOT
BRANCH   2   5
HETATM    5  C   UNL     1      27.940  43.578  51.903  1.00  0.00     0.033 A 
HETATM    6  C   UNL     1      28.536  44.103  53.060  1.00  0.00     0.029 A 
HETATM    7  C   UNL     1      29.269  43.270  53.918  1.00  0.00    -0.023 A 
HETATM    8  C   UNL     1      29.385  41.908  53.614  1.00  0.00     0.012 A 
HETATM    9  C   UNL     1      28.768  41.377  52.480  1.00  0.00     0.002 A 
HETATM   10  C   UNL     1      28.043  42.210  51.628  1.00  0.00     0.017 A 
BRANCH   7  11
HETATM   11  C   UNL     1      29.920  43.806  55.100  1.00  0.00    -0.002 A 
HETATM   12  C   UNL     1      29.643  45.039  55.655  1.00  0.00     0.153 A 
HETATM   13  O   UNL     1      30.416  45.259  56.750  1.00  0.00    -0.334 OA
HETATM   14  C   UNL     1      31.191  44.158  56.913  1.00  0.00     0.142 A 
HETATM   15  C   UNL     1      30.921  43.233  55.931  1.00  0.00     0.038 A 
ENDBRANCH   7  11
ENDBRANCH   2   5
BRANCH   1  16
HETATM   16  C   UNL     1      25.859  46.438  50.710  1.00  0.00     0.126 A 
HETATM   17  N   UNL     1      24.610  46.206  50.196  1.00  0.00    -0.262 N 
HETATM   18  N   UNL     1      24.139  47.220  49.447  1.00  0.00    -0.178 NA
HETATM   19  H   UNL     1      24.051  45.364  50.323  1.00  0.00     0.191 HD
HETATM   20  C   UNL     1      25.118  48.132  49.490  1.00  0.00     0.058 A 
HETATM   21  C   UNL     1      26.213  47.691  50.274  1.00  0.00     0.079 A 
BRANCH  20  22
HETATM   22  C   UNL     1      24.977  49.427  48.764  1.00  0.00     0.056 C 
HETATM   23  C   UNL     1      26.287  49.889  48.144  1.00  0.00     0.011 C 
ENDBRANCH  20  22
ENDBRANCH   1  16
TORSDOF 4
ENDMDL
MODEL 6
REMARK VINA RESULT:      -8.0      3.136      3.818
REMARK  4 active torsions:
REMARK  status: ('A' for Active; 'I' for Inactive)
REMARK    1  A    between atoms: C_2  and  C_3 
REMARK    2  A    between atoms: C_7  and  N_8 
REMARK       I    between atoms: N_8  and  C_9 
REMARK    3  A    between atoms: C_9  and  C_10 
REMARK    4  A    between atoms: C_12  and  C_13 
ROOT
HETATM    1  N   UNL     1      25.585  44.810  52.475  1.00  0.00    -0.308 N 
HETATM    2  C   UNL     1      26.797  44.253  52.850  1.00  0.00     0.257 C 
HETATM    3  O   UNL     1      27.278  43.233  52.362  1.00  0.00    -0.267 OA
HETATM    4  H   UNL     1      25.281  45.696  52.857  1.00  0.00     0.170 HD
ENDROOT
BRANCH   2   5
HETATM    5  C   UNL     1      27.554  44.996  53.896  1.00  0.00     0.033 A 
HETATM    6  C   UNL     1      28.602  44.405  54.617  1.00  0.00     0.029 A 
HETATM    7  C   UNL     1      29.266  45.127  55.619  1.00  0.00    -0.023 A 
HETATM    8  C   UNL     1      28.881  46.449  55.879  1.00  0.00     0.012 A 
HETATM    9  C   UNL     1      27.859  47.049  55.141  1.00  0.00     0.002 A 
HETATM   10  C   UNL     1      27.199  46.325  54.148  1.00  0.00     0.017 A 
BRANCH   7  11
HETATM   11  C   UNL     1      30.329  44.516  56.398  1.00  0.00    -0.002 A 
HETATM   12  C   UNL     1      30.743  44.957  57.638  1.00  0.00     0.153 A 
HETATM   13  O   UNL     1      31.756  44.185  58.110  1.00  0.00    -0.334 OA
HETATM   14  C   UNL     1      31.993  43.230  57.176  1.00  0.00     0.142 A 
HETATM   15  C   UNL     1      31.139  43.384  56.108  1.00  0.00     0.038 A 
ENDBRANCH   7  11
ENDBRANCH   2   5
BRANCH   1  16
HETATM   16  C   UNL     1      24.797  44.241  51.493  1.00  0.00     0.126 A 
HETATM   17  N   UNL     1      24.589  42.895  51.347  1.00  0.00    -0.262 N 
HETATM   18  N   UNL     1      23.800  42.583  50.302  1.00  0.00    -0.178 NA
HETATM   19  H   UNL     1      24.977  42.155  51.930  1.00  0.00     0.191 HD
HETATM   20  C   UNL     1      23.490  43.771  49.769  1.00  0.00     0.058 A 
HETATM   21  C   UNL     1      24.085  44.840  50.484  1.00  0.00     0.079 A 
BRANCH  20  22
HETATM   22  C   UNL     1      22.615  43.854  48.564  1.00  0.00     0.056 C 
HETATM   23  C   UNL     1      21.459  44.824  48.753  1.00  0.00     0.011 C 
ENDBRANCH  20  22
ENDBRANCH   1  16
TORSDOF 4
ENDMDL
MODEL 7
REMARK VINA RESULT:      -7.7      3.909      6.521
REMARK  4 active torsions:
REMARK  status: ('A' for Active; 'I' for Inactive)
REMARK    1  A    between atoms: C_2  and  C_3 
REMARK    2  A    between atoms: C_7  and  N_8 
REMARK       I    between atoms: N_8  and  C_9 
REMARK    3  A    between atoms: C_9  and  C_10 
REMARK    4  A    between atoms: C_12  and  C_13 
ROOT
HETATM    1  N   UNL     1      22.138  50.076  49.899  1.00  0.00    -0.308 N 
HETATM    2  C   UNL     1      22.718  49.496  48.781  1.00  0.00     0.257 C 
HETATM    3  O   UNL     1      22.145  49.324  47.707  1.00  0.00    -0.267 OA
HETATM    4  H   UNL     1      22.686  50.263  50.728  1.00  0.00     0.170 HD
ENDROOT
BRANCH   2   5
HETATM    5  C   UNL     1      24.148  49.104  48.923  1.00  0.00     0.033 A 
HETATM    6  C   UNL     1      24.535  47.924  49.575  1.00  0.00     0.029 A 
HETATM    7  C   UNL     1      25.894  47.609  49.720  1.00  0.00    -0.023 A 
HETATM    8  C   UNL     1      26.857  48.479  49.193  1.00  0.00     0.012 A 
HETATM    9  C   UNL     1      26.474  49.639  48.517  1.00  0.00     0.002 A 
HETATM   10  C   UNL     1      25.121  49.950  48.379  1.00  0.00     0.017 A 
BRANCH   7  11
HETATM   11  C   UNL     1      26.310  46.409  50.423  1.00  0.00    -0.002 A 
HETATM   12  C   UNL     1      26.084  46.169  51.763  1.00  0.00     0.153 A 
HETATM   13  O   UNL     1      26.592  44.964  52.129  1.00  0.00    -0.334 OA
HETATM   14  C   UNL     1      27.142  44.414  51.017  1.00  0.00     0.142 A 
HETATM   15  C   UNL     1      26.989  45.256  49.941  1.00  0.00     0.038 A 
ENDBRANCH   7  11
ENDBRANCH   2   5
BRANCH   1  16
HETATM   16  C   UNL     1      20.829  50.514  49.892  1.00  0.00     0.126 A 
HETATM   17  N   UNL     1      19.813  49.940  50.609  1.00  0.00    -0.262 N 
HETATM   18  N   UNL     1      18.620  50.533  50.421  1.00  0.00    -0.178 NA
HETATM   19  H   UNL     1      19.888  49.134  51.227  1.00  0.00     0.191 HD
HETATM   20  C   UNL     1      18.886  51.524  49.561  1.00  0.00     0.058 A 
HETATM   21  C   UNL     1      20.258  51.557  49.206  1.00  0.00     0.079 A 
BRANCH  20  22
HETATM   22  C   UNL     1      17.799  52.430  49.091  1.00  0.00     0.056 C 
HETATM   23  C   UNL     1      16.539  52.310  49.935  1.00  0.00     0.011 C 
ENDBRANCH  20  22
ENDBRANCH   1  16
TORSDOF 4
ENDMDL
MODEL 8
REMARK VINA RESULT:      -7.5      6.693     12.055
REMARK  4 active torsions:
REMARK  status: ('A' for Active; 'I' for Inactive)
REMARK    1  A    between atoms: C_2  and  C_3 
REMARK    2  A    between atoms: C_7  and  N_8 
REMARK       I    between atoms: N_8  and  C_9 
REMARK    3  A    between atoms: C_9  and  C_10 
REMARK    4  A    between atoms: C_12  and  C_13 
ROOT
HETATM    1  N   UNL     1      20.653  50.378  48.324  1.00  0.00    -0.308 N 
HETATM    2  C   UNL     1      19.888  50.962  49.320  1.00  0.00     0.257 C 
HETATM    3  O   UNL     1      20.314  51.297  50.423  1.00  0.00    -0.267 OA
HETATM    4  H   UNL     1      20.263  50.198  47.408  1.00  0.00     0.170 HD
ENDROOT
BRANCH   2   5
HETATM    5  C   UNL     1      18.462  51.218  48.974  1.00  0.00     0.033 A 
HETATM    6  C   UNL     1      17.665  52.107  49.710  1.00  0.00     0.029 A 
HETATM    7  C   UNL     1      16.316  52.293  49.374  1.00  0.00    -0.023 A 
HETATM    8  C   UNL     1      15.780  51.593  48.285  1.00  0.00     0.012 A 
HETATM    9  C   UNL     1      16.579  50.730  47.532  1.00  0.00     0.002 A 
HETATM   10  C   UNL     1      17.919  50.546  47.873  1.00  0.00     0.017 A 
BRANCH   7  11
HETATM   11  C   UNL     1      15.471  53.183  50.148  1.00  0.00    -0.002 A 
HETATM   12  C   UNL     1      14.260  52.826  50.705  1.00  0.00     0.153 A 
HETATM   13  O   UNL     1      13.705  53.874  51.367  1.00  0.00    -0.334 OA
HETATM   14  C   UNL     1      14.567  54.915  51.249  1.00  0.00     0.142 A 
HETATM   15  C   UNL     1      15.671  54.542  50.517  1.00  0.00     0.038 A 
ENDBRANCH   7  11
ENDBRANCH   2   5
BRANCH   1  16
HETATM   16  C   UNL     1      21.997  50.116  48.501  1.00  0.00     0.126 A 
HETATM   17  N   UNL     1      22.526  49.462  49.584  1.00  0.00    -0.262 N 
HETATM   18  N   UNL     1      23.866  49.346  49.540  1.00  0.00    -0.178 NA
HETATM   19  H   UNL     1      22.009  49.091  50.378  1.00  0.00     0.191 HD
HETATM   20  C   UNL     1      24.203  49.941  48.388  1.00  0.00     0.058 A 
HETATM   21  C   UNL     1      23.066  50.432  47.699  1.00  0.00     0.079 A 
BRANCH  20  22
HETATM   22  C   UNL     1      25.631  50.025  47.970  1.00  0.00     0.056 C 
HETATM   23  C   UNL     1      26.547  49.205  48.866  1.00  0.00     0.011 C 
ENDBRANCH  20  22
ENDBRANCH   1  16
TORSDOF 4
ENDMDL
MODEL 9
REMARK VINA RESULT:      -7.3      5.036      7.177
REMARK  4 active torsions:
REMARK  status: ('A' for Active; 'I' for Inactive)
REMARK    1  A    between atoms: C_2  and  C_3 
REMARK    2  A    between atoms: C_7  and  N_8 
REMARK       I    between atoms: N_8  and  C_9 
REMARK    3  A    between atoms: C_9  and  C_10 
REMARK    4  A    between atoms: C_12  and  C_13 
ROOT
HETATM    1  N   UNL     1      27.949  41.065  50.605  1.00  0.00    -0.308 N 
HETATM    2  C   UNL     1      28.476  41.207  51.879  1.00  0.00     0.257 C 
HETATM    3  O   UNL     1      29.119  40.342  52.470  1.00  0.00    -0.267 OA
HETATM    4  H   UNL     1      27.498  41.842  50.141  1.00  0.00     0.170 HD
ENDROOT
BRANCH   2   5
HETATM    5  C   UNL     1      28.257  42.531  52.526  1.00  0.00     0.033 A 
HETATM    6  C   UNL     1      29.023  42.961  53.618  1.00  0.00     0.029 A 
HETATM    7  C   UNL     1      28.761  44.200  54.222  1.00  0.00    -0.023 A 
HETATM    8  C   UNL     1      27.737  45.006  53.711  1.00  0.00     0.012 A 
HETATM    9  C   UNL     1      26.992  44.594  52.604  1.00  0.00     0.002 A 
HETATM   10  C   UNL     1      27.254  43.359  52.010  1.00  0.00     0.017 A 
BRANCH   7  11
HETATM   11  C   UNL     1      29.524  44.642  55.376  1.00  0.00    -0.002 A 
HETATM   12  C   UNL     1      30.640  43.999  55.871  1.00  0.00     0.153 A 
HETATM   13  O   UNL     1      31.130  44.650  56.957  1.00  0.00    -0.334 OA
HETATM   14  C   UNL     1      30.333  45.729  57.162  1.00  0.00     0.142 A 
HETATM   15  C   UNL     1      29.337  45.775  56.215  1.00  0.00     0.038 A 
ENDBRANCH   7  11
ENDBRANCH   2   5
BRANCH   1  16
HETATM   16  C   UNL     1      28.108  39.900  49.880  1.00  0.00     0.126 A 
HETATM   17  N   UNL     1      27.822  38.645  50.351  1.00  0.00    -0.262 N 
HETATM   18  N   UNL     1      28.081  37.666  49.465  1.00  0.00    -0.178 NA
HETATM   19  H   UNL     1      27.462  38.413  51.275  1.00  0.00     0.191 HD
HETATM   20  C   UNL     1      28.540  38.320  48.390  1.00  0.00     0.058 A 
HETATM   21  C   UNL     1      28.569  39.721  48.599  1.00  0.00     0.079 A 
BRANCH  20  22
HETATM   22  C   UNL     1      28.949  37.571  47.167  1.00  0.00     0.056 C 
HETATM   23  C   UNL     1      27.771  37.264  46.255  1.00  0.00     0.011 C 
ENDBRANCH  20  22
ENDBRANCH   1  16
TORSDOF 4
ENDMDL
MODEL 10
REMARK VINA RESULT:      -7.2     10.105     14.107
REMARK  4 active torsions:
REMARK  status: ('A' for Active; 'I' for Inactive)
REMARK    1  A    between atoms: C_2  and  C_3 
REMARK    2  A    between atoms: C_7  and  N_8 
REMARK       I    between atoms: N_8  and  C_9 
REMARK    3  A    between atoms: C_9  and  C_10 
REMARK    4  A    between atoms: C_12  and  C_13 
ROOT
HETATM    1  N   UNL     1      15.412  54.924  51.614  1.00  0.00    -0.308 N 
HETATM    2  C   UNL     1      14.703  53.944  50.938  1.00  0.00     0.257 C 
HETATM    3  O   UNL     1      13.523  53.667  51.144  1.00  0.00    -0.267 OA
HETATM    4  H   UNL     1      16.357  55.160  51.343  1.00  0.00     0.170 HD
ENDROOT
BRANCH   2   5
HETATM    5  C   UNL     1      15.451  53.226  49.868  1.00  0.00     0.033 A 
HETATM    6  C   UNL     1      16.738  52.711  50.077  1.00  0.00     0.029 A 
HETATM    7  C   UNL     1      17.424  52.074  49.032  1.00  0.00    -0.023 A 
HETATM    8  C   UNL     1      16.800  51.944  47.785  1.00  0.00     0.012 A 
HETATM    9  C   UNL     1      15.506  52.429  47.583  1.00  0.00     0.002 A 
HETATM   10  C   UNL     1      14.831  53.065  48.624  1.00  0.00     0.017 A 
BRANCH   7  11
HETATM   11  C   UNL     1      18.771  51.568  49.224  1.00  0.00    -0.002 A 
HETATM   12  C   UNL     1      19.126  50.624  50.167  1.00  0.00     0.153 A 
HETATM   13  O   UNL     1      20.456  50.357  50.104  1.00  0.00    -0.334 OA
HETATM   14  C   UNL     1      20.965  51.124  49.108  1.00  0.00     0.142 A 
HETATM   15  C   UNL     1      19.972  51.880  48.530  1.00  0.00     0.038 A 
ENDBRANCH   7  11
ENDBRANCH   2   5
BRANCH   1  16
HETATM   16  C   UNL     1      14.829  55.687  52.606  1.00  0.00     0.126 A 
HETATM   17  N   UNL     1      13.810  55.261  53.417  1.00  0.00    -0.262 N 
HETATM   18  N   UNL     1      13.395  56.194  54.294  1.00  0.00    -0.178 NA
HETATM   19  H   UNL     1      13.361  54.347  53.396  1.00  0.00     0.191 HD
HETATM   20  C   UNL     1      14.181  57.247  54.038  1.00  0.00     0.058 A 
HETATM   21  C   UNL     1      15.100  56.976  52.994  1.00  0.00     0.079 A 
BRANCH  20  22
HETATM   22  C   UNL     1      14.027  58.511  54.814  1.00  0.00     0.056 C 
HETATM   23  C   UNL     1      15.366  59.106  55.223  1.00  0.00     0.011 C 
ENDBRANCH  20  22
ENDBRANCH   1  16
TORSDOF 4
ENDMDL
