MODEL 1
REMARK VINA RESULT:      -8.9      0.000      0.000
REMARK  7 active torsions:
REMARK  status: ('A' for Active; 'I' for Inactive)
REMARK    1  A    between atoms: C_4  and  C_5 
REMARK    2  A    between atoms: C_5  and  N_6 
REMARK       I    between atoms: N_6  and  C_7 
REMARK    3  A    between atoms: N_6  and  C_22 
REMARK    4  A    between atoms: C_7  and  C_8 
REMARK    5  A    between atoms: C_13  and  C_14 
REMARK    6  A    between atoms: C_15  and  O_16 
REMARK    7  A    between atoms: C_22  and  C_23 
ROOT
HETATM    1  N   UNL     1      25.847  45.465  51.343  1.00  0.00    -0.343 N 
HETATM    2  C   UNL     1      25.380  44.177  51.046  1.00  0.00     0.235 C 
HETATM    3  O   UNL     1      24.635  43.573  51.825  1.00  0.00    -0.272 OA
ENDROOT
BRANCH   2   4
HETATM    4  C   UNL     1      25.844  43.503  49.767  1.00  0.00     0.195 C 
HETATM    5  C   UNL     1      24.701  42.863  49.032  1.00  0.00     0.247 C 
HETATM    6  O   UNL     1      23.797  43.446  48.453  1.00  0.00    -0.271 OA
HETATM    7  N   UNL     1      24.845  41.494  49.110  1.00  0.00    -0.290 N 
HETATM    8  N   UNL     1      25.950  41.087  49.850  1.00  0.00    -0.228 NA
HETATM    9  H   UNL     1      24.106  40.872  48.793  1.00  0.00     0.183 HD
HETATM   10  C   UNL     1      26.788  42.307  49.985  1.00  0.00     0.134 C 
HETATM   11  H   UNL     1      26.482  40.376  49.344  1.00  0.00     0.147 HD
BRANCH  10  12
HETATM   12  C   UNL     1      27.636  42.305  51.237  1.00  0.00    -0.004 A 
HETATM   13  C   UNL     1      27.476  41.320  52.219  1.00  0.00     0.073 A 
HETATM   14  C   UNL     1      28.264  41.309  53.372  1.00  0.00     0.037 A 
HETATM   15  C   UNL     1      29.249  42.279  53.547  1.00  0.00     0.003 A 
HETATM   16  C   UNL     1      29.440  43.258  52.577  1.00  0.00     0.001 A 
HETATM   17  C   UNL     1      28.639  43.273  51.433  1.00  0.00     0.012 A 
BRANCH  13  18
HETATM   18  O   UNL     1      26.539  40.343  52.028  1.00  0.00    -0.360 OA
HETATM   19  H   UNL     1      26.805  39.801  51.266  1.00  0.00     0.217 HD
ENDBRANCH  13  18
ENDBRANCH  10  12
ENDBRANCH   2   4
BRANCH   1  20
HETATM   20  C   UNL     1      25.313  46.094  52.560  1.00  0.00     0.164 C 
BRANCH  20  21
HETATM   21  C   UNL     1      26.325  46.254  53.670  1.00  0.00    -0.040 A 
HETATM   22  C   UNL     1      26.887  45.134  54.301  1.00  0.00     0.009 A 
HETATM   23  C   UNL     1      27.848  45.290  55.300  1.00  0.00     0.001 A 
HETATM   24  C   UNL     1      28.263  46.566  55.679  1.00  0.00     0.000 A 
HETATM   25  C   UNL     1      27.716  47.686  55.059  1.00  0.00     0.001 A 
HETATM   26  C   UNL     1      26.757  47.531  54.057  1.00  0.00     0.009 A 
ENDBRANCH  20  21
ENDBRANCH   1  20
BRANCH   1  27
HETATM   27  C   UNL     1      26.502  46.314  50.339  1.00  0.00     0.164 C 
BRANCH  27  28
HETATM   28  C   UNL     1      25.685  47.437  49.745  1.00  0.00    -0.040 A 
HETATM   29  C   UNL     1      26.303  48.600  49.264  1.00  0.00     0.009 A 
HETATM   30  C   UNL     1      25.545  49.621  48.690  1.00  0.00     0.001 A 
HETATM   31  C   UNL     1      24.162  49.488  48.583  1.00  0.00     0.000 A 
HETATM   32  C   UNL     1      23.536  48.333  49.047  1.00  0.00     0.001 A 
HETATM   33  C   UNL     1      24.293  47.311  49.621  1.00  0.00     0.009 A 
ENDBRANCH  27  28
ENDBRANCH   1  27
TORSDOF 7
ENDMDL
MODEL 2
REMARK VINA RESULT:      -8.7      1.486      5.650
REMARK  7 active torsions:
REMARK  status: ('A' for Active; 'I' for Inactive)
REMARK    1  A    between atoms: C_4  and  C_5 
REMARK    2  A    between atoms: C_5  and  N_6 
REMARK       I    between atoms: N_6  and  C_7 
REMARK    3  A    between atoms: N_6  and  C_22 
REMARK    4  A    between atoms: C_7  and  C_8 
REMARK    5  A    between atoms: C_13  and  C_14 
REMARK    6  A    between atoms: C_15  and  O_16 
REMARK    7  A    between atoms: C_22  and  C_23 
ROOT
HETATM    1  N   UNL     1      25.941  45.647  51.033  1.00  0.00    -0.343 N 
HETATM    2  C   UNL     1      26.324  44.378  50.577  1.00  0.00     0.235 C 
HETATM    3  O   UNL     1      27.033  44.248  49.574  1.00  0.00    -0.272 OA
ENDROOT
BRANCH   2   4
HETATM    4  C   UNL     1      25.813  43.150  51.308  1.00  0.00     0.195 C 
HETATM    5  C   UNL     1      26.884  42.106  51.453  1.00  0.00     0.247 C 
HETATM    6  O   UNL     1      27.873  42.178  52.168  1.00  0.00    -0.271 OA
HETATM    7  N   UNL     1      26.563  41.035  50.646  1.00  0.00    -0.290 N 
HETATM    8  N   UNL     1      25.394  41.216  49.915  1.00  0.00    -0.228 NA
HETATM    9  H   UNL     1      27.223  40.279  50.493  1.00  0.00     0.183 HD
HETATM   10  C   UNL     1      24.717  42.373  50.558  1.00  0.00     0.134 C 
HETATM   11  H   UNL     1      24.788  40.396  49.992  1.00  0.00     0.147 HD
BRANCH  10  12
HETATM   12  C   UNL     1      23.840  43.150  49.602  1.00  0.00    -0.004 A 
HETATM   13  C   UNL     1      24.129  43.203  48.233  1.00  0.00     0.073 A 
HETATM   14  C   UNL     1      23.317  43.912  47.345  1.00  0.00     0.037 A 
HETATM   15  C   UNL     1      22.179  44.563  47.818  1.00  0.00     0.003 A 
HETATM   16  C   UNL     1      21.859  44.510  49.171  1.00  0.00     0.001 A 
HETATM   17  C   UNL     1      22.685  43.813  50.056  1.00  0.00     0.012 A 
BRANCH  13  18
HETATM   18  O   UNL     1      25.222  42.529  47.763  1.00  0.00    -0.360 OA
HETATM   19  H   UNL     1      25.066  42.293  46.833  1.00  0.00     0.217 HD
ENDBRANCH  13  18
ENDBRANCH  10  12
ENDBRANCH   2   4
BRANCH   1  20
HETATM   20  C   UNL     1      26.518  46.801  50.328  1.00  0.00     0.164 C 
BRANCH  20  21
HETATM   21  C   UNL     1      25.500  47.680  49.640  1.00  0.00    -0.040 A 
HETATM   22  C   UNL     1      24.150  47.306  49.574  1.00  0.00     0.009 A 
HETATM   23  C   UNL     1      23.210  48.142  48.969  1.00  0.00     0.001 A 
HETATM   24  C   UNL     1      23.606  49.363  48.426  1.00  0.00     0.000 A 
HETATM   25  C   UNL     1      24.943  49.749  48.488  1.00  0.00     0.001 A 
HETATM   26  C   UNL     1      25.883  48.915  49.096  1.00  0.00     0.009 A 
ENDBRANCH  20  21
ENDBRANCH   1  20
BRANCH   1  27
HETATM   27  C   UNL     1      25.336  45.858  52.355  1.00  0.00     0.164 C 
BRANCH  27  28
HETATM   28  C   UNL     1      26.262  46.245  53.483  1.00  0.00    -0.040 A 
HETATM   29  C   UNL     1      27.268  45.371  53.921  1.00  0.00     0.009 A 
HETATM   30  C   UNL     1      28.138  45.747  54.945  1.00  0.00     0.001 A 
HETATM   31  C   UNL     1      28.018  47.002  55.537  1.00  0.00     0.000 A 
HETATM   32  C   UNL     1      27.030  47.884  55.105  1.00  0.00     0.001 A 
HETATM   33  C   UNL     1      26.159  47.510  54.081  1.00  0.00     0.009 A 
ENDBRANCH  27  28
ENDBRANCH   1  27
TORSDOF 7
ENDMDL
MODEL 3
REMARK VINA RESULT:      -8.6      1.598      5.613
REMARK  7 active torsions:
REMARK  status: ('A' for Active; 'I' for Inactive)
REMARK    1  A    between atoms: C_4  and  C_5 
REMARK    2  A    between atoms: C_5  and  N_6 
REMARK       I    between atoms: N_6  and  C_7 
REMARK    3  A    between atoms: N_6  and  C_22 
REMARK    4  A    between atoms: C_7  and  C_8 
REMARK    5  A    between atoms: C_13  and  C_14 
REMARK    6  A    between atoms: C_15  and  O_16 
REMARK    7  A    between atoms: C_22  and  C_23 
ROOT
HETATM    1  N   UNL     1      26.003  44.919  50.750  1.00  0.00    -0.343 N 
HETATM    2  C   UNL     1      26.107  43.680  50.103  1.00  0.00     0.235 C 
HETATM    3  O   UNL     1      26.790  43.549  49.082  1.00  0.00    -0.272 OA
ENDROOT
BRANCH   2   4
HETATM    4  C   UNL     1      25.326  42.498  50.648  1.00  0.00     0.195 C 
HETATM    5  C   UNL     1      26.155  41.245  50.664  1.00  0.00     0.247 C 
HETATM    6  O   UNL     1      27.104  41.016  51.399  1.00  0.00    -0.271 OA
HETATM    7  N   UNL     1      25.660  40.381  49.711  1.00  0.00    -0.290 N 
HETATM    8  N   UNL     1      24.586  40.895  48.993  1.00  0.00    -0.228 NA
HETATM    9  H   UNL     1      26.160  39.531  49.467  1.00  0.00     0.183 HD
HETATM   10  C   UNL     1      24.129  42.071  49.779  1.00  0.00     0.134 C 
HETATM   11  H   UNL     1      23.824  40.214  48.945  1.00  0.00     0.147 HD
BRANCH  10  12
HETATM   12  C   UNL     1      23.472  43.133  48.925  1.00  0.00    -0.004 A 
HETATM   13  C   UNL     1      22.571  44.051  49.476  1.00  0.00     0.073 A 
HETATM   14  C   UNL     1      21.970  45.039  48.693  1.00  0.00     0.037 A 
HETATM   15  C   UNL     1      22.286  45.137  47.339  1.00  0.00     0.003 A 
HETATM   16  C   UNL     1      23.193  44.247  46.772  1.00  0.00     0.001 A 
HETATM   17  C   UNL     1      23.779  43.252  47.557  1.00  0.00     0.012 A 
BRANCH  13  18
HETATM   18  O   UNL     1      22.293  43.982  50.813  1.00  0.00    -0.360 OA
HETATM   19  H   UNL     1      22.617  44.793  51.240  1.00  0.00     0.217 HD
ENDBRANCH  13  18
ENDBRANCH  10  12
ENDBRANCH   2   4
BRANCH   1  20
HETATM   20  C   UNL     1      26.832  46.010  50.219  1.00  0.00     0.164 C 
BRANCH  20  21
HETATM   21  C   UNL     1      26.046  47.202  49.722  1.00  0.00    -0.040 A 
HETATM   22  C   UNL     1      26.698  48.351  49.251  1.00  0.00     0.009 A 
HETATM   23  C   UNL     1      25.966  49.431  48.760  1.00  0.00     0.001 A 
HETATM   24  C   UNL     1      24.573  49.377  48.729  1.00  0.00     0.000 A 
HETATM   25  C   UNL     1      23.913  48.241  49.189  1.00  0.00     0.001 A 
HETATM   26  C   UNL     1      24.645  47.158  49.679  1.00  0.00     0.009 A 
ENDBRANCH  20  21
ENDBRANCH   1  20
BRANCH   1  27
HETATM   27  C   UNL     1      25.434  45.056  52.097  1.00  0.00     0.164 C 
BRANCH  27  28
HETATM   28  C   UNL     1      26.297  45.713  53.148  1.00  0.00    -0.040 A 
HETATM   29  C   UNL     1      25.997  46.996  53.627  1.00  0.00     0.009 A 
HETATM   30  C   UNL     1      26.782  47.585  54.619  1.00  0.00     0.001 A 
HETATM   31  C   UNL     1      27.871  46.895  55.149  1.00  0.00     0.000 A 
HETATM   32  C   UNL     1      28.174  45.616  54.688  1.00  0.00     0.001 A 
HETATM   33  C   UNL     1      27.390  45.025  53.697  1.00  0.00     0.009 A 
ENDBRANCH  27  28
ENDBRANCH   1  27
TORSDOF 7
ENDMDL
MODEL 4
REMARK VINA RESULT:      -8.6      1.837      5.895
REMARK  7 active torsions:
REMARK  status: ('A' for Active; 'I' for Inactive)
REMARK    1  A    between atoms: C_4  and  C_5 
REMARK    2  A    between atoms: C_5  and  N_6 
REMARK       I    between atoms: N_6  and  C_7 
REMARK    3  A    between atoms: N_6  and  C_22 
REMARK    4  A    between atoms: C_7  and  C_8 
REMARK    5  A    between atoms: C_13  and  C_14 
REMARK    6  A    between atoms: C_15  and  O_16 
REMARK    7  A    between atoms: C_22  and  C_23 
ROOT
HETATM    1  N   UNL     1      26.881  44.066  50.846  1.00  0.00    -0.343 N 
HETATM    2  C   UNL     1      26.844  42.941  50.010  1.00  0.00     0.235 C 
HETATM    3  O   UNL     1      27.217  43.007  48.834  1.00  0.00    -0.272 OA
ENDROOT
BRANCH   2   4
HETATM    4  C   UNL     1      26.289  41.638  50.557  1.00  0.00     0.195 C 
HETATM    5  C   UNL     1      27.187  40.476  50.238  1.00  0.00     0.247 C 
HETATM    6  O   UNL     1      28.290  40.262  50.719  1.00  0.00    -0.271 OA
HETATM    7  N   UNL     1      26.554  39.676  49.312  1.00  0.00    -0.290 N 
HETATM    8  N   UNL     1      25.313  40.158  48.909  1.00  0.00    -0.228 NA
HETATM    9  H   UNL     1      27.045  38.908  48.861  1.00  0.00     0.183 HD
HETATM   10  C   UNL     1      24.962  41.194  49.916  1.00  0.00     0.134 C 
HETATM   11  H   UNL     1      24.609  39.416  48.940  1.00  0.00     0.147 HD
BRANCH  10  12
HETATM   12  C   UNL     1      24.058  42.273  49.362  1.00  0.00    -0.004 A 
HETATM   13  C   UNL     1      24.107  42.636  48.010  1.00  0.00     0.073 A 
HETATM   14  C   UNL     1      23.267  43.624  47.493  1.00  0.00     0.037 A 
HETATM   15  C   UNL     1      22.341  44.252  48.325  1.00  0.00     0.003 A 
HETATM   16  C   UNL     1      22.261  43.895  49.667  1.00  0.00     0.001 A 
HETATM   17  C   UNL     1      23.114  42.917  50.182  1.00  0.00     0.012 A 
BRANCH  13  18
HETATM   18  O   UNL     1      24.985  41.991  47.185  1.00  0.00    -0.360 OA
HETATM   19  H   UNL     1      25.890  42.234  47.443  1.00  0.00     0.217 HD
ENDBRANCH  13  18
ENDBRANCH  10  12
ENDBRANCH   2   4
BRANCH   1  20
HETATM   20  C   UNL     1      27.489  45.281  50.286  1.00  0.00     0.164 C 
BRANCH  20  21
HETATM   21  C   UNL     1      26.503  46.383  49.977  1.00  0.00    -0.040 A 
HETATM   22  C   UNL     1      26.942  47.654  49.576  1.00  0.00     0.009 A 
HETATM   23  C   UNL     1      26.024  48.654  49.257  1.00  0.00     0.001 A 
HETATM   24  C   UNL     1      24.655  48.398  49.331  1.00  0.00     0.000 A 
HETATM   25  C   UNL     1      24.205  47.140  49.723  1.00  0.00     0.001 A 
HETATM   26  C   UNL     1      25.123  46.137  50.040  1.00  0.00     0.009 A 
ENDBRANCH  20  21
ENDBRANCH   1  20
BRANCH   1  27
HETATM   27  C   UNL     1      26.708  43.970  52.301  1.00  0.00     0.164 C 
BRANCH  27  28
HETATM   28  C   UNL     1      27.959  43.872  53.141  1.00  0.00    -0.040 A 
HETATM   29  C   UNL     1      28.119  44.662  54.289  1.00  0.00     0.009 A 
HETATM   30  C   UNL     1      29.265  44.545  55.076  1.00  0.00     0.001 A 
HETATM   31  C   UNL     1      30.260  43.633  54.730  1.00  0.00     0.000 A 
HETATM   32  C   UNL     1      30.110  42.836  53.597  1.00  0.00     0.001 A 
HETATM   33  C   UNL     1      28.964  42.951  52.809  1.00  0.00     0.009 A 
ENDBRANCH  27  28
ENDBRANCH   1  27
TORSDOF 7
ENDMDL
MODEL 5
REMARK VINA RESULT:      -8.4      8.168     11.161
REMARK  7 active torsions:
REMARK  status: ('A' for Active; 'I' for Inactive)
REMARK    1  A    between atoms: C_4  and  C_5 
REMARK    2  A    between atoms: C_5  and  N_6 
REMARK       I    between atoms: N_6  and  C_7 
REMARK    3  A    between atoms: N_6  and  C_22 
REMARK    4  A    between atoms: C_7  and  C_8 
REMARK    5  A    between atoms: C_13  and  C_14 
REMARK    6  A    between atoms: C_15  and  O_16 
REMARK    7  A    between atoms: C_22  and  C_23 
ROOT
HETATM    1  N   UNL     1      17.000  47.816  46.580  1.00  0.00    -0.343 N 
HETATM    2  C   UNL     1      17.596  47.168  47.671  1.00  0.00     0.235 C 
HETATM    3  O   UNL     1      17.022  47.095  48.762  1.00  0.00    -0.272 OA
ENDROOT
BRANCH   2   4
HETATM    4  C   UNL     1      18.992  46.593  47.510  1.00  0.00     0.195 C 
HETATM    5  C   UNL     1      19.075  45.187  48.034  1.00  0.00     0.247 C 
HETATM    6  O   UNL     1      18.559  44.198  47.536  1.00  0.00    -0.271 OA
HETATM    7  N   UNL     1      19.846  45.192  49.177  1.00  0.00    -0.290 N 
HETATM    8  N   UNL     1      20.295  46.456  49.544  1.00  0.00    -0.228 NA
HETATM    9  H   UNL     1      19.918  44.365  49.763  1.00  0.00     0.183 HD
HETATM   10  C   UNL     1      20.073  47.304  48.344  1.00  0.00     0.134 C 
HETATM   11  H   UNL     1      21.296  46.438  49.754  1.00  0.00     0.147 HD
BRANCH  10  12
HETATM   12  C   UNL     1      19.848  48.761  48.683  1.00  0.00    -0.004 A 
HETATM   13  C   UNL     1      19.320  49.143  49.921  1.00  0.00     0.073 A 
HETATM   14  C   UNL     1      19.120  50.487  50.242  1.00  0.00     0.037 A 
HETATM   15  C   UNL     1      19.473  51.478  49.327  1.00  0.00     0.003 A 
HETATM   16  C   UNL     1      20.017  51.123  48.096  1.00  0.00     0.001 A 
HETATM   17  C   UNL     1      20.200  49.777  47.776  1.00  0.00     0.012 A 
BRANCH  13  18
HETATM   18  O   UNL     1      19.013  48.174  50.836  1.00  0.00    -0.360 OA
HETATM   19  H   UNL     1      18.917  47.326  50.370  1.00  0.00     0.217 HD
ENDBRANCH  13  18
ENDBRANCH  10  12
ENDBRANCH   2   4
BRANCH   1  20
HETATM   20  C   UNL     1      15.623  48.295  46.773  1.00  0.00     0.164 C 
BRANCH  20  21
HETATM   21  C   UNL     1      15.505  49.792  46.944  1.00  0.00    -0.040 A 
HETATM   22  C   UNL     1      16.012  50.430  48.086  1.00  0.00     0.009 A 
HETATM   23  C   UNL     1      15.932  51.816  48.219  1.00  0.00     0.001 A 
HETATM   24  C   UNL     1      15.348  52.583  47.212  1.00  0.00     0.000 A 
HETATM   25  C   UNL     1      14.844  51.964  46.072  1.00  0.00     0.001 A 
HETATM   26  C   UNL     1      14.927  50.577  45.936  1.00  0.00     0.009 A 
ENDBRANCH  20  21
ENDBRANCH   1  20
BRANCH   1  27
HETATM   27  C   UNL     1      17.519  47.691  45.212  1.00  0.00     0.164 C 
BRANCH  27  28
HETATM   28  C   UNL     1      17.568  48.947  44.375  1.00  0.00    -0.040 A 
HETATM   29  C   UNL     1      16.827  49.051  43.189  1.00  0.00     0.009 A 
HETATM   30  C   UNL     1      16.854  50.226  42.436  1.00  0.00     0.001 A 
HETATM   31  C   UNL     1      17.616  51.311  42.863  1.00  0.00     0.000 A 
HETATM   32  C   UNL     1      18.350  51.224  44.045  1.00  0.00     0.001 A 
HETATM   33  C   UNL     1      18.323  50.051  44.799  1.00  0.00     0.009 A 
ENDBRANCH  27  28
ENDBRANCH   1  27
TORSDOF 7
ENDMDL
MODEL 6
REMARK VINA RESULT:      -8.2      1.923      5.857
REMARK  7 active torsions:
REMARK  status: ('A' for Active; 'I' for Inactive)
REMARK    1  A    between atoms: C_4  and  C_5 
REMARK    2  A    between atoms: C_5  and  N_6 
REMARK       I    between atoms: N_6  and  C_7 
REMARK    3  A    between atoms: N_6  and  C_22 
REMARK    4  A    between atoms: C_7  and  C_8 
REMARK    5  A    between atoms: C_13  and  C_14 
REMARK    6  A    between atoms: C_15  and  O_16 
REMARK    7  A    between atoms: C_22  and  C_23 
ROOT
HETATM    1  N   UNL     1      26.464  44.939  51.225  1.00  0.00    -0.343 N 
HETATM    2  C   UNL     1      25.587  45.263  50.181  1.00  0.00     0.235 C 
HETATM    3  O   UNL     1      25.921  45.119  49.000  1.00  0.00    -0.272 OA
ENDROOT
BRANCH   2   4
HETATM    4  C   UNL     1      24.226  45.846  50.517  1.00  0.00     0.195 C 
HETATM    5  C   UNL     1      23.111  44.965  50.031  1.00  0.00     0.247 C 
HETATM    6  O   UNL     1      22.805  43.871  50.480  1.00  0.00    -0.271 OA
HETATM    7  N   UNL     1      22.473  45.604  48.989  1.00  0.00    -0.290 N 
HETATM    8  N   UNL     1      23.034  46.832  48.657  1.00  0.00    -0.228 NA
HETATM    9  H   UNL     1      21.775  45.122  48.429  1.00  0.00     0.183 HD
HETATM   10  C   UNL     1      23.910  47.175  49.807  1.00  0.00     0.134 C 
HETATM   11  H   UNL     1      22.310  47.549  48.569  1.00  0.00     0.147 HD
BRANCH  10  12
HETATM   12  C   UNL     1      25.078  48.055  49.419  1.00  0.00    -0.004 A 
HETATM   13  C   UNL     1      24.933  49.076  48.473  1.00  0.00     0.073 A 
HETATM   14  C   UNL     1      26.006  49.897  48.119  1.00  0.00     0.037 A 
HETATM   15  C   UNL     1      27.245  49.720  48.733  1.00  0.00     0.003 A 
HETATM   16  C   UNL     1      27.409  48.723  49.690  1.00  0.00     0.001 A 
HETATM   17  C   UNL     1      26.336  47.896  50.028  1.00  0.00     0.012 A 
BRANCH  13  18
HETATM   18  O   UNL     1      23.707  49.278  47.902  1.00  0.00    -0.360 OA
HETATM   19  H   UNL     1      23.203  48.447  47.945  1.00  0.00     0.217 HD
ENDBRANCH  13  18
ENDBRANCH  10  12
ENDBRANCH   2   4
BRANCH   1  20
HETATM   20  C   UNL     1      27.740  44.318  50.844  1.00  0.00     0.164 C 
BRANCH  20  21
HETATM   21  C   UNL     1      28.199  43.221  51.776  1.00  0.00    -0.040 A 
HETATM   22  C   UNL     1      27.497  42.009  51.867  1.00  0.00     0.009 A 
HETATM   23  C   UNL     1      27.949  40.988  52.702  1.00  0.00     0.001 A 
HETATM   24  C   UNL     1      29.110  41.161  53.454  1.00  0.00     0.000 A 
HETATM   25  C   UNL     1      29.819  42.356  53.371  1.00  0.00     0.001 A 
HETATM   26  C   UNL     1      29.370  43.378  52.533  1.00  0.00     0.009 A 
ENDBRANCH  20  21
ENDBRANCH   1  20
BRANCH   1  27
HETATM   27  C   UNL     1      26.020  44.839  52.622  1.00  0.00     0.164 C 
BRANCH  27  28
HETATM   28  C   UNL     1      26.467  45.926  53.569  1.00  0.00    -0.040 A 
HETATM   29  C   UNL     1      25.755  47.129  53.672  1.00  0.00     0.009 A 
HETATM   30  C   UNL     1      26.157  48.118  54.570  1.00  0.00     0.001 A 
HETATM   31  C   UNL     1      27.271  47.912  55.382  1.00  0.00     0.000 A 
HETATM   32  C   UNL     1      27.982  46.717  55.297  1.00  0.00     0.001 A 
HETATM   33  C   UNL     1      27.580  45.727  54.399  1.00  0.00     0.009 A 
ENDBRANCH  27  28
ENDBRANCH   1  27
TORSDOF 7
ENDMDL
MODEL 7
REMARK VINA RESULT:      -8.1      2.477      6.039
REMARK  7 active torsions:
REMARK  status: ('A' for Active; 'I' for Inactive)
REMARK    1  A    between atoms: C_4  and  C_5 
REMARK    2  A    between atoms: C_5  and  N_6 
REMARK       I    between atoms: N_6  and  C_7 
REMARK    3  A    between atoms: N_6  and  C_22 
REMARK    4  A    between atoms: C_7  and  C_8 
REMARK    5  A    between atoms: C_13  and  C_14 
REMARK    6  A    between atoms: C_15  and  O_16 
REMARK    7  A    between atoms: C_22  and  C_23 
ROOT
HETATM    1  N   UNL     1      28.160  42.446  51.842  1.00  0.00    -0.343 N 
HETATM    2  C   UNL     1      27.458  43.342  51.024  1.00  0.00     0.235 C 
HETATM    3  O   UNL     1      27.955  44.422  50.688  1.00  0.00    -0.272 OA
ENDROOT
BRANCH   2   4
HETATM    4  C   UNL     1      26.047  42.989  50.589  1.00  0.00     0.195 C 
HETATM    5  C   UNL     1      25.923  42.946  49.093  1.00  0.00     0.247 C 
HETATM    6  O   UNL     1      26.411  42.107  48.351  1.00  0.00    -0.271 OA
HETATM    7  N   UNL     1      25.151  44.014  48.687  1.00  0.00    -0.290 N 
HETATM    8  N   UNL     1      24.738  44.834  49.731  1.00  0.00    -0.228 NA
HETATM    9  H   UNL     1      25.055  44.246  47.703  1.00  0.00     0.183 HD
HETATM   10  C   UNL     1      24.985  44.040  50.962  1.00  0.00     0.134 C 
HETATM   11  H   UNL     1      23.736  45.031  49.662  1.00  0.00     0.147 HD
BRANCH  10  12
HETATM   12  C   UNL     1      25.251  44.901  52.177  1.00  0.00    -0.004 A 
HETATM   13  C   UNL     1      25.607  46.248  52.047  1.00  0.00     0.073 A 
HETATM   14  C   UNL     1      25.843  47.049  53.166  1.00  0.00     0.037 A 
HETATM   15  C   UNL     1      25.702  46.512  54.444  1.00  0.00     0.003 A 
HETATM   16  C   UNL     1      25.331  45.180  54.601  1.00  0.00     0.001 A 
HETATM   17  C   UNL     1      25.111  44.380  53.477  1.00  0.00     0.012 A 
BRANCH  13  18
HETATM   18  O   UNL     1      25.704  46.787  50.794  1.00  0.00    -0.360 OA
HETATM   19  H   UNL     1      25.634  47.754  50.864  1.00  0.00     0.217 HD
ENDBRANCH  13  18
ENDBRANCH  10  12
ENDBRANCH   2   4
BRANCH   1  20
HETATM   20  C   UNL     1      29.545  42.807  52.178  1.00  0.00     0.164 C 
BRANCH  20  21
HETATM   21  C   UNL     1      29.717  43.388  53.562  1.00  0.00    -0.040 A 
HETATM   22  C   UNL     1      30.721  42.920  54.422  1.00  0.00     0.009 A 
HETATM   23  C   UNL     1      30.897  43.487  55.684  1.00  0.00     0.001 A 
HETATM   24  C   UNL     1      30.075  44.532  56.102  1.00  0.00     0.000 A 
HETATM   25  C   UNL     1      29.076  45.010  55.257  1.00  0.00     0.001 A 
HETATM   26  C   UNL     1      28.901  44.445  53.993  1.00  0.00     0.009 A 
ENDBRANCH  20  21
ENDBRANCH   1  20
BRANCH   1  27
HETATM   27  C   UNL     1      27.726  41.056  52.039  1.00  0.00     0.164 C 
BRANCH  27  28
HETATM   28  C   UNL     1      28.414  39.995  51.214  1.00  0.00    -0.040 A 
HETATM   29  C   UNL     1      28.192  39.902  49.832  1.00  0.00     0.009 A 
HETATM   30  C   UNL     1      28.854  38.937  49.071  1.00  0.00     0.001 A 
HETATM   31  C   UNL     1      29.749  38.061  49.680  1.00  0.00     0.000 A 
HETATM   32  C   UNL     1      29.986  38.149  51.050  1.00  0.00     0.001 A 
HETATM   33  C   UNL     1      29.326  39.113  51.813  1.00  0.00     0.009 A 
ENDBRANCH  27  28
ENDBRANCH   1  27
TORSDOF 7
ENDMDL
MODEL 8
REMARK VINA RESULT:      -8.1      9.370     12.419
REMARK  7 active torsions:
REMARK  status: ('A' for Active; 'I' for Inactive)
REMARK    1  A    between atoms: C_4  and  C_5 
REMARK    2  A    between atoms: C_5  and  N_6 
REMARK       I    between atoms: N_6  and  C_7 
REMARK    3  A    between atoms: N_6  and  C_22 
REMARK    4  A    between atoms: C_7  and  C_8 
REMARK    5  A    between atoms: C_13  and  C_14 
REMARK    6  A    between atoms: C_15  and  O_16 
REMARK    7  A    between atoms: C_22  and  C_23 
ROOT
HETATM    1  N   UNL     1      17.396  50.886  47.759  1.00  0.00    -0.343 N 
HETATM    2  C   UNL     1      18.279  49.990  48.377  1.00  0.00     0.235 C 
HETATM    3  O   UNL     1      19.499  50.072  48.199  1.00  0.00    -0.272 OA
ENDROOT
BRANCH   2   4
HETATM    4  C   UNL     1      17.713  48.876  49.239  1.00  0.00     0.195 C 
HETATM    5  C   UNL     1      18.570  48.619  50.446  1.00  0.00     0.247 C 
HETATM    6  O   UNL     1      18.703  49.359  51.409  1.00  0.00    -0.271 OA
HETATM    7  N   UNL     1      19.182  47.392  50.294  1.00  0.00    -0.290 N 
HETATM    8  N   UNL     1      18.879  46.761  49.092  1.00  0.00    -0.228 NA
HETATM    9  H   UNL     1      19.908  47.087  50.935  1.00  0.00     0.183 HD
HETATM   10  C   UNL     1      17.700  47.493  48.562  1.00  0.00     0.134 C 
HETATM   11  H   UNL     1      18.617  45.785  49.252  1.00  0.00     0.147 HD
BRANCH  10  12
HETATM   12  C   UNL     1      17.610  47.455  47.053  1.00  0.00    -0.004 A 
HETATM   13  C   UNL     1      16.378  47.561  46.397  1.00  0.00     0.073 A 
HETATM   14  C   UNL     1      16.292  47.536  45.003  1.00  0.00     0.037 A 
HETATM   15  C   UNL     1      17.453  47.428  44.240  1.00  0.00     0.003 A 
HETATM   16  C   UNL     1      18.692  47.340  44.868  1.00  0.00     0.001 A 
HETATM   17  C   UNL     1      18.769  47.350  46.262  1.00  0.00     0.012 A 
BRANCH  13  18
HETATM   18  O   UNL     1      15.243  47.709  47.144  1.00  0.00    -0.360 OA
HETATM   19  H   UNL     1      15.121  48.653  47.341  1.00  0.00     0.217 HD
ENDBRANCH  13  18
ENDBRANCH  10  12
ENDBRANCH   2   4
BRANCH   1  20
HETATM   20  C   UNL     1      18.002  51.984  46.992  1.00  0.00     0.164 C 
BRANCH  20  21
HETATM   21  C   UNL     1      17.721  51.932  45.508  1.00  0.00    -0.040 A 
HETATM   22  C   UNL     1      18.302  50.946  44.697  1.00  0.00     0.009 A 
HETATM   23  C   UNL     1      18.009  50.883  43.335  1.00  0.00     0.001 A 
HETATM   24  C   UNL     1      17.128  51.802  42.766  1.00  0.00     0.000 A 
HETATM   25  C   UNL     1      16.541  52.784  43.559  1.00  0.00     0.001 A 
HETATM   26  C   UNL     1      16.832  52.846  44.923  1.00  0.00     0.009 A 
ENDBRANCH  20  21
ENDBRANCH   1  20
BRANCH   1  27
HETATM   27  C   UNL     1      15.985  50.995  48.152  1.00  0.00     0.164 C 
BRANCH  27  28
HETATM   28  C   UNL     1      15.527  52.315  48.725  1.00  0.00    -0.040 A 
HETATM   29  C   UNL     1      15.933  52.725  50.003  1.00  0.00     0.009 A 
HETATM   30  C   UNL     1      15.531  53.960  50.514  1.00  0.00     0.001 A 
HETATM   31  C   UNL     1      14.725  54.801  49.750  1.00  0.00     0.000 A 
HETATM   32  C   UNL     1      14.322  54.411  48.475  1.00  0.00     0.001 A 
HETATM   33  C   UNL     1      14.725  53.177  47.962  1.00  0.00     0.009 A 
ENDBRANCH  27  28
ENDBRANCH   1  27
TORSDOF 7
ENDMDL
MODEL 9
REMARK VINA RESULT:      -8.1     16.892     19.230
REMARK  7 active torsions:
REMARK  status: ('A' for Active; 'I' for Inactive)
REMARK    1  A    between atoms: C_4  and  C_5 
REMARK    2  A    between atoms: C_5  and  N_6 
REMARK       I    between atoms: N_6  and  C_7 
REMARK    3  A    between atoms: N_6  and  C_22 
REMARK    4  A    between atoms: C_7  and  C_8 
REMARK    5  A    between atoms: C_13  and  C_14 
REMARK    6  A    between atoms: C_15  and  O_16 
REMARK    7  A    between atoms: C_22  and  C_23 
ROOT
HETATM    1  N   UNL     1      38.876  46.680  66.111  1.00  0.00    -0.343 N 
HETATM    2  C   UNL     1      37.946  45.777  66.645  1.00  0.00     0.235 C 
HETATM    3  O   UNL     1      38.283  44.934  67.484  1.00  0.00    -0.272 OA
ENDROOT
BRANCH   2   4
HETATM    4  C   UNL     1      36.514  45.813  66.142  1.00  0.00     0.195 C 
HETATM    5  C   UNL     1      35.528  45.640  67.263  1.00  0.00     0.247 C 
HETATM    6  O   UNL     1      35.288  46.450  68.146  1.00  0.00    -0.271 OA
HETATM    7  N   UNL     1      34.924  44.409  67.127  1.00  0.00    -0.290 N 
HETATM    8  N   UNL     1      35.396  43.669  66.048  1.00  0.00    -0.228 NA
HETATM    9  H   UNL     1      34.322  44.038  67.857  1.00  0.00     0.183 HD
HETATM   10  C   UNL     1      36.137  44.648  65.210  1.00  0.00     0.134 C 
HETATM   11  H   UNL     1      34.619  43.290  65.502  1.00  0.00     0.147 HD
BRANCH  10  12
HETATM   12  C   UNL     1      37.248  44.012  64.403  1.00  0.00    -0.004 A 
HETATM   13  C   UNL     1      37.750  44.628  63.251  1.00  0.00     0.073 A 
HETATM   14  C   UNL     1      38.782  44.050  62.509  1.00  0.00     0.037 A 
HETATM   15  C   UNL     1      39.347  42.846  62.929  1.00  0.00     0.003 A 
HETATM   16  C   UNL     1      38.877  42.224  64.081  1.00  0.00     0.001 A 
HETATM   17  C   UNL     1      37.835  42.800  64.810  1.00  0.00     0.012 A 
BRANCH  13  18
HETATM   18  O   UNL     1      37.225  45.829  62.862  1.00  0.00    -0.360 OA
HETATM   19  H   UNL     1      37.767  46.186  62.138  1.00  0.00     0.217 HD
ENDBRANCH  13  18
ENDBRANCH  10  12
ENDBRANCH   2   4
BRANCH   1  20
HETATM   20  C   UNL     1      40.230  46.644  66.683  1.00  0.00     0.164 C 
BRANCH  20  21
HETATM   21  C   UNL     1      41.318  46.336  65.681  1.00  0.00    -0.040 A 
HETATM   22  C   UNL     1      42.506  47.081  65.653  1.00  0.00     0.009 A 
HETATM   23  C   UNL     1      43.521  46.766  64.749  1.00  0.00     0.001 A 
HETATM   24  C   UNL     1      43.364  45.700  63.865  1.00  0.00     0.000 A 
HETATM   25  C   UNL     1      42.192  44.949  63.884  1.00  0.00     0.001 A 
HETATM   26  C   UNL     1      41.177  45.261  64.790  1.00  0.00     0.009 A 
ENDBRANCH  20  21
ENDBRANCH   1  20
BRANCH   1  27
HETATM   27  C   UNL     1      38.470  47.856  65.330  1.00  0.00     0.164 C 
BRANCH  27  28
HETATM   28  C   UNL     1      38.319  49.160  66.075  1.00  0.00    -0.040 A 
HETATM   29  C   UNL     1      39.098  50.276  65.738  1.00  0.00     0.009 A 
HETATM   30  C   UNL     1      38.932  51.487  66.411  1.00  0.00     0.001 A 
HETATM   31  C   UNL     1      37.980  51.599  67.422  1.00  0.00     0.000 A 
HETATM   32  C   UNL     1      37.191  50.501  67.760  1.00  0.00     0.001 A 
HETATM   33  C   UNL     1      37.356  49.289  67.088  1.00  0.00     0.009 A 
ENDBRANCH  27  28
ENDBRANCH   1  27
TORSDOF 7
ENDMDL
MODEL 10
REMARK VINA RESULT:      -8.0      5.795      9.664
REMARK  7 active torsions:
REMARK  status: ('A' for Active; 'I' for Inactive)
REMARK    1  A    between atoms: C_4  and  C_5 
REMARK    2  A    between atoms: C_5  and  N_6 
REMARK       I    between atoms: N_6  and  C_7 
REMARK    3  A    between atoms: N_6  and  C_22 
REMARK    4  A    between atoms: C_7  and  C_8 
REMARK    5  A    between atoms: C_13  and  C_14 
REMARK    6  A    between atoms: C_15  and  O_16 
REMARK    7  A    between atoms: C_22  and  C_23 
ROOT
HETATM    1  N   UNL     1      20.482  48.171  48.007  1.00  0.00    -0.343 N 
HETATM    2  C   UNL     1      19.754  47.181  47.332  1.00  0.00     0.235 C 
HETATM    3  O   UNL     1      20.243  46.570  46.376  1.00  0.00    -0.272 OA
ENDROOT
BRANCH   2   4
HETATM    4  C   UNL     1      18.325  46.898  47.761  1.00  0.00     0.195 C 
HETATM    5  C   UNL     1      18.040  45.424  47.797  1.00  0.00     0.247 C 
HETATM    6  O   UNL     1      18.489  44.620  48.600  1.00  0.00    -0.271 OA
HETATM    7  N   UNL     1      17.169  45.122  46.772  1.00  0.00    -0.290 N 
HETATM    8  N   UNL     1      16.828  46.218  45.986  1.00  0.00    -0.228 NA
HETATM    9  H   UNL     1      16.953  44.158  46.536  1.00  0.00     0.183 HD
HETATM   10  C   UNL     1      17.254  47.402  46.777  1.00  0.00     0.134 C 
HETATM   11  H   UNL     1      15.816  46.262  45.846  1.00  0.00     0.147 HD
BRANCH  10  12
HETATM   12  C   UNL     1      17.604  48.594  45.913  1.00  0.00    -0.004 A 
HETATM   13  C   UNL     1      18.138  48.427  44.630  1.00  0.00     0.073 A 
HETATM   14  C   UNL     1      18.453  49.525  43.826  1.00  0.00     0.037 A 
HETATM   15  C   UNL     1      18.212  50.816  44.292  1.00  0.00     0.003 A 
HETATM   16  C   UNL     1      17.665  51.007  45.557  1.00  0.00     0.001 A 
HETATM   17  C   UNL     1      17.367  49.906  46.362  1.00  0.00     0.012 A 
BRANCH  13  18
HETATM   18  O   UNL     1      18.334  47.160  44.156  1.00  0.00    -0.360 OA
HETATM   19  H   UNL     1      17.787  46.546  44.674  1.00  0.00     0.217 HD
ENDBRANCH  13  18
ENDBRANCH  10  12
ENDBRANCH   2   4
BRANCH   1  20
HETATM   20  C   UNL     1      21.880  48.356  47.593  1.00  0.00     0.164 C 
BRANCH  20  21
HETATM   21  C   UNL     1      22.889  47.687  48.498  1.00  0.00    -0.040 A 
HETATM   22  C   UNL     1      23.794  48.445  49.256  1.00  0.00     0.009 A 
HETATM   23  C   UNL     1      24.697  47.820  50.116  1.00  0.00     0.001 A 
HETATM   24  C   UNL     1      24.705  46.432  50.234  1.00  0.00     0.000 A 
HETATM   25  C   UNL     1      23.810  45.667  49.491  1.00  0.00     0.001 A 
HETATM   26  C   UNL     1      22.904  46.291  48.632  1.00  0.00     0.009 A 
ENDBRANCH  20  21
ENDBRANCH   1  20
BRANCH   1  27
HETATM   27  C   UNL     1      20.049  48.722  49.298  1.00  0.00     0.164 C 
BRANCH  27  28
HETATM   28  C   UNL     1      19.381  50.076  49.281  1.00  0.00    -0.040 A 
HETATM   29  C   UNL     1      19.961  51.157  48.602  1.00  0.00     0.009 A 
HETATM   30  C   UNL     1      19.324  52.398  48.566  1.00  0.00     0.001 A 
HETATM   31  C   UNL     1      18.096  52.570  49.202  1.00  0.00     0.000 A 
HETATM   32  C   UNL     1      17.503  51.502  49.872  1.00  0.00     0.001 A 
HETATM   33  C   UNL     1      18.139  50.260  49.908  1.00  0.00     0.009 A 
ENDBRANCH  27  28
ENDBRANCH   1  27
TORSDOF 7
ENDMDL
