MODEL 1
REMARK VINA RESULT:      -9.5      0.000      0.000
REMARK  3 active torsions:
REMARK  status: ('A' for Active; 'I' for Inactive)
REMARK    1  A    between atoms: C_7  and  C_8 
REMARK    2  A    between atoms: N_9  and  C_11 
REMARK    3  A    between atoms: C_11  and  C_12 
ROOT
HETATM    1  C   UNL     1      27.635  42.465  51.053  1.00  0.00     0.238 C 
HETATM    2  N   UNL     1      26.625  43.461  50.513  1.00  0.00    -0.056 N 
HETATM    3  H   UNL     1      25.962  43.610  51.282  1.00  0.00     0.281 HD
HETATM    4  C   UNL     1      25.817  42.915  49.356  1.00  0.00     0.236 C 
HETATM    5  C   UNL     1      25.096  41.644  49.768  1.00  0.00     0.028 C 
HETATM    6  C   UNL     1      26.095  40.596  50.230  1.00  0.00     0.004 C 
HETATM    7  C   UNL     1      26.929  41.134  51.382  1.00  0.00     0.040 C 
ENDROOT
BRANCH   2   8
HETATM    8  C   UNL     1      27.186  44.847  50.211  1.00  0.00     0.295 C 
BRANCH   8   9
HETATM    9  C   UNL     1      26.181  45.927  50.117  1.00  0.00     0.077 A 
HETATM   10  N   UNL     1      26.412  47.212  49.654  1.00  0.00    -0.155 N 
HETATM   11  C   UNL     1      25.182  47.876  49.655  1.00  0.00     0.732 A 
HETATM   12  C   UNL     1      27.578  47.845  49.234  1.00  0.00     0.117 A 
HETATM   13  N   UNL     1      25.066  49.146  49.178  1.00  0.00    -0.074 NA
HETATM   14  N   UNL     1      24.251  47.110  50.178  1.00  0.00    -0.072 NA
HETATM   15  C   UNL     1      26.160  49.719  48.787  1.00  0.00     0.138 A 
HETATM   16  C   UNL     1      27.520  49.110  48.793  1.00  0.00     0.038 A 
HETATM   17  C   UNL     1      24.860  45.944  50.520  1.00  0.00     0.164 A 
ENDBRANCH   8   9
ENDBRANCH   2   8
BRANCH   1  18
HETATM   18  C   UNL     1      28.302  42.959  52.300  1.00  0.00     0.041 A 
HETATM   19  N   UNL     1      27.831  44.061  52.985  1.00  0.00    -0.357 N 
HETATM   20  C   UNL     1      28.633  44.331  54.069  1.00  0.00     0.042 A 
HETATM   21  H   UNL     1      27.026  44.624  52.736  1.00  0.00     0.166 HD
HETATM   22  C   UNL     1      29.668  43.401  54.064  1.00  0.00    -0.008 A 
HETATM   23  C   UNL     1      28.533  45.339  55.035  1.00  0.00     0.030 A 
HETATM   24  C   UNL     1      30.656  43.471  55.063  1.00  0.00     0.014 A 
HETATM   25  C   UNL     1      29.459  42.553  52.943  1.00  0.00     0.040 A 
HETATM   26  C   UNL     1      30.572  44.473  56.036  1.00  0.00     0.001 A 
HETATM   27  C   UNL     1      29.525  45.392  56.020  1.00  0.00     0.002 A 
ENDBRANCH   1  18
TORSDOF 3
ENDMDL
MODEL 2
REMARK VINA RESULT:      -9.2      1.550      2.779
REMARK  3 active torsions:
REMARK  status: ('A' for Active; 'I' for Inactive)
REMARK    1  A    between atoms: C_7  and  C_8 
REMARK    2  A    between atoms: N_9  and  C_11 
REMARK    3  A    between atoms: C_11  and  C_12 
ROOT
HETATM    1  C   UNL     1      25.943  44.473  50.339  1.00  0.00     0.238 C 
HETATM    2  N   UNL     1      24.760  45.358  50.687  1.00  0.00    -0.056 N 
HETATM    3  H   UNL     1      24.341  44.927  51.519  1.00  0.00     0.281 HD
HETATM    4  C   UNL     1      23.685  45.355  49.622  1.00  0.00     0.236 C 
HETATM    5  C   UNL     1      23.195  43.939  49.371  1.00  0.00     0.028 C 
HETATM    6  C   UNL     1      24.347  43.051  48.933  1.00  0.00     0.004 C 
HETATM    7  C   UNL     1      25.446  43.057  49.985  1.00  0.00     0.040 C 
ENDROOT
BRANCH   2   8
HETATM    8  C   UNL     1      25.121  46.774  51.125  1.00  0.00     0.295 C 
BRANCH   8   9
HETATM    9  C   UNL     1      25.708  47.629  50.072  1.00  0.00     0.077 A 
HETATM   10  N   UNL     1      25.019  48.545  49.294  1.00  0.00    -0.155 N 
HETATM   11  C   UNL     1      25.962  49.191  48.490  1.00  0.00     0.732 A 
HETATM   12  C   UNL     1      23.667  48.867  49.227  1.00  0.00     0.117 A 
HETATM   13  N   UNL     1      25.603  50.210  47.661  1.00  0.00    -0.074 NA
HETATM   14  N   UNL     1      27.151  48.657  48.662  1.00  0.00    -0.072 NA
HETATM   15  C   UNL     1      24.340  50.499  47.613  1.00  0.00     0.138 A 
HETATM   16  C   UNL     1      23.260  49.836  48.395  1.00  0.00     0.038 A 
HETATM   17  C   UNL     1      26.997  47.664  49.576  1.00  0.00     0.164 A 
ENDBRANCH   8   9
ENDBRANCH   2   8
BRANCH   1  18
HETATM   18  C   UNL     1      26.912  44.357  51.475  1.00  0.00     0.041 A 
HETATM   19  N   UNL     1      28.033  43.556  51.391  1.00  0.00    -0.357 N 
HETATM   20  C   UNL     1      28.739  43.593  52.571  1.00  0.00     0.042 A 
HETATM   21  H   UNL     1      28.311  42.993  50.596  1.00  0.00     0.166 HD
HETATM   22  C   UNL     1      28.036  44.411  53.451  1.00  0.00    -0.008 A 
HETATM   23  C   UNL     1      29.928  42.947  52.931  1.00  0.00     0.030 A 
HETATM   24  C   UNL     1      28.533  44.599  54.755  1.00  0.00     0.014 A 
HETATM   25  C   UNL     1      26.885  44.875  52.759  1.00  0.00     0.040 A 
HETATM   26  C   UNL     1      29.719  43.960  55.131  1.00  0.00     0.001 A 
HETATM   27  C   UNL     1      30.405  43.147  54.230  1.00  0.00     0.002 A 
ENDBRANCH   1  18
TORSDOF 3
ENDMDL
MODEL 3
REMARK VINA RESULT:      -9.1      2.012      5.264
REMARK  3 active torsions:
REMARK  status: ('A' for Active; 'I' for Inactive)
REMARK    1  A    between atoms: C_7  and  C_8 
REMARK    2  A    between atoms: N_9  and  C_11 
REMARK    3  A    between atoms: C_11  and  C_12 
ROOT
HETATM    1  C   UNL     1      28.020  42.988  53.859  1.00  0.00     0.238 C 
HETATM    2  N   UNL     1      27.556  44.420  54.051  1.00  0.00    -0.056 N 
HETATM    3  H   UNL     1      27.984  44.944  53.280  1.00  0.00     0.281 HD
HETATM    4  C   UNL     1      28.078  45.044  55.327  1.00  0.00     0.236 C 
HETATM    5  C   UNL     1      29.596  45.001  55.354  1.00  0.00     0.028 C 
HETATM    6  C   UNL     1      30.085  43.567  55.252  1.00  0.00     0.004 C 
HETATM    7  C   UNL     1      29.555  42.918  53.983  1.00  0.00     0.040 C 
ENDROOT
BRANCH   2   8
HETATM    8  C   UNL     1      26.056  44.640  53.884  1.00  0.00     0.295 C 
BRANCH   8   9
HETATM    9  C   UNL     1      25.673  45.624  52.850  1.00  0.00     0.077 A 
HETATM   10  N   UNL     1      24.984  45.347  51.682  1.00  0.00    -0.155 N 
HETATM   11  C   UNL     1      24.761  46.567  51.038  1.00  0.00     0.732 A 
HETATM   12  C   UNL     1      24.535  44.147  51.138  1.00  0.00     0.117 A 
HETATM   13  N   UNL     1      24.034  46.636  49.889  1.00  0.00    -0.074 NA
HETATM   14  N   UNL     1      25.354  47.542  51.690  1.00  0.00    -0.072 NA
HETATM   15  C   UNL     1      23.620  45.510  49.398  1.00  0.00     0.138 A 
HETATM   16  C   UNL     1      23.849  44.161  49.986  1.00  0.00     0.038 A 
HETATM   17  C   UNL     1      25.965  46.972  52.761  1.00  0.00     0.164 A 
ENDBRANCH   8   9
ENDBRANCH   2   8
BRANCH   1  18
HETATM   18  C   UNL     1      27.636  42.448  52.515  1.00  0.00     0.041 A 
HETATM   19  N   UNL     1      27.055  41.204  52.374  1.00  0.00    -0.357 N 
HETATM   20  C   UNL     1      26.831  40.927  51.045  1.00  0.00     0.042 A 
HETATM   21  H   UNL     1      26.834  40.557  53.120  1.00  0.00     0.166 HD
HETATM   22  C   UNL     1      27.312  42.005  50.308  1.00  0.00    -0.008 A 
HETATM   23  C   UNL     1      26.265  39.798  50.443  1.00  0.00     0.030 A 
HETATM   24  C   UNL     1      27.231  41.965  48.904  1.00  0.00     0.014 A 
HETATM   25  C   UNL     1      27.827  42.948  51.238  1.00  0.00     0.040 A 
HETATM   26  C   UNL     1      26.667  40.843  48.285  1.00  0.00     0.001 A 
HETATM   27  C   UNL     1      26.192  39.777  49.046  1.00  0.00     0.002 A 
ENDBRANCH   1  18
TORSDOF 3
ENDMDL
MODEL 4
REMARK VINA RESULT:      -8.9      3.445      8.481
REMARK  3 active torsions:
REMARK  status: ('A' for Active; 'I' for Inactive)
REMARK    1  A    between atoms: C_7  and  C_8 
REMARK    2  A    between atoms: N_9  and  C_11 
REMARK    3  A    between atoms: C_11  and  C_12 
ROOT
HETATM    1  C   UNL     1      24.310  48.848  48.731  1.00  0.00     0.238 C 
HETATM    2  N   UNL     1      25.035  48.149  49.866  1.00  0.00    -0.056 N 
HETATM    3  H   UNL     1      25.027  48.822  50.641  1.00  0.00     0.281 HD
HETATM    4  C   UNL     1      26.492  47.877  49.559  1.00  0.00     0.236 C 
HETATM    5  C   UNL     1      27.213  49.171  49.225  1.00  0.00     0.028 C 
HETATM    6  C   UNL     1      26.559  49.847  48.032  1.00  0.00     0.004 C 
HETATM    7  C   UNL     1      25.089  50.113  48.317  1.00  0.00     0.040 C 
ENDROOT
BRANCH   2   8
HETATM    8  C   UNL     1      24.330  46.914  50.418  1.00  0.00     0.295 C 
BRANCH   8   9
HETATM    9  C   UNL     1      25.204  45.948  51.116  1.00  0.00     0.077 A 
HETATM   10  N   UNL     1      25.791  46.135  52.356  1.00  0.00    -0.155 N 
HETATM   11  C   UNL     1      26.462  44.951  52.675  1.00  0.00     0.732 A 
HETATM   12  C   UNL     1      25.792  47.225  53.222  1.00  0.00     0.117 A 
HETATM   13  N   UNL     1      27.082  44.793  53.877  1.00  0.00    -0.074 NA
HETATM   14  N   UNL     1      26.399  44.106  51.671  1.00  0.00    -0.072 NA
HETATM   15  C   UNL     1      27.070  45.816  54.673  1.00  0.00     0.138 A 
HETATM   16  C   UNL     1      26.424  47.130  54.401  1.00  0.00     0.038 A 
HETATM   17  C   UNL     1      25.688  44.726  50.692  1.00  0.00     0.164 A 
ENDBRANCH   8   9
ENDBRANCH   2   8
BRANCH   1  18
HETATM   18  C   UNL     1      22.924  49.260  49.118  1.00  0.00     0.041 A 
HETATM   19  N   UNL     1      21.891  48.347  49.192  1.00  0.00    -0.357 N 
HETATM   20  C   UNL     1      20.716  48.977  49.532  1.00  0.00     0.042 A 
HETATM   21  H   UNL     1      21.954  47.353  49.006  1.00  0.00     0.166 HD
HETATM   22  C   UNL     1      20.992  50.337  49.646  1.00  0.00    -0.008 A 
HETATM   23  C   UNL     1      19.433  48.451  49.722  1.00  0.00     0.030 A 
HETATM   24  C   UNL     1      19.944  51.222  49.963  1.00  0.00     0.014 A 
HETATM   25  C   UNL     1      22.375  50.506  49.372  1.00  0.00     0.040 A 
HETATM   26  C   UNL     1      18.655  50.713  50.155  1.00  0.00     0.001 A 
HETATM   27  C   UNL     1      18.407  49.347  50.036  1.00  0.00     0.002 A 
ENDBRANCH   1  18
TORSDOF 3
ENDMDL
MODEL 5
REMARK VINA RESULT:      -8.8      2.575      5.665
REMARK  3 active torsions:
REMARK  status: ('A' for Active; 'I' for Inactive)
REMARK    1  A    between atoms: C_7  and  C_8 
REMARK    2  A    between atoms: N_9  and  C_11 
REMARK    3  A    between atoms: C_11  and  C_12 
ROOT
HETATM    1  C   UNL     1      26.913  45.761  54.133  1.00  0.00     0.238 C 
HETATM    2  N   UNL     1      26.823  44.670  53.081  1.00  0.00    -0.056 N 
HETATM    3  H   UNL     1      27.736  44.676  52.613  1.00  0.00     0.281 HD
HETATM    4  C   UNL     1      25.795  44.965  52.010  1.00  0.00     0.236 C 
HETATM    5  C   UNL     1      26.103  46.290  51.333  1.00  0.00     0.028 C 
HETATM    6  C   UNL     1      26.112  47.415  52.354  1.00  0.00     0.004 C 
HETATM    7  C   UNL     1      27.127  47.126  53.448  1.00  0.00     0.040 C 
ENDROOT
BRANCH   2   8
HETATM    8  C   UNL     1      26.679  43.255  53.632  1.00  0.00     0.295 C 
BRANCH   8   9
HETATM    9  C   UNL     1      27.494  42.227  52.951  1.00  0.00     0.077 A 
HETATM   10  N   UNL     1      27.179  41.604  51.755  1.00  0.00    -0.155 N 
HETATM   11  C   UNL     1      28.253  40.770  51.432  1.00  0.00     0.732 A 
HETATM   12  C   UNL     1      26.061  41.699  50.931  1.00  0.00     0.117 A 
HETATM   13  N   UNL     1      28.277  40.071  50.263  1.00  0.00    -0.074 NA
HETATM   14  N   UNL     1      29.143  40.777  52.399  1.00  0.00    -0.072 NA
HETATM   15  C   UNL     1      27.230  40.174  49.507  1.00  0.00     0.138 A 
HETATM   16  C   UNL     1      26.022  40.998  49.789  1.00  0.00     0.038 A 
HETATM   17  C   UNL     1      28.663  41.612  53.357  1.00  0.00     0.164 A 
ENDBRANCH   8   9
ENDBRANCH   2   8
BRANCH   1  18
HETATM   18  C   UNL     1      28.048  45.534  55.083  1.00  0.00     0.041 A 
HETATM   19  N   UNL     1      28.999  44.559  54.856  1.00  0.00    -0.357 N 
HETATM   20  C   UNL     1      29.910  44.528  55.886  1.00  0.00     0.042 A 
HETATM   21  H   UNL     1      29.035  43.928  54.064  1.00  0.00     0.166 HD
HETATM   22  C   UNL     1      29.517  45.482  56.819  1.00  0.00    -0.008 A 
HETATM   23  C   UNL     1      31.033  43.712  56.072  1.00  0.00     0.030 A 
HETATM   24  C   UNL     1      30.271  45.638  57.997  1.00  0.00     0.014 A 
HETATM   25  C   UNL     1      28.341  46.099  56.313  1.00  0.00     0.040 A 
HETATM   26  C   UNL     1      31.396  44.831  58.199  1.00  0.00     0.001 A 
HETATM   27  C   UNL     1      31.769  43.883  57.249  1.00  0.00     0.002 A 
ENDBRANCH   1  18
TORSDOF 3
ENDMDL
MODEL 6
REMARK VINA RESULT:      -8.7      1.408      1.825
REMARK  3 active torsions:
REMARK  status: ('A' for Active; 'I' for Inactive)
REMARK    1  A    between atoms: C_7  and  C_8 
REMARK    2  A    between atoms: N_9  and  C_11 
REMARK    3  A    between atoms: C_11  and  C_12 
ROOT
HETATM    1  C   UNL     1      27.770  42.578  51.664  1.00  0.00     0.238 C 
HETATM    2  N   UNL     1      26.289  42.347  51.903  1.00  0.00    -0.056 N 
HETATM    3  H   UNL     1      26.247  41.666  52.670  1.00  0.00     0.281 HD
HETATM    4  C   UNL     1      25.595  41.700  50.724  1.00  0.00     0.236 C 
HETATM    5  C   UNL     1      26.259  40.379  50.379  1.00  0.00     0.028 C 
HETATM    6  C   UNL     1      27.726  40.596  50.048  1.00  0.00     0.004 C 
HETATM    7  C   UNL     1      28.437  41.262  51.215  1.00  0.00     0.040 C 
ENDROOT
BRANCH   2   8
HETATM    8  C   UNL     1      25.522  43.560  52.419  1.00  0.00     0.295 C 
BRANCH   8   9
HETATM    9  C   UNL     1      24.776  44.318  51.392  1.00  0.00     0.077 A 
HETATM   10  N   UNL     1      25.088  45.588  50.936  1.00  0.00    -0.155 N 
HETATM   11  C   UNL     1      24.181  45.890  49.916  1.00  0.00     0.732 A 
HETATM   12  C   UNL     1      26.076  46.490  51.319  1.00  0.00     0.117 A 
HETATM   13  N   UNL     1      24.276  47.050  49.209  1.00  0.00    -0.074 NA
HETATM   14  N   UNL     1      23.291  44.931  49.798  1.00  0.00    -0.072 NA
HETATM   15  C   UNL     1      25.205  47.877  49.576  1.00  0.00     0.138 A 
HETATM   16  C   UNL     1      26.183  47.662  50.679  1.00  0.00     0.038 A 
HETATM   17  C   UNL     1      23.605  43.998  50.733  1.00  0.00     0.164 A 
ENDBRANCH   8   9
ENDBRANCH   2   8
BRANCH   1  18
HETATM   18  C   UNL     1      28.471  43.059  52.898  1.00  0.00     0.041 A 
HETATM   19  N   UNL     1      28.266  44.328  53.399  1.00  0.00    -0.357 N 
HETATM   20  C   UNL     1      29.047  44.537  54.512  1.00  0.00     0.042 A 
HETATM   21  H   UNL     1      27.652  45.035  53.011  1.00  0.00     0.166 HD
HETATM   22  C   UNL     1      29.801  43.385  54.713  1.00  0.00    -0.008 A 
HETATM   23  C   UNL     1      29.159  45.663  55.336  1.00  0.00     0.030 A 
HETATM   24  C   UNL     1      30.715  43.344  55.783  1.00  0.00     0.014 A 
HETATM   25  C   UNL     1      29.443  42.468  53.689  1.00  0.00     0.040 A 
HETATM   26  C   UNL     1      30.840  44.461  56.616  1.00  0.00     0.001 A 
HETATM   27  C   UNL     1      30.072  45.602  56.393  1.00  0.00     0.002 A 
ENDBRANCH   1  18
TORSDOF 3
ENDMDL
MODEL 7
REMARK VINA RESULT:      -8.6      5.853      9.590
REMARK  3 active torsions:
REMARK  status: ('A' for Active; 'I' for Inactive)
REMARK    1  A    between atoms: C_7  and  C_8 
REMARK    2  A    between atoms: N_9  and  C_11 
REMARK    3  A    between atoms: C_11  and  C_12 
ROOT
HETATM    1  C   UNL     1      22.917  47.771  48.539  1.00  0.00     0.238 C 
HETATM    2  N   UNL     1      22.234  46.437  48.298  1.00  0.00    -0.056 N 
HETATM    3  H   UNL     1      21.626  46.298  49.113  1.00  0.00     0.281 HD
HETATM    4  C   UNL     1      23.201  45.272  48.289  1.00  0.00     0.236 C 
HETATM    5  C   UNL     1      23.969  45.213  49.598  1.00  0.00     0.028 C 
HETATM    6  C   UNL     1      24.734  46.507  49.819  1.00  0.00     0.004 C 
HETATM    7  C   UNL     1      23.781  47.690  49.814  1.00  0.00     0.040 C 
ENDROOT
BRANCH   2   8
HETATM    8  C   UNL     1      21.291  46.402  47.100  1.00  0.00     0.295 C 
BRANCH   8   9
HETATM    9  C   UNL     1      19.861  46.228  47.428  1.00  0.00     0.077 A 
HETATM   10  N   UNL     1      18.847  47.124  47.134  1.00  0.00    -0.155 N 
HETATM   11  C   UNL     1      17.647  46.535  47.542  1.00  0.00     0.732 A 
HETATM   12  C   UNL     1      18.872  48.387  46.549  1.00  0.00     0.117 A 
HETATM   13  N   UNL     1      16.450  47.143  47.317  1.00  0.00    -0.074 NA
HETATM   14  N   UNL     1      17.883  45.392  48.147  1.00  0.00    -0.072 NA
HETATM   15  C   UNL     1      16.491  48.316  46.768  1.00  0.00     0.138 A 
HETATM   16  C   UNL     1      17.720  49.042  46.344  1.00  0.00     0.038 A 
HETATM   17  C   UNL     1      19.232  45.225  48.139  1.00  0.00     0.164 A 
ENDBRANCH   8   9
ENDBRANCH   2   8
BRANCH   1  18
HETATM   18  C   UNL     1      21.930  48.884  48.714  1.00  0.00     0.041 A 
HETATM   19  N   UNL     1      20.890  48.794  49.617  1.00  0.00    -0.357 N 
HETATM   20  C   UNL     1      20.108  49.925  49.563  1.00  0.00     0.042 A 
HETATM   21  H   UNL     1      20.692  48.012  50.229  1.00  0.00     0.166 HD
HETATM   22  C   UNL     1      20.638  50.750  48.576  1.00  0.00    -0.008 A 
HETATM   23  C   UNL     1      18.965  50.266  50.294  1.00  0.00     0.030 A 
HETATM   24  C   UNL     1      20.003  51.975  48.294  1.00  0.00     0.014 A 
HETATM   25  C   UNL     1      21.772  50.083  48.039  1.00  0.00     0.040 A 
HETATM   26  C   UNL     1      18.858  52.331  49.016  1.00  0.00     0.001 A 
HETATM   27  C   UNL     1      18.349  51.487  50.001  1.00  0.00     0.002 A 
ENDBRANCH   1  18
TORSDOF 3
ENDMDL
MODEL 8
REMARK VINA RESULT:      -8.6      5.690      9.307
REMARK  3 active torsions:
REMARK  status: ('A' for Active; 'I' for Inactive)
REMARK    1  A    between atoms: C_7  and  C_8 
REMARK    2  A    between atoms: N_9  and  C_11 
REMARK    3  A    between atoms: C_11  and  C_12 
ROOT
HETATM    1  C   UNL     1      20.106  50.207  49.000  1.00  0.00     0.238 C 
HETATM    2  N   UNL     1      19.505  50.401  47.620  1.00  0.00    -0.056 N 
HETATM    3  H   UNL     1      20.063  51.146  47.189  1.00  0.00     0.281 HD
HETATM    4  C   UNL     1      18.080  50.910  47.662  1.00  0.00     0.236 C 
HETATM    5  C   UNL     1      18.010  52.220  48.427  1.00  0.00     0.028 C 
HETATM    6  C   UNL     1      18.524  52.031  49.844  1.00  0.00     0.004 C 
HETATM    7  C   UNL     1      19.949  51.503  49.821  1.00  0.00     0.040 C 
ENDROOT
BRANCH   2   8
HETATM    8  C   UNL     1      19.655  49.210  46.678  1.00  0.00     0.295 C 
BRANCH   8   9
HETATM    9  C   UNL     1      19.351  47.893  47.275  1.00  0.00     0.077 A 
HETATM   10  N   UNL     1      20.239  46.838  47.407  1.00  0.00    -0.155 N 
HETATM   11  C   UNL     1      19.569  45.821  48.094  1.00  0.00     0.732 A 
HETATM   12  C   UNL     1      21.560  46.686  46.994  1.00  0.00     0.117 A 
HETATM   13  N   UNL     1      20.206  44.671  48.447  1.00  0.00    -0.074 NA
HETATM   14  N   UNL     1      18.314  46.157  48.294  1.00  0.00    -0.072 NA
HETATM   15  C   UNL     1      21.436  44.548  48.058  1.00  0.00     0.138 A 
HETATM   16  C   UNL     1      22.216  45.554  47.284  1.00  0.00     0.038 A 
HETATM   17  C   UNL     1      18.154  47.389  47.745  1.00  0.00     0.164 A 
ENDBRANCH   8   9
ENDBRANCH   2   8
BRANCH   1  18
HETATM   18  C   UNL     1      21.564  49.869  48.936  1.00  0.00     0.041 A 
HETATM   19  N   UNL     1      22.092  48.808  49.644  1.00  0.00    -0.357 N 
HETATM   20  C   UNL     1      23.452  48.729  49.446  1.00  0.00     0.042 A 
HETATM   21  H   UNL     1      21.582  48.175  50.248  1.00  0.00     0.166 HD
HETATM   22  C   UNL     1      23.814  49.787  48.617  1.00  0.00    -0.008 A 
HETATM   23  C   UNL     1      24.385  47.819  49.956  1.00  0.00     0.030 A 
HETATM   24  C   UNL     1      25.169  49.955  48.276  1.00  0.00     0.014 A 
HETATM   25  C   UNL     1      22.626  50.504  48.313  1.00  0.00     0.040 A 
HETATM   26  C   UNL     1      26.115  49.055  48.778  1.00  0.00     0.001 A 
HETATM   27  C   UNL     1      25.726  48.004  49.605  1.00  0.00     0.002 A 
ENDBRANCH   1  18
TORSDOF 3
ENDMDL
MODEL 9
REMARK VINA RESULT:      -8.6      2.192      5.342
REMARK  3 active torsions:
REMARK  status: ('A' for Active; 'I' for Inactive)
REMARK    1  A    between atoms: C_7  and  C_8 
REMARK    2  A    between atoms: N_9  and  C_11 
REMARK    3  A    between atoms: C_11  and  C_12 
ROOT
HETATM    1  C   UNL     1      26.124  45.152  52.558  1.00  0.00     0.238 C 
HETATM    2  N   UNL     1      26.151  44.408  51.235  1.00  0.00    -0.056 N 
HETATM    3  H   UNL     1      27.048  44.662  50.806  1.00  0.00     0.281 HD
HETATM    4  C   UNL     1      25.077  44.871  50.275  1.00  0.00     0.236 C 
HETATM    5  C   UNL     1      25.208  46.361  50.015  1.00  0.00     0.028 C 
HETATM    6  C   UNL     1      25.094  47.136  51.317  1.00  0.00     0.004 C 
HETATM    7  C   UNL     1      26.155  46.672  52.301  1.00  0.00     0.040 C 
ENDROOT
BRANCH   2   8
HETATM    8  C   UNL     1      26.193  42.888  51.352  1.00  0.00     0.295 C 
BRANCH   8   9
HETATM    9  C   UNL     1      26.810  42.184  50.208  1.00  0.00     0.077 A 
HETATM   10  N   UNL     1      27.684  41.113  50.291  1.00  0.00    -0.155 N 
HETATM   11  C   UNL     1      27.957  40.704  48.982  1.00  0.00     0.732 A 
HETATM   12  C   UNL     1      28.251  40.466  51.386  1.00  0.00     0.117 A 
HETATM   13  N   UNL     1      28.733  39.614  48.731  1.00  0.00    -0.074 NA
HETATM   14  N   UNL     1      27.387  41.518  48.122  1.00  0.00    -0.072 NA
HETATM   15  C   UNL     1      29.249  39.022  49.762  1.00  0.00     0.138 A 
HETATM   16  C   UNL     1      29.054  39.412  51.186  1.00  0.00     0.038 A 
HETATM   17  C   UNL     1      26.737  42.459  48.856  1.00  0.00     0.164 A 
ENDBRANCH   8   9
ENDBRANCH   2   8
BRANCH   1  18
HETATM   18  C   UNL     1      27.294  44.801  53.425  1.00  0.00     0.041 A 
HETATM   19  N   UNL     1      27.690  45.612  54.470  1.00  0.00    -0.357 N 
HETATM   20  C   UNL     1      28.804  45.091  55.086  1.00  0.00     0.042 A 
HETATM   21  H   UNL     1      27.256  46.482  54.752  1.00  0.00     0.166 HD
HETATM   22  C   UNL     1      29.157  43.933  54.399  1.00  0.00    -0.008 A 
HETATM   23  C   UNL     1      29.537  45.569  56.179  1.00  0.00     0.030 A 
HETATM   24  C   UNL     1      30.293  43.212  54.812  1.00  0.00     0.014 A 
HETATM   25  C   UNL     1      28.212  43.766  53.351  1.00  0.00     0.040 A 
HETATM   26  C   UNL     1      31.036  43.676  55.902  1.00  0.00     0.001 A 
HETATM   27  C   UNL     1      30.661  44.838  56.574  1.00  0.00     0.002 A 
ENDBRANCH   1  18
TORSDOF 3
ENDMDL
MODEL 10
REMARK VINA RESULT:      -8.5     11.185     12.510
REMARK  3 active torsions:
REMARK  status: ('A' for Active; 'I' for Inactive)
REMARK    1  A    between atoms: C_7  and  C_8 
REMARK    2  A    between atoms: N_9  and  C_11 
REMARK    3  A    between atoms: C_11  and  C_12 
ROOT
HETATM    1  C   UNL     1      29.183  47.636  39.832  1.00  0.00     0.238 C 
HETATM    2  N   UNL     1      27.837  47.514  40.524  1.00  0.00    -0.056 N 
HETATM    3  H   UNL     1      28.051  47.155  41.461  1.00  0.00     0.281 HD
HETATM    4  C   UNL     1      26.930  46.491  39.875  1.00  0.00     0.236 C 
HETATM    5  C   UNL     1      27.603  45.130  39.847  1.00  0.00     0.028 C 
HETATM    6  C   UNL     1      28.913  45.206  39.082  1.00  0.00     0.004 C 
HETATM    7  C   UNL     1      29.831  46.242  39.709  1.00  0.00     0.040 C 
ENDROOT
BRANCH   2   8
HETATM    8  C   UNL     1      27.117  48.837  40.770  1.00  0.00     0.295 C 
BRANCH   8   9
HETATM    9  C   UNL     1      27.333  49.874  39.740  1.00  0.00     0.077 A 
HETATM   10  N   UNL     1      27.962  51.092  39.935  1.00  0.00    -0.155 N 
HETATM   11  C   UNL     1      28.026  51.725  38.691  1.00  0.00     0.732 A 
HETATM   12  C   UNL     1      28.482  51.690  41.080  1.00  0.00     0.117 A 
HETATM   13  N   UNL     1      28.661  52.920  38.539  1.00  0.00    -0.074 NA
HETATM   14  N   UNL     1      27.392  51.015  37.785  1.00  0.00    -0.072 NA
HETATM   15  C   UNL     1      29.142  53.460  39.614  1.00  0.00     0.138 A 
HETATM   16  C   UNL     1      29.081  52.885  40.987  1.00  0.00     0.038 A 
HETATM   17  C   UNL     1      26.913  49.916  38.425  1.00  0.00     0.164 A 
ENDBRANCH   8   9
ENDBRANCH   2   8
BRANCH   1  18
HETATM   18  C   UNL     1      30.124  48.524  40.586  1.00  0.00     0.041 A 
HETATM   19  N   UNL     1      31.031  49.336  39.936  1.00  0.00    -0.357 N 
HETATM   20  C   UNL     1      31.800  50.023  40.846  1.00  0.00     0.042 A 
HETATM   21  H   UNL     1      31.151  49.419  38.933  1.00  0.00     0.166 HD
HETATM   22  C   UNL     1      31.403  49.616  42.117  1.00  0.00    -0.008 A 
HETATM   23  C   UNL     1      32.829  50.949  40.641  1.00  0.00     0.030 A 
HETATM   24  C   UNL     1      32.058  50.152  43.242  1.00  0.00     0.014 A 
HETATM   25  C   UNL     1      30.361  48.667  41.943  1.00  0.00     0.040 A 
HETATM   26  C   UNL     1      33.088  51.079  43.054  1.00  0.00     0.001 A 
HETATM   27  C   UNL     1      33.466  51.470  41.771  1.00  0.00     0.002 A 
ENDBRANCH   1  18
TORSDOF 3
ENDMDL
