MODEL 1
REMARK VINA RESULT:      -7.7      0.000      0.000
REMARK  2 active torsions:
REMARK  status: ('A' for Active; 'I' for Inactive)
REMARK    1  A    between atoms: C_6  and  N_7 
REMARK       I    between atoms: N_7  and  C_8 
REMARK       I    between atoms: C_8  and  N_9 
REMARK    2  A    between atoms: N_9  and  C_10 
ROOT
HETATM    1  N   UNL     1      19.869  49.020  47.706  1.00  0.00    -0.306 N 
HETATM    2  C   UNL     1      21.163  48.609  47.632  1.00  0.00     0.321 C 
HETATM    3  N   UNL     1      22.095  49.254  48.383  1.00  0.00    -0.338 N 
HETATM    4  O   UNL     1      21.427  47.587  47.002  1.00  0.00    -0.247 OA
HETATM    5  H   UNL     1      19.261  48.296  47.337  1.00  0.00     0.171 HD
HETATM    6  H   UNL     1      21.934  50.240  48.527  1.00  0.00     0.164 HD
ENDROOT
BRANCH   3   7
HETATM    7  C   UNL     1      23.479  48.811  48.497  1.00  0.00     0.092 C 
HETATM    8  C   UNL     1      24.477  49.997  48.360  1.00  0.00     0.084 C 
HETATM    9  C   UNL     1      25.829  49.543  48.727  1.00  0.00     0.034 A 
HETATM   10  C   UNL     1      26.131  48.373  49.388  1.00  0.00     0.033 A 
HETATM   11  N   UNL     1      27.029  50.190  48.519  1.00  0.00    -0.354 N 
HETATM   12  N   UNL     1      27.501  48.361  49.540  1.00  0.00    -0.354 N 
HETATM   13  C   UNL     1      25.156  47.346  49.804  1.00  0.00     0.061 C 
HETATM   14  H   UNL     1      28.036  47.624  49.995  1.00  0.00     0.166 HD
HETATM   15  C   UNL     1      28.038  49.470  49.021  1.00  0.00     0.180 A 
HETATM   16  C   UNL     1      23.733  47.943  49.764  1.00  0.00     0.031 C 
HETATM   17  H   UNL     1      27.137  51.096  48.068  1.00  0.00     0.166 HD
ENDBRANCH   3   7
BRANCH   1  18
HETATM   18  C   UNL     1      19.240  50.040  48.455  1.00  0.00     0.077 A 
HETATM   19  C   UNL     1      18.602  49.936  49.693  1.00  0.00     0.152 A 
HETATM   20  N   UNL     1      17.963  50.953  50.319  1.00  0.00    -0.247 NA
HETATM   21 CL   UNL     1      18.682  48.539  50.701  1.00  0.00    -0.060 Cl
HETATM   22  C   UNL     1      17.991  52.156  49.713  1.00  0.00     0.118 A 
HETATM   23  C   UNL     1      18.647  52.392  48.519  1.00  0.00     0.022 A 
HETATM   24  C   UNL     1      19.287  51.323  47.893  1.00  0.00     0.034 A 
ENDBRANCH   1  18
TORSDOF 2
ENDMDL
MODEL 2
REMARK VINA RESULT:      -7.6      7.056      9.568
REMARK  2 active torsions:
REMARK  status: ('A' for Active; 'I' for Inactive)
REMARK    1  A    between atoms: C_6  and  N_7 
REMARK       I    between atoms: N_7  and  C_8 
REMARK       I    between atoms: C_8  and  N_9 
REMARK    2  A    between atoms: N_9  and  C_10 
ROOT
HETATM    1  N   UNL     1      25.698  44.940  52.565  1.00  0.00    -0.306 N 
HETATM    2  C   UNL     1      26.349  44.605  53.711  1.00  0.00     0.321 C 
HETATM    3  N   UNL     1      27.639  45.005  53.867  1.00  0.00    -0.338 N 
HETATM    4  O   UNL     1      25.714  44.079  54.624  1.00  0.00    -0.247 OA
HETATM    5  H   UNL     1      24.698  44.837  52.700  1.00  0.00     0.171 HD
HETATM    6  H   UNL     1      28.189  45.046  53.022  1.00  0.00     0.164 HD
ENDROOT
BRANCH   3   7
HETATM    7  C   UNL     1      28.386  44.834  55.106  1.00  0.00     0.092 C 
HETATM    8  C   UNL     1      29.647  43.945  54.901  1.00  0.00     0.084 C 
HETATM    9  C   UNL     1      30.491  44.009  56.107  1.00  0.00     0.034 A 
HETATM   10  C   UNL     1      30.374  44.934  57.120  1.00  0.00     0.033 A 
HETATM   11  N   UNL     1      31.556  43.200  56.443  1.00  0.00    -0.354 N 
HETATM   12  N   UNL     1      31.369  44.636  58.028  1.00  0.00    -0.354 N 
HETATM   13  C   UNL     1      29.355  45.997  57.199  1.00  0.00     0.061 C 
HETATM   14  H   UNL     1      31.547  45.142  58.893  1.00  0.00     0.166 HD
HETATM   15  C   UNL     1      32.088  43.590  57.606  1.00  0.00     0.180 A 
HETATM   16  C   UNL     1      28.701  46.185  55.813  1.00  0.00     0.031 C 
HETATM   17  H   UNL     1      31.907  42.427  55.880  1.00  0.00     0.166 HD
ENDBRANCH   3   7
BRANCH   1  18
HETATM   18  C   UNL     1      26.101  45.670  51.424  1.00  0.00     0.077 A 
HETATM   19  C   UNL     1      26.784  45.205  50.297  1.00  0.00     0.152 A 
HETATM   20  N   UNL     1      27.193  45.984  49.268  1.00  0.00    -0.247 NA
HETATM   21 CL   UNL     1      27.054  43.535  49.958  1.00  0.00    -0.060 Cl
HETATM   22  C   UNL     1      26.873  47.292  49.328  1.00  0.00     0.118 A 
HETATM   23  C   UNL     1      26.144  47.850  50.362  1.00  0.00     0.022 A 
HETATM   24  C   UNL     1      25.745  47.025  51.412  1.00  0.00     0.034 A 
ENDBRANCH   1  18
TORSDOF 2
ENDMDL
MODEL 3
REMARK VINA RESULT:      -7.3      4.662      8.660
REMARK  2 active torsions:
REMARK  status: ('A' for Active; 'I' for Inactive)
REMARK    1  A    between atoms: C_6  and  N_7 
REMARK       I    between atoms: N_7  and  C_8 
REMARK       I    between atoms: C_8  and  N_9 
REMARK    2  A    between atoms: N_9  and  C_10 
ROOT
HETATM    1  N   UNL     1      27.255  43.423  51.193  1.00  0.00    -0.306 N 
HETATM    2  C   UNL     1      26.596  44.302  50.392  1.00  0.00     0.321 C 
HETATM    3  N   UNL     1      26.498  45.598  50.789  1.00  0.00    -0.338 N 
HETATM    4  O   UNL     1      26.234  43.933  49.276  1.00  0.00    -0.247 OA
HETATM    5  H   UNL     1      27.497  42.593  50.661  1.00  0.00     0.171 HD
HETATM    6  H   UNL     1      26.431  45.746  51.786  1.00  0.00     0.164 HD
ENDROOT
BRANCH   3   7
HETATM    7  C   UNL     1      25.947  46.654  49.950  1.00  0.00     0.092 C 
HETATM    8  C   UNL     1      24.465  46.963  50.311  1.00  0.00     0.084 C 
HETATM    9  C   UNL     1      24.038  48.190  49.616  1.00  0.00     0.034 A 
HETATM   10  C   UNL     1      24.874  49.100  49.008  1.00  0.00     0.033 A 
HETATM   11  N   UNL     1      22.758  48.679  49.464  1.00  0.00    -0.354 N 
HETATM   12  N   UNL     1      24.059  50.093  48.507  1.00  0.00    -0.354 N 
HETATM   13  C   UNL     1      26.341  48.983  48.906  1.00  0.00     0.061 C 
HETATM   14  H   UNL     1      24.379  50.916  47.999  1.00  0.00     0.166 HD
HETATM   15  C   UNL     1      22.779  49.837  48.796  1.00  0.00     0.180 A 
HETATM   16  C   UNL     1      26.843  47.926  49.913  1.00  0.00     0.031 C 
HETATM   17  H   UNL     1      21.914  48.237  49.824  1.00  0.00     0.166 HD
ENDBRANCH   3   7
BRANCH   1  18
HETATM   18  C   UNL     1      27.913  43.580  52.435  1.00  0.00     0.077 A 
HETATM   19  C   UNL     1      27.386  44.061  53.636  1.00  0.00     0.152 A 
HETATM   20  N   UNL     1      28.100  44.244  54.772  1.00  0.00    -0.247 NA
HETATM   21 CL   UNL     1      25.704  44.329  53.910  1.00  0.00    -0.060 Cl
HETATM   22  C   UNL     1      29.400  43.890  54.739  1.00  0.00     0.118 A 
HETATM   23  C   UNL     1      30.012  43.343  53.626  1.00  0.00     0.022 A 
HETATM   24  C   UNL     1      29.254  43.177  52.468  1.00  0.00     0.034 A 
ENDBRANCH   1  18
TORSDOF 2
ENDMDL
MODEL 4
REMARK VINA RESULT:      -7.2      9.987     11.249
REMARK  2 active torsions:
REMARK  status: ('A' for Active; 'I' for Inactive)
REMARK    1  A    between atoms: C_6  and  N_7 
REMARK       I    between atoms: N_7  and  C_8 
REMARK       I    between atoms: C_8  and  N_9 
REMARK    2  A    between atoms: N_9  and  C_10 
ROOT
HETATM    1  N   UNL     1      27.706  40.466  51.521  1.00  0.00    -0.306 N 
HETATM    2  C   UNL     1      28.168  41.239  52.540  1.00  0.00     0.321 C 
HETATM    3  N   UNL     1      28.959  42.304  52.243  1.00  0.00    -0.338 N 
HETATM    4  O   UNL     1      27.746  41.036  53.677  1.00  0.00    -0.247 OA
HETATM    5  H   UNL     1      26.924  39.907  51.845  1.00  0.00     0.171 HD
HETATM    6  H   UNL     1      29.564  42.189  51.443  1.00  0.00     0.164 HD
ENDROOT
BRANCH   3   7
HETATM    7  C   UNL     1      29.390  43.282  53.233  1.00  0.00     0.092 C 
HETATM    8  C   UNL     1      28.191  44.101  53.795  1.00  0.00     0.084 C 
HETATM    9  C   UNL     1      28.640  44.890  54.955  1.00  0.00     0.034 A 
HETATM   10  C   UNL     1      29.819  44.708  55.642  1.00  0.00     0.033 A 
HETATM   11  N   UNL     1      27.977  45.919  55.591  1.00  0.00    -0.354 N 
HETATM   12  N   UNL     1      29.820  45.642  56.656  1.00  0.00    -0.354 N 
HETATM   13  C   UNL     1      30.863  43.721  55.308  1.00  0.00     0.061 C 
HETATM   14  H   UNL     1      30.561  45.763  57.344  1.00  0.00     0.166 HD
HETATM   15  C   UNL     1      28.696  46.366  56.626  1.00  0.00     0.180 A 
HETATM   16  C   UNL     1      30.280  42.661  54.349  1.00  0.00     0.031 C 
HETATM   17  H   UNL     1      27.061  46.277  55.329  1.00  0.00     0.166 HD
ENDBRANCH   3   7
BRANCH   1  18
HETATM   18  C   UNL     1      27.879  40.543  50.120  1.00  0.00     0.077 A 
HETATM   19  C   UNL     1      27.408  41.524  49.243  1.00  0.00     0.152 A 
HETATM   20  N   UNL     1      27.561  41.492  47.898  1.00  0.00    -0.247 NA
HETATM   21 CL   UNL     1      26.714  43.018  49.755  1.00  0.00    -0.060 Cl
HETATM   22  C   UNL     1      28.257  40.458  47.387  1.00  0.00     0.118 A 
HETATM   23  C   UNL     1      28.825  39.465  48.163  1.00  0.00     0.022 A 
HETATM   24  C   UNL     1      28.642  39.518  49.544  1.00  0.00     0.034 A 
ENDBRANCH   1  18
TORSDOF 2
ENDMDL
MODEL 5
REMARK VINA RESULT:      -7.2      6.627     10.348
REMARK  2 active torsions:
REMARK  status: ('A' for Active; 'I' for Inactive)
REMARK    1  A    between atoms: C_6  and  N_7 
REMARK       I    between atoms: N_7  and  C_8 
REMARK       I    between atoms: C_8  and  N_9 
REMARK    2  A    between atoms: N_9  and  C_10 
ROOT
HETATM    1  N   UNL     1      28.338  46.480  55.658  1.00  0.00    -0.306 N 
HETATM    2  C   UNL     1      27.321  46.691  54.780  1.00  0.00     0.321 C 
HETATM    3  N   UNL     1      27.095  45.765  53.812  1.00  0.00    -0.338 N 
HETATM    4  O   UNL     1      26.556  47.634  54.973  1.00  0.00    -0.247 OA
HETATM    5  H   UNL     1      28.215  47.075  56.470  1.00  0.00     0.171 HD
HETATM    6  H   UNL     1      27.914  45.291  53.460  1.00  0.00     0.164 HD
ENDROOT
BRANCH   3   7
HETATM    7  C   UNL     1      25.949  45.810  52.912  1.00  0.00     0.092 C 
HETATM    8  C   UNL     1      26.021  47.030  51.948  1.00  0.00     0.084 C 
HETATM    9  C   UNL     1      24.987  46.892  50.908  1.00  0.00     0.034 A 
HETATM   10  C   UNL     1      24.283  45.744  50.623  1.00  0.00     0.033 A 
HETATM   11  N   UNL     1      24.547  47.847  50.015  1.00  0.00    -0.354 N 
HETATM   12  N   UNL     1      23.443  46.058  49.576  1.00  0.00    -0.354 N 
HETATM   13  C   UNL     1      24.409  44.460  51.339  1.00  0.00     0.061 C 
HETATM   14  H   UNL     1      22.790  45.416  49.132  1.00  0.00     0.166 HD
HETATM   15  C   UNL     1      23.615  47.332  49.206  1.00  0.00     0.180 A 
HETATM   16  C   UNL     1      25.709  44.462  52.172  1.00  0.00     0.031 C 
HETATM   17  H   UNL     1      24.893  48.803  49.960  1.00  0.00     0.166 HD
ENDBRANCH   3   7
BRANCH   1  18
HETATM   18  C   UNL     1      29.271  45.427  55.793  1.00  0.00     0.077 A 
HETATM   19  C   UNL     1      30.263  45.270  56.765  1.00  0.00     0.152 A 
HETATM   20  N   UNL     1      31.164  44.260  56.789  1.00  0.00    -0.247 NA
HETATM   21 CL   UNL     1      30.378  46.240  58.186  1.00  0.00    -0.060 Cl
HETATM   22  C   UNL     1      31.058  43.324  55.826  1.00  0.00     0.118 A 
HETATM   23  C   UNL     1      30.077  43.341  54.852  1.00  0.00     0.022 A 
HETATM   24  C   UNL     1      29.169  44.399  54.847  1.00  0.00     0.034 A 
ENDBRANCH   1  18
TORSDOF 2
ENDMDL
MODEL 6
REMARK VINA RESULT:      -7.1      2.926      7.047
REMARK  2 active torsions:
REMARK  status: ('A' for Active; 'I' for Inactive)
REMARK    1  A    between atoms: C_6  and  N_7 
REMARK       I    between atoms: N_7  and  C_8 
REMARK       I    between atoms: C_8  and  N_9 
REMARK    2  A    between atoms: N_9  and  C_10 
ROOT
HETATM    1  N   UNL     1      23.476  46.170  48.824  1.00  0.00    -0.306 N 
HETATM    2  C   UNL     1      22.545  47.081  48.432  1.00  0.00     0.321 C 
HETATM    3  N   UNL     1      22.034  47.930  49.361  1.00  0.00    -0.338 N 
HETATM    4  O   UNL     1      22.302  47.202  47.232  1.00  0.00    -0.247 OA
HETATM    5  H   UNL     1      23.966  45.812  48.011  1.00  0.00     0.171 HD
HETATM    6  H   UNL     1      21.943  47.554  50.294  1.00  0.00     0.164 HD
ENDROOT
BRANCH   3   7
HETATM    7  C   UNL     1      21.146  49.038  49.031  1.00  0.00     0.092 C 
HETATM    8  C   UNL     1      19.851  49.016  49.893  1.00  0.00     0.084 C 
HETATM    9  C   UNL     1      19.115  50.277  49.702  1.00  0.00     0.034 A 
HETATM   10  C   UNL     1      19.619  51.421  49.124  1.00  0.00     0.033 A 
HETATM   11  N   UNL     1      17.821  50.572  50.078  1.00  0.00    -0.354 N 
HETATM   12  N   UNL     1      18.603  52.352  49.168  1.00  0.00    -0.354 N 
HETATM   13  C   UNL     1      20.971  51.570  48.553  1.00  0.00     0.061 C 
HETATM   14  H   UNL     1      18.663  53.306  48.816  1.00  0.00     0.166 HD
HETATM   15  C   UNL     1      17.519  51.834  49.757  1.00  0.00     0.180 A 
HETATM   16  C   UNL     1      21.869  50.417  49.051  1.00  0.00     0.031 C 
HETATM   17  H   UNL     1      17.187  49.931  50.552  1.00  0.00     0.166 HD
ENDBRANCH   3   7
BRANCH   1  18
HETATM   18  C   UNL     1      24.070  45.902  50.078  1.00  0.00     0.077 A 
HETATM   19  C   UNL     1      23.976  44.740  50.849  1.00  0.00     0.152 A 
HETATM   20  N   UNL     1      24.526  44.584  52.077  1.00  0.00    -0.247 NA
HETATM   21 CL   UNL     1      23.294  43.262  50.280  1.00  0.00    -0.060 Cl
HETATM   22  C   UNL     1      25.250  45.614  52.557  1.00  0.00     0.118 A 
HETATM   23  C   UNL     1      25.465  46.785  51.855  1.00  0.00     0.022 A 
HETATM   24  C   UNL     1      24.878  46.921  50.598  1.00  0.00     0.034 A 
ENDBRANCH   1  18
TORSDOF 2
ENDMDL
MODEL 7
REMARK VINA RESULT:      -7.1      5.839      9.658
REMARK  2 active torsions:
REMARK  status: ('A' for Active; 'I' for Inactive)
REMARK    1  A    between atoms: C_6  and  N_7 
REMARK       I    between atoms: N_7  and  C_8 
REMARK       I    between atoms: C_8  and  N_9 
REMARK    2  A    between atoms: N_9  and  C_10 
ROOT
HETATM    1  N   UNL     1      26.520  43.600  54.506  1.00  0.00    -0.306 N 
HETATM    2  C   UNL     1      25.547  44.239  53.803  1.00  0.00     0.321 C 
HETATM    3  N   UNL     1      25.818  44.638  52.533  1.00  0.00    -0.338 N 
HETATM    4  O   UNL     1      24.417  44.309  54.283  1.00  0.00    -0.247 OA
HETATM    5  H   UNL     1      26.108  43.118  55.298  1.00  0.00     0.171 HD
HETATM    6  H   UNL     1      26.772  44.920  52.357  1.00  0.00     0.164 HD
ENDROOT
BRANCH   3   7
HETATM    7  C   UNL     1      24.813  45.197  51.637  1.00  0.00     0.092 C 
HETATM    8  C   UNL     1      25.181  46.641  51.187  1.00  0.00     0.084 C 
HETATM    9  C   UNL     1      24.276  47.059  50.102  1.00  0.00     0.034 A 
HETATM   10  C   UNL     1      23.455  46.226  49.376  1.00  0.00     0.033 A 
HETATM   11  N   UNL     1      24.095  48.326  49.588  1.00  0.00    -0.354 N 
HETATM   12  N   UNL     1      22.807  47.029  48.461  1.00  0.00    -0.354 N 
HETATM   13  C   UNL     1      23.303  44.774  49.586  1.00  0.00     0.061 C 
HETATM   14  H   UNL     1      22.128  46.708  47.773  1.00  0.00     0.166 HD
HETATM   15  C   UNL     1      23.207  48.299  48.588  1.00  0.00     0.180 A 
HETATM   16  C   UNL     1      24.475  44.254  50.446  1.00  0.00     0.031 C 
HETATM   17  H   UNL     1      24.580  49.163  49.904  1.00  0.00     0.166 HD
ENDBRANCH   3   7
BRANCH   1  18
HETATM   18  C   UNL     1      27.844  43.231  54.174  1.00  0.00     0.077 A 
HETATM   19  C   UNL     1      29.033  43.888  54.502  1.00  0.00     0.152 A 
HETATM   20  N   UNL     1      30.263  43.504  54.089  1.00  0.00    -0.247 NA
HETATM   21 CL   UNL     1      29.132  45.187  55.631  1.00  0.00    -0.060 Cl
HETATM   22  C   UNL     1      30.336  42.382  53.346  1.00  0.00     0.118 A 
HETATM   23  C   UNL     1      29.234  41.615  53.016  1.00  0.00     0.022 A 
HETATM   24  C   UNL     1      27.979  42.041  53.446  1.00  0.00     0.034 A 
ENDBRANCH   1  18
TORSDOF 2
ENDMDL
MODEL 8
REMARK VINA RESULT:      -7.0      7.540     11.101
REMARK  2 active torsions:
REMARK  status: ('A' for Active; 'I' for Inactive)
REMARK    1  A    between atoms: C_6  and  N_7 
REMARK       I    between atoms: N_7  and  C_8 
REMARK       I    between atoms: C_8  and  N_9 
REMARK    2  A    between atoms: N_9  and  C_10 
ROOT
HETATM    1  N   UNL     1      30.045  43.834  54.557  1.00  0.00    -0.306 N 
HETATM    2  C   UNL     1      29.125  43.840  53.555  1.00  0.00     0.321 C 
HETATM    3  N   UNL     1      27.996  44.579  53.712  1.00  0.00    -0.338 N 
HETATM    4  O   UNL     1      29.406  43.295  52.488  1.00  0.00    -0.247 OA
HETATM    5  H   UNL     1      30.932  43.493  54.202  1.00  0.00     0.171 HD
HETATM    6  H   UNL     1      27.645  44.646  54.657  1.00  0.00     0.164 HD
ENDROOT
BRANCH   3   7
HETATM    7  C   UNL     1      27.015  44.778  52.653  1.00  0.00     0.092 C 
HETATM    8  C   UNL     1      26.151  43.505  52.420  1.00  0.00     0.084 C 
HETATM    9  C   UNL     1      25.026  43.835  51.528  1.00  0.00     0.034 A 
HETATM   10  C   UNL     1      24.604  45.105  51.204  1.00  0.00     0.033 A 
HETATM   11  N   UNL     1      24.173  42.967  50.879  1.00  0.00    -0.354 N 
HETATM   12  N   UNL     1      23.520  44.947  50.366  1.00  0.00    -0.354 N 
HETATM   13  C   UNL     1      25.232  46.360  51.658  1.00  0.00     0.061 C 
HETATM   14  H   UNL     1      22.981  45.704  49.952  1.00  0.00     0.166 HD
HETATM   15  C   UNL     1      23.258  43.648  50.181  1.00  0.00     0.180 A 
HETATM   16  C   UNL     1      26.162  46.065  52.855  1.00  0.00     0.031 C 
HETATM   17  H   UNL     1      24.215  41.951  50.936  1.00  0.00     0.166 HD
ENDBRANCH   3   7
BRANCH   1  18
HETATM   18  C   UNL     1      30.083  44.482  55.813  1.00  0.00     0.077 A 
HETATM   19  C   UNL     1      30.905  44.199  56.906  1.00  0.00     0.152 A 
HETATM   20  N   UNL     1      30.836  44.827  58.104  1.00  0.00    -0.247 NA
HETATM   21 CL   UNL     1      32.255  43.128  56.842  1.00  0.00    -0.060 Cl
HETATM   22  C   UNL     1      29.936  45.823  58.220  1.00  0.00     0.118 A 
HETATM   23  C   UNL     1      29.117  46.233  57.185  1.00  0.00     0.022 A 
HETATM   24  C   UNL     1      29.202  45.561  55.967  1.00  0.00     0.034 A 
ENDBRANCH   1  18
TORSDOF 2
ENDMDL
MODEL 9
REMARK VINA RESULT:      -7.0      1.631      2.438
REMARK  2 active torsions:
REMARK  status: ('A' for Active; 'I' for Inactive)
REMARK    1  A    between atoms: C_6  and  N_7 
REMARK       I    between atoms: N_7  and  C_8 
REMARK       I    between atoms: C_8  and  N_9 
REMARK    2  A    between atoms: N_9  and  C_10 
ROOT
HETATM    1  N   UNL     1      20.727  49.036  47.790  1.00  0.00    -0.306 N 
HETATM    2  C   UNL     1      21.919  48.430  48.040  1.00  0.00     0.321 C 
HETATM    3  N   UNL     1      22.548  48.692  49.215  1.00  0.00    -0.338 N 
HETATM    4  O   UNL     1      22.318  47.563  47.265  1.00  0.00    -0.247 OA
HETATM    5  H   UNL     1      20.247  48.547  47.041  1.00  0.00     0.171 HD
HETATM    6  H   UNL     1      22.422  49.626  49.580  1.00  0.00     0.164 HD
ENDROOT
BRANCH   3   7
HETATM    7  C   UNL     1      23.749  47.993  49.655  1.00  0.00     0.092 C 
HETATM    8  C   UNL     1      23.676  46.470  49.345  1.00  0.00     0.084 C 
HETATM    9  C   UNL     1      24.996  45.861  49.576  1.00  0.00     0.034 A 
HETATM   10  C   UNL     1      26.181  46.545  49.727  1.00  0.00     0.033 A 
HETATM   11  N   UNL     1      25.312  44.520  49.657  1.00  0.00    -0.354 N 
HETATM   12  N   UNL     1      27.158  45.588  49.901  1.00  0.00    -0.354 N 
HETATM   13  C   UNL     1      26.330  48.013  49.728  1.00  0.00     0.061 C 
HETATM   14  H   UNL     1      28.149  45.777  50.038  1.00  0.00     0.166 HD
HETATM   15  C   UNL     1      26.626  44.362  49.847  1.00  0.00     0.180 A 
HETATM   16  C   UNL     1      25.058  48.659  49.138  1.00  0.00     0.031 C 
HETATM   17  H   UNL     1      24.648  43.754  49.564  1.00  0.00     0.166 HD
ENDBRANCH   3   7
BRANCH   1  18
HETATM   18  C   UNL     1      19.945  49.939  48.546  1.00  0.00     0.077 A 
HETATM   19  C   UNL     1      19.068  49.653  49.596  1.00  0.00     0.152 A 
HETATM   20  N   UNL     1      18.303  50.572  50.231  1.00  0.00    -0.247 NA
HETATM   21 CL   UNL     1      18.958  48.113  50.364  1.00  0.00    -0.060 Cl
HETATM   22  C   UNL     1      18.439  51.855  49.842  1.00  0.00     0.118 A 
HETATM   23  C   UNL     1      19.323  52.262  48.861  1.00  0.00     0.022 A 
HETATM   24  C   UNL     1      20.091  51.293  48.217  1.00  0.00     0.034 A 
ENDBRANCH   1  18
TORSDOF 2
ENDMDL
MODEL 10
REMARK VINA RESULT:      -7.0      3.627      4.939
REMARK  2 active torsions:
REMARK  status: ('A' for Active; 'I' for Inactive)
REMARK    1  A    between atoms: C_6  and  N_7 
REMARK       I    between atoms: N_7  and  C_8 
REMARK       I    between atoms: C_8  and  N_9 
REMARK    2  A    between atoms: N_9  and  C_10 
ROOT
HETATM    1  N   UNL     1      24.547  49.252  48.630  1.00  0.00    -0.306 N 
HETATM    2  C   UNL     1      25.213  48.344  49.392  1.00  0.00     0.321 C 
HETATM    3  N   UNL     1      24.494  47.512  50.190  1.00  0.00    -0.338 N 
HETATM    4  O   UNL     1      26.425  48.208  49.231  1.00  0.00    -0.247 OA
HETATM    5  H   UNL     1      25.157  49.594  47.896  1.00  0.00     0.171 HD
HETATM    6  H   UNL     1      23.646  47.901  50.577  1.00  0.00     0.164 HD
ENDROOT
BRANCH   3   7
HETATM    7  C   UNL     1      25.085  46.407  50.935  1.00  0.00     0.092 C 
HETATM    8  C   UNL     1      25.451  46.823  52.389  1.00  0.00     0.084 C 
HETATM    9  C   UNL     1      25.807  45.622  53.165  1.00  0.00     0.034 A 
HETATM   10  C   UNL     1      25.557  44.321  52.791  1.00  0.00     0.033 A 
HETATM   11  N   UNL     1      26.416  45.558  54.401  1.00  0.00    -0.354 N 
HETATM   12  N   UNL     1      26.035  43.529  53.813  1.00  0.00    -0.354 N 
HETATM   13  C   UNL     1      24.928  43.898  51.525  1.00  0.00     0.061 C 
HETATM   14  H   UNL     1      25.998  42.512  53.836  1.00  0.00     0.166 HD
HETATM   15  C   UNL     1      26.546  44.286  54.791  1.00  0.00     0.180 A 
HETATM   16  C   UNL     1      24.230  45.108  50.869  1.00  0.00     0.031 C 
HETATM   17  H   UNL     1      26.709  46.362  54.953  1.00  0.00     0.166 HD
ENDBRANCH   3   7
BRANCH   1  18
HETATM   18  C   UNL     1      23.170  49.532  48.475  1.00  0.00     0.077 A 
HETATM   19  C   UNL     1      22.168  48.694  47.978  1.00  0.00     0.152 A 
HETATM   20  N   UNL     1      20.877  49.059  47.800  1.00  0.00    -0.247 NA
HETATM   21 CL   UNL     1      22.384  47.009  47.681  1.00  0.00    -0.060 Cl
HETATM   22  C   UNL     1      20.538  50.309  48.175  1.00  0.00     0.118 A 
HETATM   23  C   UNL     1      21.430  51.201  48.740  1.00  0.00     0.022 A 
HETATM   24  C   UNL     1      22.755  50.801  48.901  1.00  0.00     0.034 A 
ENDBRANCH   1  18
TORSDOF 2
ENDMDL
