MODEL 1
REMARK VINA RESULT:      -9.8      0.000      0.000
REMARK  4 active torsions:
REMARK  status: ('A' for Active; 'I' for Inactive)
REMARK    1  A    between atoms: C_3  and  C_4 
REMARK    2  A    between atoms: C_9  and  N_10 
REMARK       I    between atoms: N_10  and  C_11 
REMARK    3  A    between atoms: C_11  and  C_12 
REMARK    4  A    between atoms: C_16  and  C_17 
ROOT
HETATM    1  N   UNL     1      26.707  46.273  51.168  1.00  0.00    -0.322 N 
HETATM    2  C   UNL     1      26.351  45.078  51.762  1.00  0.00     0.276 C 
HETATM    3  O   UNL     1      25.265  44.514  51.686  1.00  0.00    -0.266 OA
HETATM    4  H   UNL     1      27.664  46.552  51.379  1.00  0.00     0.169 HD
ENDROOT
BRANCH   2   5
HETATM    5  C   UNL     1      27.446  44.535  52.586  1.00  0.00     0.147 A 
HETATM    6  N   UNL     1      28.294  43.595  52.121  1.00  0.00    -0.169 NA
HETATM    7  N   UNL     1      29.153  43.406  53.138  1.00  0.00    -0.277 N 
HETATM    8  H   UNL     1      29.882  42.713  53.018  1.00  0.00     0.189 HD
HETATM    9  C   UNL     1      28.941  44.215  54.228  1.00  0.00     0.063 A 
HETATM   10  C   UNL     1      27.802  44.927  53.900  1.00  0.00     0.071 A 
BRANCH   9  11
HETATM   11  C   UNL     1      29.799  44.249  55.418  1.00  0.00    -0.008 A 
HETATM   12  C   UNL     1      29.737  45.301  56.346  1.00  0.00     0.014 A 
HETATM   13  C   UNL     1      30.542  45.300  57.490  1.00  0.00     0.001 A 
HETATM   14  C   UNL     1      31.420  44.246  57.727  1.00  0.00     0.000 A 
HETATM   15  C   UNL     1      31.497  43.195  56.819  1.00  0.00     0.001 A 
HETATM   16  C   UNL     1      30.694  43.198  55.674  1.00  0.00     0.014 A 
ENDBRANCH   9  11
ENDBRANCH   2   5
BRANCH   1  17
HETATM   17  C   UNL     1      25.901  47.158  50.437  1.00  0.00     0.035 A 
HETATM   18  C   UNL     1      24.509  47.119  50.436  1.00  0.00     0.030 A 
HETATM   19  C   UNL     1      23.776  48.068  49.718  1.00  0.00     0.018 A 
HETATM   20  C   UNL     1      24.427  49.078  48.995  1.00  0.00     0.015 A 
HETATM   21  C   UNL     1      25.833  49.125  48.975  1.00  0.00    -0.046 A 
HETATM   22  C   UNL     1      26.595  50.178  48.217  1.00  0.00     0.049 C 
HETATM   23  C   UNL     1      26.554  48.150  49.691  1.00  0.00     0.037 A 
BRANCH  20  24
HETATM   24  C   UNL     1      23.602  50.080  48.261  1.00  0.00     0.156 C 
HETATM   25  C   UNL     1      22.863  51.118  49.066  1.00  0.00     0.097 C 
HETATM   26  O   UNL     1      23.520  50.043  47.036  1.00  0.00    -0.293 OA
ENDBRANCH  20  24
ENDBRANCH   1  17
TORSDOF 4
ENDMDL
MODEL 2
REMARK VINA RESULT:      -9.1      3.073     10.110
REMARK  4 active torsions:
REMARK  status: ('A' for Active; 'I' for Inactive)
REMARK    1  A    between atoms: C_3  and  C_4 
REMARK    2  A    between atoms: C_9  and  N_10 
REMARK       I    between atoms: N_10  and  C_11 
REMARK    3  A    between atoms: C_11  and  C_12 
REMARK    4  A    between atoms: C_16  and  C_17 
ROOT
HETATM    1  N   UNL     1      24.410  47.439  50.391  1.00  0.00    -0.322 N 
HETATM    2  C   UNL     1      25.043  48.265  49.483  1.00  0.00     0.276 C 
HETATM    3  O   UNL     1      26.246  48.316  49.249  1.00  0.00    -0.266 OA
HETATM    4  H   UNL     1      23.402  47.579  50.420  1.00  0.00     0.169 HD
ENDROOT
BRANCH   2   5
HETATM    5  C   UNL     1      24.089  49.168  48.814  1.00  0.00     0.147 A 
HETATM    6  N   UNL     1      24.423  49.879  47.719  1.00  0.00    -0.169 NA
HETATM    7  N   UNL     1      23.288  50.527  47.399  1.00  0.00    -0.277 N 
HETATM    8  H   UNL     1      23.310  51.151  46.602  1.00  0.00     0.189 HD
HETATM    9  C   UNL     1      22.213  50.233  48.200  1.00  0.00     0.063 A 
HETATM   10  C   UNL     1      22.731  49.379  49.157  1.00  0.00     0.071 A 
BRANCH   9  11
HETATM   11  C   UNL     1      20.854  50.749  47.992  1.00  0.00    -0.008 A 
HETATM   12  C   UNL     1      20.347  51.823  48.742  1.00  0.00     0.014 A 
HETATM   13  C   UNL     1      19.061  52.320  48.508  1.00  0.00     0.001 A 
HETATM   14  C   UNL     1      18.261  51.756  47.517  1.00  0.00     0.000 A 
HETATM   15  C   UNL     1      18.747  50.691  46.764  1.00  0.00     0.001 A 
HETATM   16  C   UNL     1      20.031  50.193  47.001  1.00  0.00     0.014 A 
ENDBRANCH   9  11
ENDBRANCH   2   5
BRANCH   1  17
HETATM   17  C   UNL     1      24.986  46.555  51.315  1.00  0.00     0.035 A 
HETATM   18  C   UNL     1      24.959  45.168  51.182  1.00  0.00     0.030 A 
HETATM   19  C   UNL     1      25.599  44.355  52.123  1.00  0.00     0.018 A 
HETATM   20  C   UNL     1      26.283  44.920  53.208  1.00  0.00     0.015 A 
HETATM   21  C   UNL     1      26.309  46.318  53.365  1.00  0.00    -0.046 A 
HETATM   22  C   UNL     1      27.020  46.989  54.509  1.00  0.00     0.049 C 
HETATM   23  C   UNL     1      25.645  47.119  52.416  1.00  0.00     0.037 A 
BRANCH  20  24
HETATM   24  C   UNL     1      26.966  44.014  54.175  1.00  0.00     0.156 C 
HETATM   25  C   UNL     1      28.410  43.662  53.920  1.00  0.00     0.097 C 
HETATM   26  O   UNL     1      26.358  43.557  55.139  1.00  0.00    -0.293 OA
ENDBRANCH  20  24
ENDBRANCH   1  17
TORSDOF 4
ENDMDL
MODEL 3
REMARK VINA RESULT:      -8.9      2.673      9.537
REMARK  4 active torsions:
REMARK  status: ('A' for Active; 'I' for Inactive)
REMARK    1  A    between atoms: C_3  and  C_4 
REMARK    2  A    between atoms: C_9  and  N_10 
REMARK       I    between atoms: N_10  and  C_11 
REMARK    3  A    between atoms: C_11  and  C_12 
REMARK    4  A    between atoms: C_16  and  C_17 
ROOT
HETATM    1  N   UNL     1      25.448  46.743  52.136  1.00  0.00    -0.322 N 
HETATM    2  C   UNL     1      25.620  46.641  50.770  1.00  0.00     0.276 C 
HETATM    3  O   UNL     1      26.650  46.332  50.180  1.00  0.00    -0.266 OA
HETATM    4  H   UNL     1      24.504  47.024  52.398  1.00  0.00     0.169 HD
ENDROOT
BRANCH   2   5
HETATM    5  C   UNL     1      24.393  47.007  50.040  1.00  0.00     0.147 A 
HETATM    6  N   UNL     1      23.523  46.079  49.592  1.00  0.00    -0.169 NA
HETATM    7  N   UNL     1      22.539  46.806  49.032  1.00  0.00    -0.277 N 
HETATM    8  H   UNL     1      21.769  46.307  48.603  1.00  0.00     0.189 HD
HETATM    9  C   UNL     1      22.696  48.165  49.140  1.00  0.00     0.063 A 
HETATM   10  C   UNL     1      23.925  48.313  49.757  1.00  0.00     0.071 A 
BRANCH   9  11
HETATM   11  C   UNL     1      21.713  49.155  48.684  1.00  0.00    -0.008 A 
HETATM   12  C   UNL     1      21.695  50.467  49.185  1.00  0.00     0.014 A 
HETATM   13  C   UNL     1      20.769  51.404  48.715  1.00  0.00     0.001 A 
HETATM   14  C   UNL     1      19.847  51.047  47.734  1.00  0.00     0.000 A 
HETATM   15  C   UNL     1      19.849  49.752  47.226  1.00  0.00     0.001 A 
HETATM   16  C   UNL     1      20.773  48.815  47.698  1.00  0.00     0.014 A 
ENDBRANCH   9  11
ENDBRANCH   2   5
BRANCH   1  17
HETATM   17  C   UNL     1      26.411  46.622  53.149  1.00  0.00     0.035 A 
HETATM   18  C   UNL     1      26.792  47.668  53.985  1.00  0.00     0.030 A 
HETATM   19  C   UNL     1      27.726  47.454  55.004  1.00  0.00     0.018 A 
HETATM   20  C   UNL     1      28.285  46.185  55.206  1.00  0.00     0.015 A 
HETATM   21  C   UNL     1      27.920  45.119  54.362  1.00  0.00    -0.046 A 
HETATM   22  C   UNL     1      28.485  43.734  54.521  1.00  0.00     0.049 C 
HETATM   23  C   UNL     1      26.992  45.359  53.332  1.00  0.00     0.037 A 
BRANCH  20  24
HETATM   24  C   UNL     1      29.261  46.000  56.318  1.00  0.00     0.156 C 
HETATM   25  C   UNL     1      28.749  46.076  57.733  1.00  0.00     0.097 C 
HETATM   26  O   UNL     1      30.451  45.809  56.079  1.00  0.00    -0.293 OA
ENDBRANCH  20  24
ENDBRANCH   1  17
TORSDOF 4
ENDMDL
MODEL 4
REMARK VINA RESULT:      -8.9      2.349      9.172
REMARK  4 active torsions:
REMARK  status: ('A' for Active; 'I' for Inactive)
REMARK    1  A    between atoms: C_3  and  C_4 
REMARK    2  A    between atoms: C_9  and  N_10 
REMARK       I    between atoms: N_10  and  C_11 
REMARK    3  A    between atoms: C_11  and  C_12 
REMARK    4  A    between atoms: C_16  and  C_17 
ROOT
HETATM    1  N   UNL     1      26.659  45.915  53.094  1.00  0.00    -0.322 N 
HETATM    2  C   UNL     1      25.841  44.983  52.486  1.00  0.00     0.276 C 
HETATM    3  O   UNL     1      25.778  43.785  52.736  1.00  0.00    -0.266 OA
HETATM    4  H   UNL     1      26.545  46.853  52.714  1.00  0.00     0.169 HD
ENDROOT
BRANCH   2   5
HETATM    5  C   UNL     1      25.037  45.590  51.408  1.00  0.00     0.147 A 
HETATM    6  N   UNL     1      24.057  44.912  50.778  1.00  0.00    -0.169 NA
HETATM    7  N   UNL     1      23.550  45.810  49.915  1.00  0.00    -0.277 N 
HETATM    8  H   UNL     1      22.797  45.509  49.308  1.00  0.00     0.189 HD
HETATM    9  C   UNL     1      24.115  47.060  49.988  1.00  0.00     0.063 A 
HETATM   10  C   UNL     1      25.119  46.920  50.928  1.00  0.00     0.071 A 
BRANCH   9  11
HETATM   11  C   UNL     1      23.669  48.221  49.208  1.00  0.00    -0.008 A 
HETATM   12  C   UNL     1      24.559  49.229  48.805  1.00  0.00     0.014 A 
HETATM   13  C   UNL     1      24.120  50.312  48.037  1.00  0.00     0.001 A 
HETATM   14  C   UNL     1      22.784  50.405  47.656  1.00  0.00     0.000 A 
HETATM   15  C   UNL     1      21.886  49.416  48.046  1.00  0.00     0.001 A 
HETATM   16  C   UNL     1      22.326  48.335  48.816  1.00  0.00     0.014 A 
ENDBRANCH   9  11
ENDBRANCH   2   5
BRANCH   1  17
HETATM   17  C   UNL     1      27.663  45.702  54.051  1.00  0.00     0.035 A 
HETATM   18  C   UNL     1      27.890  46.544  55.137  1.00  0.00     0.030 A 
HETATM   19  C   UNL     1      28.881  46.237  56.074  1.00  0.00     0.018 A 
HETATM   20  C   UNL     1      29.654  45.075  55.943  1.00  0.00     0.015 A 
HETATM   21  C   UNL     1      29.447  44.220  54.845  1.00  0.00    -0.046 A 
HETATM   22  C   UNL     1      30.244  42.961  54.641  1.00  0.00     0.049 C 
HETATM   23  C   UNL     1      28.456  44.556  53.903  1.00  0.00     0.037 A 
BRANCH  20  24
HETATM   24  C   UNL     1      30.685  44.779  56.978  1.00  0.00     0.156 C 
HETATM   25  C   UNL     1      30.466  45.311  58.371  1.00  0.00     0.097 C 
HETATM   26  O   UNL     1      31.690  44.133  56.692  1.00  0.00    -0.293 OA
ENDBRANCH  20  24
ENDBRANCH   1  17
TORSDOF 4
ENDMDL
MODEL 5
REMARK VINA RESULT:      -8.8      4.842      7.292
REMARK  4 active torsions:
REMARK  status: ('A' for Active; 'I' for Inactive)
REMARK    1  A    between atoms: C_3  and  C_4 
REMARK    2  A    between atoms: C_9  and  N_10 
REMARK       I    between atoms: N_10  and  C_11 
REMARK    3  A    between atoms: C_11  and  C_12 
REMARK    4  A    between atoms: C_16  and  C_17 
ROOT
HETATM    1  N   UNL     1      27.780  41.681  51.746  1.00  0.00    -0.322 N 
HETATM    2  C   UNL     1      27.713  43.045  51.540  1.00  0.00     0.276 C 
HETATM    3  O   UNL     1      27.409  43.617  50.498  1.00  0.00    -0.266 OA
HETATM    4  H   UNL     1      28.064  41.436  52.693  1.00  0.00     0.169 HD
ENDROOT
BRANCH   2   5
HETATM    5  C   UNL     1      28.111  43.796  52.744  1.00  0.00     0.147 A 
HETATM    6  N   UNL     1      27.406  44.853  53.195  1.00  0.00    -0.169 NA
HETATM    7  N   UNL     1      28.058  45.221  54.312  1.00  0.00    -0.277 N 
HETATM    8  H   UNL     1      27.710  46.026  54.819  1.00  0.00     0.189 HD
HETATM    9  C   UNL     1      29.124  44.422  54.645  1.00  0.00     0.063 A 
HETATM   10  C   UNL     1      29.199  43.512  53.606  1.00  0.00     0.071 A 
BRANCH   9  11
HETATM   11  C   UNL     1      29.930  44.574  55.862  1.00  0.00    -0.008 A 
HETATM   12  C   UNL     1      29.719  45.632  56.762  1.00  0.00     0.014 A 
HETATM   13  C   UNL     1      30.477  45.743  57.933  1.00  0.00     0.001 A 
HETATM   14  C   UNL     1      31.456  44.797  58.226  1.00  0.00     0.000 A 
HETATM   15  C   UNL     1      31.679  43.742  57.346  1.00  0.00     0.001 A 
HETATM   16  C   UNL     1      30.923  43.633  56.175  1.00  0.00     0.014 A 
ENDBRANCH   9  11
ENDBRANCH   2   5
BRANCH   1  17
HETATM   17  C   UNL     1      27.621  40.648  50.811  1.00  0.00     0.035 A 
HETATM   18  C   UNL     1      26.436  40.403  50.120  1.00  0.00     0.030 A 
HETATM   19  C   UNL     1      26.372  39.382  49.167  1.00  0.00     0.018 A 
HETATM   20  C   UNL     1      27.497  38.595  48.886  1.00  0.00     0.015 A 
HETATM   21  C   UNL     1      28.698  38.819  49.583  1.00  0.00    -0.046 A 
HETATM   22  C   UNL     1      29.940  38.009  49.334  1.00  0.00     0.049 C 
HETATM   23  C   UNL     1      28.738  39.842  50.551  1.00  0.00     0.037 A 
BRANCH  20  24
HETATM   24  C   UNL     1      27.386  37.531  47.847  1.00  0.00     0.156 C 
HETATM   25  C   UNL     1      27.781  37.874  46.433  1.00  0.00     0.097 C 
HETATM   26  O   UNL     1      26.968  36.414  48.140  1.00  0.00    -0.293 OA
ENDBRANCH  20  24
ENDBRANCH   1  17
TORSDOF 4
ENDMDL
MODEL 6
REMARK VINA RESULT:      -8.8      5.486      7.669
REMARK  4 active torsions:
REMARK  status: ('A' for Active; 'I' for Inactive)
REMARK    1  A    between atoms: C_3  and  C_4 
REMARK    2  A    between atoms: C_9  and  N_10 
REMARK       I    between atoms: N_10  and  C_11 
REMARK    3  A    between atoms: C_11  and  C_12 
REMARK    4  A    between atoms: C_16  and  C_17 
ROOT
HETATM    1  N   UNL     1      28.783  40.928  51.124  1.00  0.00    -0.322 N 
HETATM    2  C   UNL     1      27.759  41.694  51.645  1.00  0.00     0.276 C 
HETATM    3  O   UNL     1      26.570  41.631  51.351  1.00  0.00    -0.266 OA
HETATM    4  H   UNL     1      29.694  41.164  51.513  1.00  0.00     0.169 HD
ENDROOT
BRANCH   2   5
HETATM    5  C   UNL     1      28.263  42.689  52.609  1.00  0.00     0.147 A 
HETATM    6  N   UNL     1      27.859  43.975  52.588  1.00  0.00    -0.169 NA
HETATM    7  N   UNL     1      28.502  44.530  53.631  1.00  0.00    -0.277 N 
HETATM    8  H   UNL     1      28.362  45.519  53.800  1.00  0.00     0.189 HD
HETATM    9  C   UNL     1      29.267  43.658  54.365  1.00  0.00     0.063 A 
HETATM   10  C   UNL     1      29.156  42.459  53.684  1.00  0.00     0.071 A 
BRANCH   9  11
HETATM   11  C   UNL     1      29.988  44.014  55.593  1.00  0.00    -0.008 A 
HETATM   12  C   UNL     1      30.980  43.182  56.138  1.00  0.00     0.014 A 
HETATM   13  C   UNL     1      31.677  43.555  57.292  1.00  0.00     0.001 A 
HETATM   14  C   UNL     1      31.398  44.766  57.919  1.00  0.00     0.000 A 
HETATM   15  C   UNL     1      30.418  45.603  57.395  1.00  0.00     0.001 A 
HETATM   16  C   UNL     1      29.719  45.229  56.243  1.00  0.00     0.014 A 
ENDBRANCH   9  11
ENDBRANCH   2   5
BRANCH   1  17
HETATM   17  C   UNL     1      28.727  39.986  50.085  1.00  0.00     0.035 A 
HETATM   18  C   UNL     1      28.935  38.620  50.265  1.00  0.00     0.030 A 
HETATM   19  C   UNL     1      28.814  37.739  49.186  1.00  0.00     0.018 A 
HETATM   20  C   UNL     1      28.475  38.212  47.911  1.00  0.00     0.015 A 
HETATM   21  C   UNL     1      28.273  39.590  47.709  1.00  0.00    -0.046 A 
HETATM   22  C   UNL     1      27.912  40.165  46.367  1.00  0.00     0.049 C 
HETATM   23  C   UNL     1      28.416  40.463  48.804  1.00  0.00     0.037 A 
BRANCH  20  24
HETATM   24  C   UNL     1      28.338  37.232  46.796  1.00  0.00     0.156 C 
HETATM   25  C   UNL     1      26.998  36.573  46.590  1.00  0.00     0.097 C 
HETATM   26  O   UNL     1      29.299  36.963  46.080  1.00  0.00    -0.293 OA
ENDBRANCH  20  24
ENDBRANCH   1  17
TORSDOF 4
ENDMDL
MODEL 7
REMARK VINA RESULT:      -8.7      2.249      9.193
REMARK  4 active torsions:
REMARK  status: ('A' for Active; 'I' for Inactive)
REMARK    1  A    between atoms: C_3  and  C_4 
REMARK    2  A    between atoms: C_9  and  N_10 
REMARK       I    between atoms: N_10  and  C_11 
REMARK    3  A    between atoms: C_11  and  C_12 
REMARK    4  A    between atoms: C_16  and  C_17 
ROOT
HETATM    1  N   UNL     1      27.137  45.293  53.391  1.00  0.00    -0.322 N 
HETATM    2  C   UNL     1      26.732  44.556  52.295  1.00  0.00     0.276 C 
HETATM    3  O   UNL     1      27.104  43.428  51.990  1.00  0.00    -0.266 OA
HETATM    4  H   UNL     1      26.699  46.212  53.436  1.00  0.00     0.169 HD
ENDROOT
BRANCH   2   5
HETATM    5  C   UNL     1      25.793  45.314  51.449  1.00  0.00     0.147 A 
HETATM    6  N   UNL     1      24.518  44.918  51.261  1.00  0.00    -0.169 NA
HETATM    7  N   UNL     1      23.994  45.880  50.481  1.00  0.00    -0.277 N 
HETATM    8  H   UNL     1      23.030  45.779  50.189  1.00  0.00     0.189 HD
HETATM    9  C   UNL     1      24.849  46.916  50.193  1.00  0.00     0.063 A 
HETATM   10  C   UNL     1      26.042  46.539  50.782  1.00  0.00     0.071 A 
BRANCH   9  11
HETATM   11  C   UNL     1      24.476  48.116  49.435  1.00  0.00    -0.008 A 
HETATM   12  C   UNL     1      23.135  48.492  49.256  1.00  0.00     0.014 A 
HETATM   13  C   UNL     1      22.801  49.656  48.556  1.00  0.00     0.001 A 
HETATM   14  C   UNL     1      23.802  50.467  48.027  1.00  0.00     0.000 A 
HETATM   15  C   UNL     1      25.137  50.111  48.194  1.00  0.00     0.001 A 
HETATM   16  C   UNL     1      25.470  48.945  48.891  1.00  0.00     0.014 A 
ENDBRANCH   9  11
ENDBRANCH   2   5
BRANCH   1  17
HETATM   17  C   UNL     1      28.122  44.979  54.339  1.00  0.00     0.035 A 
HETATM   18  C   UNL     1      29.140  44.054  54.121  1.00  0.00     0.030 A 
HETATM   19  C   UNL     1      30.114  43.831  55.099  1.00  0.00     0.018 A 
HETATM   20  C   UNL     1      30.087  44.539  56.309  1.00  0.00     0.015 A 
HETATM   21  C   UNL     1      29.058  45.468  56.551  1.00  0.00    -0.046 A 
HETATM   22  C   UNL     1      28.967  46.258  57.828  1.00  0.00     0.049 C 
HETATM   23  C   UNL     1      28.078  45.666  55.560  1.00  0.00     0.037 A 
BRANCH  20  24
HETATM   24  C   UNL     1      31.158  44.283  57.314  1.00  0.00     0.156 C 
HETATM   25  C   UNL     1      32.003  43.045  57.152  1.00  0.00     0.097 C 
HETATM   26  O   UNL     1      31.329  45.054  58.254  1.00  0.00    -0.293 OA
ENDBRANCH  20  24
ENDBRANCH   1  17
TORSDOF 4
ENDMDL
MODEL 8
REMARK VINA RESULT:      -8.5      3.425      6.097
REMARK  4 active torsions:
REMARK  status: ('A' for Active; 'I' for Inactive)
REMARK    1  A    between atoms: C_3  and  C_4 
REMARK    2  A    between atoms: C_9  and  N_10 
REMARK       I    between atoms: N_10  and  C_11 
REMARK    3  A    between atoms: C_11  and  C_12 
REMARK    4  A    between atoms: C_16  and  C_17 
ROOT
HETATM    1  N   UNL     1      22.416  49.387  49.655  1.00  0.00    -0.322 N 
HETATM    2  C   UNL     1      23.141  48.520  48.860  1.00  0.00     0.276 C 
HETATM    3  O   UNL     1      22.858  48.151  47.726  1.00  0.00    -0.266 OA
HETATM    4  H   UNL     1      22.843  49.542  50.567  1.00  0.00     0.169 HD
ENDROOT
BRANCH   2   5
HETATM    5  C   UNL     1      24.334  48.011  49.562  1.00  0.00     0.147 A 
HETATM    6  N   UNL     1      25.528  48.632  49.488  1.00  0.00    -0.169 NA
HETATM    7  N   UNL     1      26.323  47.895  50.284  1.00  0.00    -0.277 N 
HETATM    8  H   UNL     1      27.294  48.170  50.366  1.00  0.00     0.189 HD
HETATM    9  C   UNL     1      25.694  46.853  50.919  1.00  0.00     0.063 A 
HETATM   10  C   UNL     1      24.403  46.889  50.423  1.00  0.00     0.071 A 
BRANCH   9  11
HETATM   11  C   UNL     1      26.334  45.968  51.899  1.00  0.00    -0.008 A 
HETATM   12  C   UNL     1      26.927  44.751  51.523  1.00  0.00     0.014 A 
HETATM   13  C   UNL     1      27.559  43.936  52.468  1.00  0.00     0.001 A 
HETATM   14  C   UNL     1      27.613  44.325  53.804  1.00  0.00     0.000 A 
HETATM   15  C   UNL     1      27.032  45.526  54.196  1.00  0.00     0.001 A 
HETATM   16  C   UNL     1      26.397  46.339  53.251  1.00  0.00     0.014 A 
ENDBRANCH   9  11
ENDBRANCH   2   5
BRANCH   1  17
HETATM   17  C   UNL     1      21.161  49.959  49.402  1.00  0.00     0.035 A 
HETATM   18  C   UNL     1      20.970  51.302  49.088  1.00  0.00     0.030 A 
HETATM   19  C   UNL     1      19.690  51.786  48.802  1.00  0.00     0.018 A 
HETATM   20  C   UNL     1      18.581  50.929  48.817  1.00  0.00     0.015 A 
HETATM   21  C   UNL     1      18.754  49.571  49.144  1.00  0.00    -0.046 A 
HETATM   22  C   UNL     1      17.607  48.598  49.184  1.00  0.00     0.049 C 
HETATM   23  C   UNL     1      20.048  49.107  49.446  1.00  0.00     0.037 A 
BRANCH  20  24
HETATM   24  C   UNL     1      17.239  51.486  48.485  1.00  0.00     0.156 C 
HETATM   25  C   UNL     1      16.427  52.094  49.601  1.00  0.00     0.097 C 
HETATM   26  O   UNL     1      16.807  51.433  47.337  1.00  0.00    -0.293 OA
ENDBRANCH  20  24
ENDBRANCH   1  17
TORSDOF 4
ENDMDL
MODEL 9
REMARK VINA RESULT:      -8.3     16.201     18.000
REMARK  4 active torsions:
REMARK  status: ('A' for Active; 'I' for Inactive)
REMARK    1  A    between atoms: C_3  and  C_4 
REMARK    2  A    between atoms: C_9  and  N_10 
REMARK       I    between atoms: N_10  and  C_11 
REMARK    3  A    between atoms: C_11  and  C_12 
REMARK    4  A    between atoms: C_16  and  C_17 
ROOT
HETATM    1  N   UNL     1      37.935  47.179  65.386  1.00  0.00    -0.322 N 
HETATM    2  C   UNL     1      37.151  46.758  64.330  1.00  0.00     0.276 C 
HETATM    3  O   UNL     1      36.541  47.467  63.537  1.00  0.00    -0.266 OA
HETATM    4  H   UNL     1      38.337  46.408  65.915  1.00  0.00     0.169 HD
ENDROOT
BRANCH   2   5
HETATM    5  C   UNL     1      37.069  45.287  64.269  1.00  0.00     0.147 A 
HETATM    6  N   UNL     1      35.889  44.636  64.234  1.00  0.00    -0.169 NA
HETATM    7  N   UNL     1      36.239  43.341  64.139  1.00  0.00    -0.277 N 
HETATM    8  H   UNL     1      35.498  42.651  64.118  1.00  0.00     0.189 HD
HETATM    9  C   UNL     1      37.591  43.116  64.056  1.00  0.00     0.063 A 
HETATM   10  C   UNL     1      38.149  44.375  64.184  1.00  0.00     0.071 A 
BRANCH   9  11
HETATM   11  C   UNL     1      38.204  41.797  63.860  1.00  0.00    -0.008 A 
HETATM   12  C   UNL     1      38.837  41.446  62.656  1.00  0.00     0.014 A 
HETATM   13  C   UNL     1      39.442  40.194  62.499  1.00  0.00     0.001 A 
HETATM   14  C   UNL     1      39.428  39.274  63.544  1.00  0.00     0.000 A 
HETATM   15  C   UNL     1      38.806  39.603  64.744  1.00  0.00     0.001 A 
HETATM   16  C   UNL     1      38.199  40.853  64.899  1.00  0.00     0.014 A 
ENDBRANCH   9  11
ENDBRANCH   2   5
BRANCH   1  17
HETATM   17  C   UNL     1      38.136  48.485  65.856  1.00  0.00     0.035 A 
HETATM   18  C   UNL     1      39.019  49.392  65.274  1.00  0.00     0.030 A 
HETATM   19  C   UNL     1      39.127  50.693  65.774  1.00  0.00     0.018 A 
HETATM   20  C   UNL     1      38.346  51.109  66.861  1.00  0.00     0.015 A 
HETATM   21  C   UNL     1      37.458  50.202  67.469  1.00  0.00    -0.046 A 
HETATM   22  C   UNL     1      36.593  50.582  68.640  1.00  0.00     0.049 C 
HETATM   23  C   UNL     1      37.375  48.892  66.961  1.00  0.00     0.037 A 
BRANCH  20  24
HETATM   24  C   UNL     1      38.481  52.512  67.346  1.00  0.00     0.156 C 
HETATM   25  C   UNL     1      37.719  53.592  66.621  1.00  0.00     0.097 C 
HETATM   26  O   UNL     1      39.209  52.775  68.301  1.00  0.00    -0.293 OA
ENDBRANCH  20  24
ENDBRANCH   1  17
TORSDOF 4
ENDMDL
MODEL 10
REMARK VINA RESULT:      -8.2      5.312      9.419
REMARK  4 active torsions:
REMARK  status: ('A' for Active; 'I' for Inactive)
REMARK    1  A    between atoms: C_3  and  C_4 
REMARK    2  A    between atoms: C_9  and  N_10 
REMARK       I    between atoms: N_10  and  C_11 
REMARK    3  A    between atoms: C_11  and  C_12 
REMARK    4  A    between atoms: C_16  and  C_17 
ROOT
HETATM    1  N   UNL     1      28.457  42.817  51.638  1.00  0.00    -0.322 N 
HETATM    2  C   UNL     1      27.700  41.693  51.370  1.00  0.00     0.276 C 
HETATM    3  O   UNL     1      27.282  40.877  52.185  1.00  0.00    -0.266 OA
HETATM    4  H   UNL     1      28.697  43.344  50.800  1.00  0.00     0.169 HD
ENDROOT
BRANCH   2   5
HETATM    5  C   UNL     1      27.470  41.527  49.924  1.00  0.00     0.147 A 
HETATM    6  N   UNL     1      26.648  42.342  49.231  1.00  0.00    -0.169 NA
HETATM    7  N   UNL     1      26.744  41.895  47.967  1.00  0.00    -0.277 N 
HETATM    8  H   UNL     1      26.185  42.356  47.259  1.00  0.00     0.189 HD
HETATM    9  C   UNL     1      27.630  40.861  47.788  1.00  0.00     0.063 A 
HETATM   10  C   UNL     1      28.079  40.580  49.065  1.00  0.00     0.071 A 
BRANCH   9  11
HETATM   11  C   UNL     1      27.966  40.269  46.488  1.00  0.00    -0.008 A 
HETATM   12  C   UNL     1      27.959  38.879  46.282  1.00  0.00     0.014 A 
HETATM   13  C   UNL     1      28.253  38.336  45.027  1.00  0.00     0.001 A 
HETATM   14  C   UNL     1      28.554  39.171  43.955  1.00  0.00     0.000 A 
HETATM   15  C   UNL     1      28.566  40.551  44.139  1.00  0.00     0.001 A 
HETATM   16  C   UNL     1      28.276  41.093  45.395  1.00  0.00     0.014 A 
ENDBRANCH   9  11
ENDBRANCH   2   5
BRANCH   1  17
HETATM   17  C   UNL     1      29.001  43.231  52.863  1.00  0.00     0.035 A 
HETATM   18  C   UNL     1      30.195  42.739  53.386  1.00  0.00     0.030 A 
HETATM   19  C   UNL     1      30.697  43.239  54.592  1.00  0.00     0.018 A 
HETATM   20  C   UNL     1      30.013  44.245  55.289  1.00  0.00     0.015 A 
HETATM   21  C   UNL     1      28.799  44.744  54.781  1.00  0.00    -0.046 A 
HETATM   22  C   UNL     1      28.013  45.819  55.480  1.00  0.00     0.049 C 
HETATM   23  C   UNL     1      28.303  44.216  53.574  1.00  0.00     0.037 A 
BRANCH  20  24
HETATM   24  C   UNL     1      30.597  44.760  56.560  1.00  0.00     0.156 C 
HETATM   25  C   UNL     1      31.316  43.785  57.458  1.00  0.00     0.097 C 
HETATM   26  O   UNL     1      30.477  45.943  56.868  1.00  0.00    -0.293 OA
ENDBRANCH  20  24
ENDBRANCH   1  17
TORSDOF 4
ENDMDL
