MODEL 1
REMARK VINA RESULT:      -9.5      0.000      0.000
REMARK  6 active torsions:
REMARK  status: ('A' for Active; 'I' for Inactive)
REMARK    1  A    between atoms: C_3  and  N_4 
REMARK       I    between atoms: N_4  and  C_5 
REMARK    2  A    between atoms: C_5  and  C_6 
REMARK    3  A    between atoms: C_6  and  N_7 
REMARK    4  A    between atoms: N_7  and  C_9 
REMARK    5  A    between atoms: C_9  and  C_10 
REMARK    6  A    between atoms: C_18  and  O_19 
ROOT
HETATM    1  N   UNL     1      26.046  45.730  50.549  1.00  0.00    -0.063 N 
HETATM    2  H   UNL     1      26.184  46.674  50.942  1.00  0.00     0.280 HD
HETATM    3  C   UNL     1      27.294  45.394  49.793  1.00  0.00     0.270 C 
ENDROOT
BRANCH   1   4
HETATM    4  C   UNL     1      24.836  45.887  49.619  1.00  0.00     0.337 C 
BRANCH   4   5
HETATM    5  C   UNL     1      24.133  47.238  49.785  1.00  0.00     0.248 C 
HETATM    6  N   UNL     1      23.328  47.592  48.717  1.00  0.00    -0.325 N 
HETATM    7  H   UNL     1      23.563  47.192  47.815  1.00  0.00     0.169 HD
HETATM    8  O   UNL     1      24.360  47.915  50.785  1.00  0.00    -0.271 OA
BRANCH   6   9
HETATM    9  C   UNL     1      22.621  48.823  48.650  1.00  0.00     0.046 A 
HETATM   10  C   UNL     1      23.350  49.986  48.302  1.00  0.00    -0.035 A 
HETATM   11  C   UNL     1      24.826  49.967  48.004  1.00  0.00     0.050 C 
HETATM   12  C   UNL     1      22.689  51.224  48.251  1.00  0.00     0.009 A 
HETATM   13  C   UNL     1      21.333  51.319  48.536  1.00  0.00     0.001 A 
HETATM   14  C   UNL     1      20.609  50.171  48.840  1.00  0.00     0.009 A 
HETATM   15  C   UNL     1      21.229  48.908  48.869  1.00  0.00    -0.035 A 
HETATM   16  C   UNL     1      20.332  47.722  49.088  1.00  0.00     0.050 C 
ENDBRANCH   6   9
ENDBRANCH   4   5
ENDBRANCH   1   4
BRANCH   1  17
HETATM   17  C   UNL     1      25.833  44.877  51.796  1.00  0.00     0.276 C 
BRANCH  17  18
HETATM   18  C   UNL     1      26.845  44.990  52.896  1.00  0.00     0.009 A 
HETATM   19  C   UNL     1      26.865  46.029  53.816  1.00  0.00     0.134 A 
HETATM   20 CL   UNL     1      25.714  47.308  53.809  1.00  0.00    -0.062 Cl
HETATM   21  N   UNL     1      27.763  46.157  54.809  1.00  0.00    -0.235 NA
HETATM   22  C   UNL     1      28.685  45.195  54.967  1.00  0.00     0.071 A 
HETATM   23  C   UNL     1      28.749  44.078  54.114  1.00  0.00    -0.006 A 
HETATM   24  C   UNL     1      29.601  45.285  56.006  1.00  0.00     0.069 A 
HETATM   25  C   UNL     1      27.814  43.993  53.070  1.00  0.00     0.026 A 
HETATM   26  C   UNL     1      29.722  43.087  54.324  1.00  0.00     0.016 A 
HETATM   27  C   UNL     1      30.627  43.198  55.382  1.00  0.00     0.038 A 
HETATM   28  C   UNL     1      30.567  44.298  56.232  1.00  0.00     0.070 A 
BRANCH  28  29
HETATM   29  O   UNL     1      31.380  44.533  57.303  1.00  0.00    -0.356 OA
HETATM   30  C   UNL     1      30.857  45.339  58.353  1.00  0.00     0.210 C 
ENDBRANCH  28  29
ENDBRANCH  17  18
ENDBRANCH   1  17
TORSDOF 6
ENDMDL
MODEL 2
REMARK VINA RESULT:      -9.4      2.131      9.836
REMARK  6 active torsions:
REMARK  status: ('A' for Active; 'I' for Inactive)
REMARK    1  A    between atoms: C_3  and  N_4 
REMARK       I    between atoms: N_4  and  C_5 
REMARK    2  A    between atoms: C_5  and  C_6 
REMARK    3  A    between atoms: C_6  and  N_7 
REMARK    4  A    between atoms: N_7  and  C_9 
REMARK    5  A    between atoms: C_9  and  C_10 
REMARK    6  A    between atoms: C_18  and  O_19 
ROOT
HETATM    1  N   UNL     1      26.321  45.789  51.758  1.00  0.00    -0.063 N 
HETATM    2  H   UNL     1      27.336  45.938  51.866  1.00  0.00     0.280 HD
HETATM    3  C   UNL     1      25.643  46.864  52.551  1.00  0.00     0.270 C 
ENDROOT
BRANCH   1   4
HETATM    4  C   UNL     1      26.083  44.397  52.358  1.00  0.00     0.337 C 
BRANCH   4   5
HETATM    5  C   UNL     1      26.912  44.146  53.620  1.00  0.00     0.248 C 
HETATM    6  N   UNL     1      28.193  44.669  53.569  1.00  0.00    -0.325 N 
HETATM    7  H   UNL     1      28.600  44.790  52.649  1.00  0.00     0.169 HD
HETATM    8  O   UNL     1      26.430  43.482  54.535  1.00  0.00    -0.271 OA
BRANCH   6   9
HETATM    9  C   UNL     1      29.140  44.511  54.617  1.00  0.00     0.046 A 
HETATM   10  C   UNL     1      30.061  43.440  54.519  1.00  0.00    -0.035 A 
HETATM   11  C   UNL     1      30.075  42.476  53.363  1.00  0.00     0.050 C 
HETATM   12  C   UNL     1      30.995  43.239  55.549  1.00  0.00     0.009 A 
HETATM   13  C   UNL     1      31.024  44.077  56.657  1.00  0.00     0.001 A 
HETATM   14  C   UNL     1      30.145  45.151  56.733  1.00  0.00     0.009 A 
HETATM   15  C   UNL     1      29.217  45.404  55.707  1.00  0.00    -0.035 A 
HETATM   16  C   UNL     1      28.398  46.660  55.833  1.00  0.00     0.050 C 
ENDBRANCH   6   9
ENDBRANCH   4   5
ENDBRANCH   1   4
BRANCH   1  17
HETATM   17  C   UNL     1      26.124  45.917  50.250  1.00  0.00     0.276 C 
BRANCH  17  18
HETATM   18  C   UNL     1      25.225  47.012  49.759  1.00  0.00     0.009 A 
HETATM   19  C   UNL     1      25.671  48.292  49.457  1.00  0.00     0.134 A 
HETATM   20 CL   UNL     1      27.318  48.767  49.598  1.00  0.00    -0.062 Cl
HETATM   21  N   UNL     1      24.887  49.292  49.017  1.00  0.00    -0.235 NA
HETATM   22  C   UNL     1      23.585  49.042  48.805  1.00  0.00     0.071 A 
HETATM   23  C   UNL     1      23.022  47.776  49.049  1.00  0.00    -0.006 A 
HETATM   24  C   UNL     1      22.763  50.048  48.319  1.00  0.00     0.069 A 
HETATM   25  C   UNL     1      23.865  46.763  49.535  1.00  0.00     0.026 A 
HETATM   26  C   UNL     1      21.658  47.553  48.799  1.00  0.00     0.016 A 
HETATM   27  C   UNL     1      20.853  48.581  48.302  1.00  0.00     0.038 A 
HETATM   28  C   UNL     1      21.405  49.834  48.055  1.00  0.00     0.070 A 
BRANCH  28  29
HETATM   29  O   UNL     1      20.742  50.924  47.568  1.00  0.00    -0.356 OA
HETATM   30  C   UNL     1      19.995  51.699  48.498  1.00  0.00     0.210 C 
ENDBRANCH  28  29
ENDBRANCH  17  18
ENDBRANCH   1  17
TORSDOF 6
ENDMDL
MODEL 3
REMARK VINA RESULT:      -9.3      2.167      9.818
REMARK  6 active torsions:
REMARK  status: ('A' for Active; 'I' for Inactive)
REMARK    1  A    between atoms: C_3  and  N_4 
REMARK       I    between atoms: N_4  and  C_5 
REMARK    2  A    between atoms: C_5  and  C_6 
REMARK    3  A    between atoms: C_6  and  N_7 
REMARK    4  A    between atoms: N_7  and  C_9 
REMARK    5  A    between atoms: C_9  and  C_10 
REMARK    6  A    between atoms: C_18  and  O_19 
ROOT
HETATM    1  N   UNL     1      26.227  46.025  51.412  1.00  0.00    -0.063 N 
HETATM    2  H   UNL     1      27.255  46.099  51.426  1.00  0.00     0.280 HD
HETATM    3  C   UNL     1      25.708  47.098  52.319  1.00  0.00     0.270 C 
ENDROOT
BRANCH   1   4
HETATM    4  C   UNL     1      25.946  44.622  51.965  1.00  0.00     0.337 C 
BRANCH   4   5
HETATM    5  C   UNL     1      26.743  44.316  53.236  1.00  0.00     0.248 C 
HETATM    6  N   UNL     1      28.061  44.736  53.193  1.00  0.00    -0.325 N 
HETATM    7  H   UNL     1      28.484  44.818  52.276  1.00  0.00     0.169 HD
HETATM    8  O   UNL     1      26.203  43.698  54.151  1.00  0.00    -0.271 OA
BRANCH   6   9
HETATM    9  C   UNL     1      28.984  44.512  54.250  1.00  0.00     0.046 A 
HETATM   10  C   UNL     1      29.060  45.482  55.279  1.00  0.00    -0.035 A 
HETATM   11  C   UNL     1      28.211  46.725  55.294  1.00  0.00     0.050 C 
HETATM   12  C   UNL     1      29.979  45.305  56.326  1.00  0.00     0.009 A 
HETATM   13  C   UNL     1      30.809  44.192  56.364  1.00  0.00     0.001 A 
HETATM   14  C   UNL     1      30.707  43.221  55.374  1.00  0.00     0.009 A 
HETATM   15  C   UNL     1      29.777  43.346  54.327  1.00  0.00    -0.035 A 
HETATM   16  C   UNL     1      29.666  42.182  53.381  1.00  0.00     0.050 C 
ENDBRANCH   6   9
ENDBRANCH   4   5
ENDBRANCH   1   4
BRANCH   1  17
HETATM   17  C   UNL     1      25.896  46.249  49.939  1.00  0.00     0.276 C 
BRANCH  17  18
HETATM   18  C   UNL     1      25.021  47.416  49.595  1.00  0.00     0.009 A 
HETATM   19  C   UNL     1      25.511  48.677  49.283  1.00  0.00     0.134 A 
HETATM   20 CL   UNL     1      27.192  49.043  49.242  1.00  0.00    -0.062 Cl
HETATM   21  N   UNL     1      24.750  49.741  48.973  1.00  0.00    -0.235 NA
HETATM   22  C   UNL     1      23.418  49.580  48.909  1.00  0.00     0.071 A 
HETATM   23  C   UNL     1      22.805  48.342  49.178  1.00  0.00    -0.006 A 
HETATM   24  C   UNL     1      22.613  50.654  48.558  1.00  0.00     0.069 A 
HETATM   25  C   UNL     1      23.630  47.261  49.527  1.00  0.00     0.026 A 
HETATM   26  C   UNL     1      21.410  48.215  49.086  1.00  0.00     0.016 A 
HETATM   27  C   UNL     1      20.621  49.310  48.722  1.00  0.00     0.038 A 
HETATM   28  C   UNL     1      21.223  50.535  48.452  1.00  0.00     0.070 A 
BRANCH  28  29
HETATM   29  O   UNL     1      20.580  51.682  48.082  1.00  0.00    -0.356 OA
HETATM   30  C   UNL     1      19.437  52.059  48.841  1.00  0.00     0.210 C 
ENDBRANCH  28  29
ENDBRANCH  17  18
ENDBRANCH   1  17
TORSDOF 6
ENDMDL
MODEL 4
REMARK VINA RESULT:      -9.1      2.637      8.519
REMARK  6 active torsions:
REMARK  status: ('A' for Active; 'I' for Inactive)
REMARK    1  A    between atoms: C_3  and  N_4 
REMARK       I    between atoms: N_4  and  C_5 
REMARK    2  A    between atoms: C_5  and  C_6 
REMARK    3  A    between atoms: C_6  and  N_7 
REMARK    4  A    between atoms: N_7  and  C_9 
REMARK    5  A    between atoms: C_9  and  C_10 
REMARK    6  A    between atoms: C_18  and  O_19 
ROOT
HETATM    1  N   UNL     1      26.959  41.545  50.935  1.00  0.00    -0.063 N 
HETATM    2  H   UNL     1      26.293  42.080  51.513  1.00  0.00     0.280 HD
HETATM    3  C   UNL     1      26.408  40.158  50.819  1.00  0.00     0.270 C 
ENDROOT
BRANCH   1   4
HETATM    4  C   UNL     1      28.263  41.578  51.743  1.00  0.00     0.337 C 
BRANCH   4   5
HETATM    5  C   UNL     1      28.129  42.362  53.052  1.00  0.00     0.248 C 
HETATM    6  N   UNL     1      28.705  43.619  53.021  1.00  0.00    -0.325 N 
HETATM    7  H   UNL     1      29.464  43.758  52.364  1.00  0.00     0.169 HD
HETATM    8  O   UNL     1      27.590  41.828  54.019  1.00  0.00    -0.271 OA
BRANCH   6   9
HETATM    9  C   UNL     1      28.730  44.491  54.143  1.00  0.00     0.046 A 
HETATM   10  C   UNL     1      27.707  45.463  54.249  1.00  0.00    -0.035 A 
HETATM   11  C   UNL     1      26.607  45.606  53.230  1.00  0.00     0.050 C 
HETATM   12  C   UNL     1      27.715  46.358  55.332  1.00  0.00     0.009 A 
HETATM   13  C   UNL     1      28.712  46.298  56.296  1.00  0.00     0.001 A 
HETATM   14  C   UNL     1      29.696  45.318  56.213  1.00  0.00     0.009 A 
HETATM   15  C   UNL     1      29.703  44.384  55.161  1.00  0.00    -0.035 A 
HETATM   16  C   UNL     1      30.737  43.295  55.234  1.00  0.00     0.050 C 
ENDBRANCH   6   9
ENDBRANCH   4   5
ENDBRANCH   1   4
BRANCH   1  17
HETATM   17  C   UNL     1      26.959  42.321  49.621  1.00  0.00     0.276 C 
BRANCH  17  18
HETATM   18  C   UNL     1      26.134  43.570  49.553  1.00  0.00     0.009 A 
HETATM   19  C   UNL     1      24.750  43.570  49.445  1.00  0.00     0.134 A 
HETATM   20 CL   UNL     1      23.816  42.126  49.389  1.00  0.00    -0.062 Cl
HETATM   21  N   UNL     1      23.985  44.674  49.379  1.00  0.00    -0.235 NA
HETATM   22  C   UNL     1      24.582  45.873  49.471  1.00  0.00     0.071 A 
HETATM   23  C   UNL     1      25.976  46.002  49.612  1.00  0.00    -0.006 A 
HETATM   24  C   UNL     1      23.812  47.027  49.442  1.00  0.00     0.069 A 
HETATM   25  C   UNL     1      26.745  44.828  49.647  1.00  0.00     0.026 A 
HETATM   26  C   UNL     1      26.557  47.276  49.720  1.00  0.00     0.016 A 
HETATM   27  C   UNL     1      25.759  48.422  49.695  1.00  0.00     0.038 A 
HETATM   28  C   UNL     1      24.379  48.301  49.560  1.00  0.00     0.070 A 
BRANCH  28  29
HETATM   29  O   UNL     1      23.481  49.329  49.525  1.00  0.00    -0.356 OA
HETATM   30  C   UNL     1      23.788  50.432  48.680  1.00  0.00     0.210 C 
ENDBRANCH  28  29
ENDBRANCH  17  18
ENDBRANCH   1  17
TORSDOF 6
ENDMDL
MODEL 5
REMARK VINA RESULT:      -9.0      4.081      8.815
REMARK  6 active torsions:
REMARK  status: ('A' for Active; 'I' for Inactive)
REMARK    1  A    between atoms: C_3  and  N_4 
REMARK       I    between atoms: N_4  and  C_5 
REMARK    2  A    between atoms: C_5  and  C_6 
REMARK    3  A    between atoms: C_6  and  N_7 
REMARK    4  A    between atoms: N_7  and  C_9 
REMARK    5  A    between atoms: C_9  and  C_10 
REMARK    6  A    between atoms: C_18  and  O_19 
ROOT
HETATM    1  N   UNL     1      26.193  45.604  52.472  1.00  0.00    -0.063 N 
HETATM    2  H   UNL     1      27.048  45.061  52.275  1.00  0.00     0.280 HD
HETATM    3  C   UNL     1      26.152  46.718  51.472  1.00  0.00     0.270 C 
ENDROOT
BRANCH   1   4
HETATM    4  C   UNL     1      26.403  46.122  53.901  1.00  0.00     0.337 C 
BRANCH   4   5
HETATM    5  C   UNL     1      27.273  45.189  54.748  1.00  0.00     0.248 C 
HETATM    6  N   UNL     1      28.577  45.623  54.911  1.00  0.00    -0.325 N 
HETATM    7  H   UNL     1      28.949  46.232  54.191  1.00  0.00     0.169 HD
HETATM    8  O   UNL     1      26.796  44.135  55.165  1.00  0.00    -0.271 OA
BRANCH   6   9
HETATM    9  C   UNL     1      29.559  44.884  55.624  1.00  0.00     0.046 A 
HETATM   10  C   UNL     1      29.806  45.240  56.972  1.00  0.00    -0.035 A 
HETATM   11  C   UNL     1      29.076  46.358  57.669  1.00  0.00     0.050 C 
HETATM   12  C   UNL     1      30.788  44.548  57.700  1.00  0.00     0.009 A 
HETATM   13  C   UNL     1      31.516  43.520  57.112  1.00  0.00     0.001 A 
HETATM   14  C   UNL     1      31.246  43.145  55.801  1.00  0.00     0.009 A 
HETATM   15  C   UNL     1      30.249  43.793  55.051  1.00  0.00    -0.035 A 
HETATM   16  C   UNL     1      29.957  43.229  53.687  1.00  0.00     0.050 C 
ENDBRANCH   6   9
ENDBRANCH   4   5
ENDBRANCH   1   4
BRANCH   1  17
HETATM   17  C   UNL     1      25.089  44.568  52.286  1.00  0.00     0.276 C 
BRANCH  17  18
HETATM   18  C   UNL     1      25.446  43.292  51.586  1.00  0.00     0.009 A 
HETATM   19  C   UNL     1      24.626  42.673  50.652  1.00  0.00     0.134 A 
HETATM   20 CL   UNL     1      23.101  43.313  50.178  1.00  0.00    -0.062 Cl
HETATM   21  N   UNL     1      24.920  41.528  50.012  1.00  0.00    -0.235 NA
HETATM   22  C   UNL     1      26.110  40.951  50.244  1.00  0.00     0.071 A 
HETATM   23  C   UNL     1      27.038  41.498  51.149  1.00  0.00    -0.006 A 
HETATM   24  C   UNL     1      26.451  39.787  49.570  1.00  0.00     0.069 A 
HETATM   25  C   UNL     1      26.684  42.679  51.821  1.00  0.00     0.026 A 
HETATM   26  C   UNL     1      28.277  40.869  51.351  1.00  0.00     0.016 A 
HETATM   27  C   UNL     1      28.601  39.702  50.654  1.00  0.00     0.038 A 
HETATM   28  C   UNL     1      27.688  39.159  49.755  1.00  0.00     0.070 A 
BRANCH  28  29
HETATM   29  O   UNL     1      27.871  38.032  49.005  1.00  0.00    -0.356 OA
HETATM   30  C   UNL     1      28.823  38.102  47.949  1.00  0.00     0.210 C 
ENDBRANCH  28  29
ENDBRANCH  17  18
ENDBRANCH   1  17
TORSDOF 6
ENDMDL
MODEL 6
REMARK VINA RESULT:      -9.0      2.128      3.613
REMARK  6 active torsions:
REMARK  status: ('A' for Active; 'I' for Inactive)
REMARK    1  A    between atoms: C_3  and  N_4 
REMARK       I    between atoms: N_4  and  C_5 
REMARK    2  A    between atoms: C_5  and  C_6 
REMARK    3  A    between atoms: C_6  and  N_7 
REMARK    4  A    between atoms: N_7  and  C_9 
REMARK    5  A    between atoms: C_9  and  C_10 
REMARK    6  A    between atoms: C_18  and  O_19 
ROOT
HETATM    1  N   UNL     1      24.096  47.071  49.691  1.00  0.00    -0.063 N 
HETATM    2  H   UNL     1      23.811  47.231  50.670  1.00  0.00     0.280 HD
HETATM    3  C   UNL     1      24.610  48.379  49.175  1.00  0.00     0.270 C 
ENDROOT
BRANCH   1   4
HETATM    4  C   UNL     1      22.798  46.648  48.991  1.00  0.00     0.337 C 
BRANCH   4   5
HETATM    5  C   UNL     1      21.953  47.842  48.538  1.00  0.00     0.248 C 
HETATM    6  N   UNL     1      21.442  48.601  49.576  1.00  0.00    -0.325 N 
HETATM    7  H   UNL     1      21.311  48.129  50.464  1.00  0.00     0.169 HD
HETATM    8  O   UNL     1      21.748  48.013  47.338  1.00  0.00    -0.271 OA
BRANCH   6   9
HETATM    9  C   UNL     1      20.598  49.726  49.376  1.00  0.00     0.046 A 
HETATM   10  C   UNL     1      19.254  49.631  49.812  1.00  0.00    -0.035 A 
HETATM   11  C   UNL     1      18.695  48.399  50.473  1.00  0.00     0.050 C 
HETATM   12  C   UNL     1      18.385  50.715  49.608  1.00  0.00     0.009 A 
HETATM   13  C   UNL     1      18.828  51.874  48.984  1.00  0.00     0.001 A 
HETATM   14  C   UNL     1      20.157  51.982  48.590  1.00  0.00     0.009 A 
HETATM   15  C   UNL     1      21.066  50.930  48.807  1.00  0.00    -0.035 A 
HETATM   16  C   UNL     1      22.503  51.198  48.454  1.00  0.00     0.050 C 
ENDBRANCH   6   9
ENDBRANCH   4   5
ENDBRANCH   1   4
BRANCH   1  17
HETATM   17  C   UNL     1      25.170  45.996  49.828  1.00  0.00     0.276 C 
BRANCH  17  18
HETATM   18  C   UNL     1      25.875  45.884  51.146  1.00  0.00     0.009 A 
HETATM   19  C   UNL     1      26.741  44.847  51.466  1.00  0.00     0.134 A 
HETATM   20 CL   UNL     1      27.117  43.571  50.376  1.00  0.00    -0.062 Cl
HETATM   21  N   UNL     1      27.383  44.720  52.641  1.00  0.00    -0.235 NA
HETATM   22  C   UNL     1      27.226  45.681  53.565  1.00  0.00     0.071 A 
HETATM   23  C   UNL     1      26.395  46.795  53.346  1.00  0.00    -0.006 A 
HETATM   24  C   UNL     1      27.906  45.591  54.772  1.00  0.00     0.069 A 
HETATM   25  C   UNL     1      25.717  46.879  52.119  1.00  0.00     0.026 A 
HETATM   26  C   UNL     1      26.271  47.785  54.334  1.00  0.00     0.016 A 
HETATM   27  C   UNL     1      26.972  47.675  55.538  1.00  0.00     0.038 A 
HETATM   28  C   UNL     1      27.798  46.577  55.759  1.00  0.00     0.070 A 
BRANCH  28  29
HETATM   29  O   UNL     1      28.542  46.343  56.880  1.00  0.00    -0.356 OA
HETATM   30  C   UNL     1      29.777  45.656  56.708  1.00  0.00     0.210 C 
ENDBRANCH  28  29
ENDBRANCH  17  18
ENDBRANCH   1  17
TORSDOF 6
ENDMDL
MODEL 7
REMARK VINA RESULT:      -8.9      2.493      9.562
REMARK  6 active torsions:
REMARK  status: ('A' for Active; 'I' for Inactive)
REMARK    1  A    between atoms: C_3  and  N_4 
REMARK       I    between atoms: N_4  and  C_5 
REMARK    2  A    between atoms: C_5  and  C_6 
REMARK    3  A    between atoms: C_6  and  N_7 
REMARK    4  A    between atoms: N_7  and  C_9 
REMARK    5  A    between atoms: C_9  and  C_10 
REMARK    6  A    between atoms: C_18  and  O_19 
ROOT
HETATM    1  N   UNL     1      24.221  44.054  50.333  1.00  0.00    -0.063 N 
HETATM    2  H   UNL     1      24.377  44.652  51.159  1.00  0.00     0.280 HD
HETATM    3  C   UNL     1      22.788  43.623  50.380  1.00  0.00     0.270 C 
ENDROOT
BRANCH   1   4
HETATM    4  C   UNL     1      25.182  42.876  50.538  1.00  0.00     0.337 C 
BRANCH   4   5
HETATM    5  C   UNL     1      26.473  43.283  51.254  1.00  0.00     0.248 C 
HETATM    6  N   UNL     1      26.476  43.014  52.611  1.00  0.00    -0.325 N 
HETATM    7  H   UNL     1      25.573  42.971  53.070  1.00  0.00     0.169 HD
HETATM    8  O   UNL     1      27.363  43.844  50.618  1.00  0.00    -0.271 OA
BRANCH   6   9
HETATM    9  C   UNL     1      27.558  43.352  53.469  1.00  0.00     0.046 A 
HETATM   10  C   UNL     1      27.480  44.572  54.183  1.00  0.00    -0.035 A 
HETATM   11  C   UNL     1      26.309  45.512  54.070  1.00  0.00     0.050 C 
HETATM   12  C   UNL     1      28.542  44.950  55.020  1.00  0.00     0.009 A 
HETATM   13  C   UNL     1      29.664  44.141  55.155  1.00  0.00     0.001 A 
HETATM   14  C   UNL     1      29.723  42.925  54.483  1.00  0.00     0.009 A 
HETATM   15  C   UNL     1      28.665  42.497  53.661  1.00  0.00    -0.035 A 
HETATM   16  C   UNL     1      28.779  41.114  53.081  1.00  0.00     0.050 C 
ENDBRANCH   6   9
ENDBRANCH   4   5
ENDBRANCH   1   4
BRANCH   1  17
HETATM   17  C   UNL     1      24.544  44.995  49.175  1.00  0.00     0.276 C 
BRANCH  17  18
HETATM   18  C   UNL     1      23.930  46.362  49.201  1.00  0.00     0.009 A 
HETATM   19  C   UNL     1      24.456  47.425  49.922  1.00  0.00     0.134 A 
HETATM   20 CL   UNL     1      25.890  47.299  50.864  1.00  0.00    -0.062 Cl
HETATM   21  N   UNL     1      23.924  48.660  49.965  1.00  0.00    -0.235 NA
HETATM   22  C   UNL     1      22.833  48.915  49.227  1.00  0.00     0.071 A 
HETATM   23  C   UNL     1      22.224  47.925  48.433  1.00  0.00    -0.006 A 
HETATM   24  C   UNL     1      22.287  50.190  49.227  1.00  0.00     0.069 A 
HETATM   25  C   UNL     1      22.790  46.640  48.435  1.00  0.00     0.026 A 
HETATM   26  C   UNL     1      21.092  48.239  47.664  1.00  0.00     0.016 A 
HETATM   27  C   UNL     1      20.566  49.533  47.675  1.00  0.00     0.038 A 
HETATM   28  C   UNL     1      21.165  50.517  48.455  1.00  0.00     0.070 A 
BRANCH  28  29
HETATM   29  O   UNL     1      20.763  51.818  48.559  1.00  0.00    -0.356 OA
HETATM   30  C   UNL     1      19.362  52.067  48.556  1.00  0.00     0.210 C 
ENDBRANCH  28  29
ENDBRANCH  17  18
ENDBRANCH   1  17
TORSDOF 6
ENDMDL
MODEL 8
REMARK VINA RESULT:      -8.9      1.551      2.029
REMARK  6 active torsions:
REMARK  status: ('A' for Active; 'I' for Inactive)
REMARK    1  A    between atoms: C_3  and  N_4 
REMARK       I    between atoms: N_4  and  C_5 
REMARK    2  A    between atoms: C_5  and  C_6 
REMARK    3  A    between atoms: C_6  and  N_7 
REMARK    4  A    between atoms: N_7  and  C_9 
REMARK    5  A    between atoms: C_9  and  C_10 
REMARK    6  A    between atoms: C_18  and  O_19 
ROOT
HETATM    1  N   UNL     1      24.953  44.724  50.640  1.00  0.00    -0.063 N 
HETATM    2  H   UNL     1      25.631  43.959  50.502  1.00  0.00     0.280 HD
HETATM    3  C   UNL     1      23.658  44.263  50.043  1.00  0.00     0.270 C 
ENDROOT
BRANCH   1   4
HETATM    4  C   UNL     1      25.556  45.901  49.863  1.00  0.00     0.337 C 
BRANCH   4   5
HETATM    5  C   UNL     1      24.711  47.174  49.966  1.00  0.00     0.248 C 
HETATM    6  N   UNL     1      24.066  47.523  48.792  1.00  0.00    -0.325 N 
HETATM    7  H   UNL     1      24.487  47.200  47.928  1.00  0.00     0.169 HD
HETATM    8  O   UNL     1      24.701  47.806  51.020  1.00  0.00    -0.271 OA
BRANCH   6   9
HETATM    9  C   UNL     1      23.268  48.691  48.660  1.00  0.00     0.046 A 
HETATM   10  C   UNL     1      23.919  49.903  48.328  1.00  0.00    -0.035 A 
HETATM   11  C   UNL     1      25.407  50.000  48.113  1.00  0.00     0.050 C 
HETATM   12  C   UNL     1      23.165  51.082  48.214  1.00  0.00     0.009 A 
HETATM   13  C   UNL     1      21.791  51.070  48.422  1.00  0.00     0.001 A 
HETATM   14  C   UNL     1      21.146  49.872  48.709  1.00  0.00     0.009 A 
HETATM   15  C   UNL     1      21.863  48.666  48.800  1.00  0.00    -0.035 A 
HETATM   16  C   UNL     1      21.053  47.413  48.994  1.00  0.00     0.050 C 
ENDBRANCH   6   9
ENDBRANCH   4   5
ENDBRANCH   1   4
BRANCH   1  17
HETATM   17  C   UNL     1      24.915  44.866  52.159  1.00  0.00     0.276 C 
BRANCH  17  18
HETATM   18  C   UNL     1      26.182  44.594  52.912  1.00  0.00     0.009 A 
HETATM   19  C   UNL     1      26.982  43.481  52.691  1.00  0.00     0.134 A 
HETATM   20 CL   UNL     1      26.616  42.286  51.510  1.00  0.00    -0.062 Cl
HETATM   21  N   UNL     1      28.121  43.211  53.354  1.00  0.00    -0.235 NA
HETATM   22  C   UNL     1      28.557  44.094  54.266  1.00  0.00     0.071 A 
HETATM   23  C   UNL     1      27.847  45.274  54.558  1.00  0.00    -0.006 A 
HETATM   24  C   UNL     1      29.747  43.856  54.938  1.00  0.00     0.069 A 
HETATM   25  C   UNL     1      26.647  45.508  53.868  1.00  0.00     0.026 A 
HETATM   26  C   UNL     1      28.347  46.178  55.509  1.00  0.00     0.016 A 
HETATM   27  C   UNL     1      29.552  45.918  56.167  1.00  0.00     0.038 A 
HETATM   28  C   UNL     1      30.260  44.756  55.879  1.00  0.00     0.070 A 
BRANCH  28  29
HETATM   29  O   UNL     1      31.448  44.378  56.438  1.00  0.00    -0.356 OA
HETATM   30  C   UNL     1      31.499  43.093  57.049  1.00  0.00     0.210 C 
ENDBRANCH  28  29
ENDBRANCH  17  18
ENDBRANCH   1  17
TORSDOF 6
ENDMDL
MODEL 9
REMARK VINA RESULT:      -8.8      1.293      2.092
REMARK  6 active torsions:
REMARK  status: ('A' for Active; 'I' for Inactive)
REMARK    1  A    between atoms: C_3  and  N_4 
REMARK       I    between atoms: N_4  and  C_5 
REMARK    2  A    between atoms: C_5  and  C_6 
REMARK    3  A    between atoms: C_6  and  N_7 
REMARK    4  A    between atoms: N_7  and  C_9 
REMARK    5  A    between atoms: C_9  and  C_10 
REMARK    6  A    between atoms: C_18  and  O_19 
ROOT
HETATM    1  N   UNL     1      24.821  45.007  50.529  1.00  0.00    -0.063 N 
HETATM    2  H   UNL     1      24.842  46.007  50.782  1.00  0.00     0.280 HD
HETATM    3  C   UNL     1      26.037  44.750  49.694  1.00  0.00     0.270 C 
ENDROOT
BRANCH   1   4
HETATM    4  C   UNL     1      23.526  44.854  49.720  1.00  0.00     0.337 C 
BRANCH   4   5
HETATM    5  C   UNL     1      23.209  46.089  48.872  1.00  0.00     0.248 C 
HETATM    6  N   UNL     1      23.236  47.281  49.574  1.00  0.00    -0.325 N 
HETATM    7  H   UNL     1      23.056  47.227  50.571  1.00  0.00     0.169 HD
HETATM    8  O   UNL     1      22.913  45.945  47.687  1.00  0.00    -0.271 OA
BRANCH   6   9
HETATM    9  C   UNL     1      22.928  48.537  48.986  1.00  0.00     0.046 A 
HETATM   10  C   UNL     1      21.563  48.885  48.844  1.00  0.00    -0.035 A 
HETATM   11  C   UNL     1      20.440  47.986  49.288  1.00  0.00     0.050 C 
HETATM   12  C   UNL     1      21.223  50.109  48.244  1.00  0.00     0.009 A 
HETATM   13  C   UNL     1      22.207  50.977  47.792  1.00  0.00     0.001 A 
HETATM   14  C   UNL     1      23.548  50.653  47.966  1.00  0.00     0.009 A 
HETATM   15  C   UNL     1      23.929  49.452  48.591  1.00  0.00    -0.035 A 
HETATM   16  C   UNL     1      25.400  49.257  48.838  1.00  0.00     0.050 C 
ENDBRANCH   6   9
ENDBRANCH   4   5
ENDBRANCH   1   4
BRANCH   1  17
HETATM   17  C   UNL     1      24.851  44.319  51.891  1.00  0.00     0.276 C 
BRANCH  17  18
HETATM   18  C   UNL     1      26.062  44.530  52.748  1.00  0.00     0.009 A 
HETATM   19  C   UNL     1      26.370  45.739  53.356  1.00  0.00     0.134 A 
HETATM   20 CL   UNL     1      25.383  47.139  53.206  1.00  0.00    -0.062 Cl
HETATM   21  N   UNL     1      27.451  45.957  54.127  1.00  0.00    -0.235 NA
HETATM   22  C   UNL     1      28.278  44.929  54.377  1.00  0.00     0.071 A 
HETATM   23  C   UNL     1      28.056  43.648  53.838  1.00  0.00    -0.006 A 
HETATM   24  C   UNL     1      29.380  45.120  55.197  1.00  0.00     0.069 A 
HETATM   25  C   UNL     1      26.934  43.465  53.015  1.00  0.00     0.026 A 
HETATM   26  C   UNL     1      28.939  42.598  54.138  1.00  0.00     0.016 A 
HETATM   27  C   UNL     1      30.038  42.813  54.973  1.00  0.00     0.038 A 
HETATM   28  C   UNL     1      30.260  44.078  55.511  1.00  0.00     0.070 A 
BRANCH  28  29
HETATM   29  O   UNL     1      31.285  44.429  56.342  1.00  0.00    -0.356 OA
HETATM   30  C   UNL     1      31.851  43.401  57.147  1.00  0.00     0.210 C 
ENDBRANCH  28  29
ENDBRANCH  17  18
ENDBRANCH   1  17
TORSDOF 6
ENDMDL
MODEL 10
REMARK VINA RESULT:      -8.6      4.307      7.504
REMARK  6 active torsions:
REMARK  status: ('A' for Active; 'I' for Inactive)
REMARK    1  A    between atoms: C_3  and  N_4 
REMARK       I    between atoms: N_4  and  C_5 
REMARK    2  A    between atoms: C_5  and  C_6 
REMARK    3  A    between atoms: C_6  and  N_7 
REMARK    4  A    between atoms: N_7  and  C_9 
REMARK    5  A    between atoms: C_9  and  C_10 
REMARK    6  A    between atoms: C_18  and  O_19 
ROOT
HETATM    1  N   UNL     1      25.661  43.457  50.957  1.00  0.00    -0.063 N 
HETATM    2  H   UNL     1      25.986  42.811  51.693  1.00  0.00     0.280 HD
HETATM    3  C   UNL     1      24.257  43.839  51.313  1.00  0.00     0.270 C 
ENDROOT
BRANCH   1   4
HETATM    4  C   UNL     1      25.720  42.620  49.673  1.00  0.00     0.337 C 
BRANCH   4   5
HETATM    5  C   UNL     1      26.353  41.243  49.892  1.00  0.00     0.248 C 
HETATM    6  N   UNL     1      27.713  41.198  49.638  1.00  0.00    -0.325 N 
HETATM    7  H   UNL     1      28.078  41.883  48.985  1.00  0.00     0.169 HD
HETATM    8  O   UNL     1      25.638  40.296  50.214  1.00  0.00    -0.271 OA
BRANCH   6   9
HETATM    9  C   UNL     1      28.484  40.009  49.738  1.00  0.00     0.046 A 
HETATM   10  C   UNL     1      28.980  39.647  51.013  1.00  0.00    -0.035 A 
HETATM   11  C   UNL     1      28.724  40.465  52.252  1.00  0.00     0.050 C 
HETATM   12  C   UNL     1      29.767  38.491  51.145  1.00  0.00     0.009 A 
HETATM   13  C   UNL     1      30.061  37.702  50.040  1.00  0.00     0.001 A 
HETATM   14  C   UNL     1      29.542  38.036  48.794  1.00  0.00     0.009 A 
HETATM   15  C   UNL     1      28.723  39.168  48.629  1.00  0.00    -0.035 A 
HETATM   16  C   UNL     1      28.117  39.368  47.267  1.00  0.00     0.050 C 
ENDBRANCH   6   9
ENDBRANCH   4   5
ENDBRANCH   1   4
BRANCH   1  17
HETATM   17  C   UNL     1      26.658  44.607  51.060  1.00  0.00     0.276 C 
BRANCH  17  18
HETATM   18  C   UNL     1      27.395  44.773  52.354  1.00  0.00     0.009 A 
HETATM   19  C   UNL     1      27.077  45.739  53.299  1.00  0.00     0.134 A 
HETATM   20 CL   UNL     1      25.783  46.855  53.098  1.00  0.00    -0.062 Cl
HETATM   21  N   UNL     1      27.723  45.912  54.467  1.00  0.00    -0.235 NA
HETATM   22  C   UNL     1      28.719  45.068  54.779  1.00  0.00     0.071 A 
HETATM   23  C   UNL     1      29.115  44.032  53.914  1.00  0.00    -0.006 A 
HETATM   24  C   UNL     1      29.378  45.204  55.993  1.00  0.00     0.069 A 
HETATM   25  C   UNL     1      28.438  43.900  52.691  1.00  0.00     0.026 A 
HETATM   26  C   UNL     1      30.153  43.163  54.287  1.00  0.00     0.016 A 
HETATM   27  C   UNL     1      30.796  43.316  55.519  1.00  0.00     0.038 A 
HETATM   28  C   UNL     1      30.406  44.337  56.380  1.00  0.00     0.070 A 
BRANCH  28  29
HETATM   29  O   UNL     1      30.939  44.599  57.610  1.00  0.00    -0.356 OA
HETATM   30  C   UNL     1      30.461  45.753  58.292  1.00  0.00     0.210 C 
ENDBRANCH  28  29
ENDBRANCH  17  18
ENDBRANCH   1  17
TORSDOF 6
ENDMDL
