MODEL 1
REMARK VINA RESULT:     -10.0      0.000      0.000
REMARK  5 active torsions:
REMARK  status: ('A' for Active; 'I' for Inactive)
REMARK    1  A    between atoms: C_2  and  C_3 
REMARK    2  A    between atoms: C_8  and  C_9 
REMARK       I    between atoms: C_9  and  N_10 
REMARK    3  A    between atoms: N_10  and  C_11 
REMARK    4  A    between atoms: C_11  and  C_12 
REMARK    5  A    between atoms: C_19  and  C_20 
ROOT
HETATM    1  C   UNL     1      28.931  43.123  53.037  1.00  0.00     0.118 C 
HETATM    2  N   UNL     1      28.503  44.134  52.072  1.00  0.00    -0.366 N 
HETATM    3  C   UNL     1      27.359  44.024  51.368  1.00  0.00     0.123 A 
HETATM    4  N   UNL     1      26.657  42.855  51.338  1.00  0.00    -0.240 N 
HETATM    5  N   UNL     1      25.464  42.945  50.726  1.00  0.00    -0.165 NA
HETATM    6  C   UNL     1      25.453  44.212  50.250  1.00  0.00     0.148 A 
HETATM    7  C   UNL     1      26.642  44.909  50.609  1.00  0.00     0.088 A 
HETATM    8  C   UNL     1      27.077  41.662  52.047  1.00  0.00     0.221 C 
HETATM    9  C   UNL     1      27.820  42.088  53.323  1.00  0.00     0.066 C 
HETATM   10  H   UNL     1      29.043  44.999  52.065  1.00  0.00     0.161 HD
ENDROOT
BRANCH   6  11
HETATM   11  C   UNL     1      24.305  44.769  49.518  1.00  0.00     0.272 C 
HETATM   12  N   UNL     1      23.995  46.058  49.884  1.00  0.00    -0.353 N 
HETATM   13  H   UNL     1      24.670  46.508  50.500  1.00  0.00     0.162 HD
HETATM   14  O   UNL     1      23.713  44.149  48.639  1.00  0.00    -0.266 OA
BRANCH  12  15
HETATM   15  C   UNL     1      23.128  46.894  49.082  1.00  0.00     0.155 C 
BRANCH  15  16
HETATM   16  C   UNL     1      23.490  48.370  49.222  1.00  0.00     0.139 C 
HETATM   17  O   UNL     1      24.923  48.544  49.169  1.00  0.00    -0.384 OA
HETATM   18  C   UNL     1      25.205  49.741  48.429  1.00  0.00     0.168 C 
HETATM   19  C   UNL     1      23.876  50.405  48.131  1.00  0.00     0.029 C 
HETATM   20  C   UNL     1      22.932  49.230  48.103  1.00  0.00     0.035 C 
ENDBRANCH  15  16
ENDBRANCH  12  15
ENDBRANCH   6  11
BRANCH   8  21
HETATM   21  C   UNL     1      27.914  40.787  51.145  1.00  0.00     0.409 C 
HETATM   22  F   UNL     1      28.442  41.467  50.105  1.00  0.00    -0.169 F 
HETATM   23  F   UNL     1      28.924  40.162  51.786  1.00  0.00    -0.169 F 
HETATM   24  F   UNL     1      27.136  39.808  50.611  1.00  0.00    -0.169 F 
ENDBRANCH   8  21
BRANCH   1  25
HETATM   25  C   UNL     1      29.358  43.831  54.315  1.00  0.00    -0.034 A 
HETATM   26  C   UNL     1      28.718  45.010  54.736  1.00  0.00     0.011 A 
HETATM   27  C   UNL     1      29.119  45.666  55.902  1.00  0.00     0.026 A 
HETATM   28  C   UNL     1      30.168  45.157  56.666  1.00  0.00     0.055 A 
HETATM   29  C   UNL     1      30.817  43.986  56.261  1.00  0.00     0.056 A 
HETATM   30 CL   UNL     1      30.616  46.022  58.093  1.00  0.00    -0.083 Cl
HETATM   31  C   UNL     1      30.412  43.327  55.092  1.00  0.00     0.034 A 
HETATM   32 CL   UNL     1      32.128  43.300  57.153  1.00  0.00    -0.083 Cl
ENDBRANCH   1  25
TORSDOF 5
ENDMDL
MODEL 2
REMARK VINA RESULT:      -9.5      2.515      3.801
REMARK  5 active torsions:
REMARK  status: ('A' for Active; 'I' for Inactive)
REMARK    1  A    between atoms: C_2  and  C_3 
REMARK    2  A    between atoms: C_8  and  C_9 
REMARK       I    between atoms: C_9  and  N_10 
REMARK    3  A    between atoms: N_10  and  C_11 
REMARK    4  A    between atoms: C_11  and  C_12 
REMARK    5  A    between atoms: C_19  and  C_20 
ROOT
HETATM    1  C   UNL     1      27.034  43.714  51.525  1.00  0.00     0.118 C 
HETATM    2  N   UNL     1      27.266  44.875  50.669  1.00  0.00    -0.366 N 
HETATM    3  C   UNL     1      26.269  45.689  50.268  1.00  0.00     0.123 A 
HETATM    4  N   UNL     1      24.960  45.341  50.438  1.00  0.00    -0.240 N 
HETATM    5  N   UNL     1      24.089  46.316  50.133  1.00  0.00    -0.165 NA
HETATM    6  C   UNL     1      24.879  47.299  49.642  1.00  0.00     0.148 A 
HETATM    7  C   UNL     1      26.253  46.926  49.684  1.00  0.00     0.088 A 
HETATM    8  C   UNL     1      24.547  44.095  51.052  1.00  0.00     0.221 C 
HETATM    9  C   UNL     1      25.599  43.693  52.099  1.00  0.00     0.066 C 
HETATM   10  H   UNL     1      28.242  45.123  50.510  1.00  0.00     0.161 HD
ENDROOT
BRANCH   6  11
HETATM   11  C   UNL     1      24.342  48.595  49.198  1.00  0.00     0.272 C 
HETATM   12  N   UNL     1      23.059  48.833  49.631  1.00  0.00    -0.353 N 
HETATM   13  H   UNL     1      22.697  48.163  50.308  1.00  0.00     0.162 HD
HETATM   14  O   UNL     1      24.999  49.396  48.538  1.00  0.00    -0.266 OA
BRANCH  12  15
HETATM   15  C   UNL     1      22.467  50.153  49.584  1.00  0.00     0.155 C 
BRANCH  15  16
HETATM   16  C   UNL     1      20.977  50.086  49.263  1.00  0.00     0.139 C 
HETATM   17  O   UNL     1      20.437  48.802  49.646  1.00  0.00    -0.384 OA
HETATM   18  C   UNL     1      19.125  49.010  50.192  1.00  0.00     0.168 C 
HETATM   19  C   UNL     1      18.792  50.477  50.007  1.00  0.00     0.029 C 
HETATM   20  C   UNL     1      20.157  51.117  50.016  1.00  0.00     0.035 C 
ENDBRANCH  15  16
ENDBRANCH  12  15
ENDBRANCH   6  11
BRANCH   8  21
HETATM   21  C   UNL     1      24.338  43.037  49.995  1.00  0.00     0.409 C 
HETATM   22  F   UNL     1      24.824  41.832  50.362  1.00  0.00    -0.169 F 
HETATM   23  F   UNL     1      23.044  42.871  49.646  1.00  0.00    -0.169 F 
HETATM   24  F   UNL     1      24.998  43.391  48.861  1.00  0.00    -0.169 F 
ENDBRANCH   8  21
BRANCH   1  25
HETATM   25  C   UNL     1      28.067  43.728  52.644  1.00  0.00    -0.034 A 
HETATM   26  C   UNL     1      29.186  42.878  52.604  1.00  0.00     0.011 A 
HETATM   27  C   UNL     1      30.127  42.882  53.636  1.00  0.00     0.026 A 
HETATM   28  C   UNL     1      29.963  43.733  54.729  1.00  0.00     0.055 A 
HETATM   29  C   UNL     1      28.854  44.584  54.786  1.00  0.00     0.056 A 
HETATM   30 CL   UNL     1      31.160  43.683  55.974  1.00  0.00    -0.083 Cl
HETATM   31  C   UNL     1      27.912  44.581  53.747  1.00  0.00     0.034 A 
HETATM   32 CL   UNL     1      28.581  45.660  56.110  1.00  0.00    -0.083 Cl
ENDBRANCH   1  25
TORSDOF 5
ENDMDL
MODEL 3
REMARK VINA RESULT:      -9.1      1.944      2.421
REMARK  5 active torsions:
REMARK  status: ('A' for Active; 'I' for Inactive)
REMARK    1  A    between atoms: C_2  and  C_3 
REMARK    2  A    between atoms: C_8  and  C_9 
REMARK       I    between atoms: C_9  and  N_10 
REMARK    3  A    between atoms: N_10  and  C_11 
REMARK    4  A    between atoms: C_11  and  C_12 
REMARK    5  A    between atoms: C_19  and  C_20 
ROOT
HETATM    1  C   UNL     1      28.955  42.866  52.876  1.00  0.00     0.118 C 
HETATM    2  N   UNL     1      28.281  43.803  51.979  1.00  0.00    -0.366 N 
HETATM    3  C   UNL     1      27.108  43.516  51.380  1.00  0.00     0.123 A 
HETATM    4  N   UNL     1      26.604  42.248  51.385  1.00  0.00    -0.240 N 
HETATM    5  N   UNL     1      25.360  42.150  50.886  1.00  0.00    -0.165 NA
HETATM    6  C   UNL     1      25.101  43.402  50.445  1.00  0.00     0.148 A 
HETATM    7  C   UNL     1      26.191  44.280  50.711  1.00  0.00     0.088 A 
HETATM    8  C   UNL     1      27.275  41.133  52.023  1.00  0.00     0.221 C 
HETATM    9  C   UNL     1      28.056  41.661  53.236  1.00  0.00     0.066 C 
HETATM   10  H   UNL     1      28.672  44.745  51.945  1.00  0.00     0.161 HD
ENDROOT
BRANCH   6  11
HETATM   11  C   UNL     1      23.815  43.773  49.834  1.00  0.00     0.272 C 
HETATM   12  N   UNL     1      23.948  44.423  48.630  1.00  0.00    -0.353 N 
HETATM   13  H   UNL     1      24.892  44.443  48.249  1.00  0.00     0.162 HD
HETATM   14  O   UNL     1      22.733  43.488  50.339  1.00  0.00    -0.266 OA
BRANCH  12  15
HETATM   15  C   UNL     1      22.834  44.587  47.721  1.00  0.00     0.155 C 
BRANCH  15  16
HETATM   16  C   UNL     1      22.127  45.922  47.938  1.00  0.00     0.139 C 
HETATM   17  O   UNL     1      21.934  46.600  46.677  1.00  0.00    -0.384 OA
HETATM   18  C   UNL     1      20.648  47.238  46.702  1.00  0.00     0.168 C 
HETATM   19  C   UNL     1      20.085  47.056  48.096  1.00  0.00     0.029 C 
HETATM   20  C   UNL     1      20.742  45.773  48.539  1.00  0.00     0.035 C 
ENDBRANCH  15  16
ENDBRANCH  12  15
ENDBRANCH   6  11
BRANCH   8  21
HETATM   21  C   UNL     1      28.154  40.414  51.027  1.00  0.00     0.409 C 
HETATM   22  F   UNL     1      28.598  41.227  50.044  1.00  0.00    -0.169 F 
HETATM   23  F   UNL     1      29.228  39.818  51.586  1.00  0.00    -0.169 F 
HETATM   24  F   UNL     1      27.441  39.428  50.420  1.00  0.00    -0.169 F 
ENDBRANCH   8  21
BRANCH   1  25
HETATM   25  C   UNL     1      29.381  43.621  54.128  1.00  0.00    -0.034 A 
HETATM   26  C   UNL     1      30.482  43.191  54.890  1.00  0.00     0.011 A 
HETATM   27  C   UNL     1      30.864  43.876  56.045  1.00  0.00     0.026 A 
HETATM   28  C   UNL     1      30.151  45.000  56.461  1.00  0.00     0.055 A 
HETATM   29  C   UNL     1      29.052  45.439  55.716  1.00  0.00     0.056 A 
HETATM   30 CL   UNL     1      30.675  45.795  57.903  1.00  0.00    -0.083 Cl
HETATM   31  C   UNL     1      28.671  44.753  54.555  1.00  0.00     0.034 A 
HETATM   32 CL   UNL     1      28.117  46.818  56.173  1.00  0.00    -0.083 Cl
ENDBRANCH   1  25
TORSDOF 5
ENDMDL
MODEL 4
REMARK VINA RESULT:      -9.1      2.191      3.123
REMARK  5 active torsions:
REMARK  status: ('A' for Active; 'I' for Inactive)
REMARK    1  A    between atoms: C_2  and  C_3 
REMARK    2  A    between atoms: C_8  and  C_9 
REMARK       I    between atoms: C_9  and  N_10 
REMARK    3  A    between atoms: N_10  and  C_11 
REMARK    4  A    between atoms: C_11  and  C_12 
REMARK    5  A    between atoms: C_19  and  C_20 
ROOT
HETATM    1  C   UNL     1      28.959  43.013  53.029  1.00  0.00     0.118 C 
HETATM    2  N   UNL     1      28.300  43.964  52.135  1.00  0.00    -0.366 N 
HETATM    3  C   UNL     1      27.126  43.695  51.530  1.00  0.00     0.123 A 
HETATM    4  N   UNL     1      26.606  42.433  51.525  1.00  0.00    -0.240 N 
HETATM    5  N   UNL     1      25.363  42.353  51.022  1.00  0.00    -0.165 NA
HETATM    6  C   UNL     1      25.121  43.611  50.587  1.00  0.00     0.148 A 
HETATM    7  C   UNL     1      26.221  44.474  50.862  1.00  0.00     0.088 A 
HETATM    8  C   UNL     1      27.261  41.306  52.159  1.00  0.00     0.221 C 
HETATM    9  C   UNL     1      28.044  41.818  53.379  1.00  0.00     0.066 C 
HETATM   10  H   UNL     1      28.702  44.901  52.108  1.00  0.00     0.161 HD
ENDROOT
BRANCH   6  11
HETATM   11  C   UNL     1      23.842  44.001  49.973  1.00  0.00     0.272 C 
HETATM   12  N   UNL     1      23.986  44.631  48.759  1.00  0.00    -0.353 N 
HETATM   13  H   UNL     1      24.930  44.625  48.376  1.00  0.00     0.162 HD
HETATM   14  O   UNL     1      22.755  43.747  50.485  1.00  0.00    -0.266 OA
BRANCH  12  15
HETATM   15  C   UNL     1      22.873  44.806  47.851  1.00  0.00     0.155 C 
BRANCH  15  16
HETATM   16  C   UNL     1      22.662  43.568  46.983  1.00  0.00     0.139 C 
HETATM   17  O   UNL     1      21.327  43.047  47.165  1.00  0.00    -0.384 OA
HETATM   18  C   UNL     1      20.842  42.596  45.891  1.00  0.00     0.168 C 
HETATM   19  C   UNL     1      21.986  42.721  44.907  1.00  0.00     0.029 C 
HETATM   20  C   UNL     1      22.792  43.851  45.497  1.00  0.00     0.035 C 
ENDBRANCH  15  16
ENDBRANCH  12  15
ENDBRANCH   6  11
BRANCH   8  21
HETATM   21  C   UNL     1      28.135  40.583  51.162  1.00  0.00     0.409 C 
HETATM   22  F   UNL     1      29.233  40.040  51.730  1.00  0.00    -0.169 F 
HETATM   23  F   UNL     1      27.492  39.605  50.489  1.00  0.00    -0.169 F 
HETATM   24  F   UNL     1      28.580  41.463  50.226  1.00  0.00    -0.169 F 
ENDBRANCH   8  21
BRANCH   1  25
HETATM   25  C   UNL     1      29.389  43.755  54.286  1.00  0.00    -0.034 A 
HETATM   26  C   UNL     1      28.764  44.957  54.665  1.00  0.00     0.011 A 
HETATM   27  C   UNL     1      29.167  45.645  55.812  1.00  0.00     0.026 A 
HETATM   28  C   UNL     1      30.205  45.145  56.598  1.00  0.00     0.055 A 
HETATM   29  C   UNL     1      30.839  43.953  56.235  1.00  0.00     0.056 A 
HETATM   30 CL   UNL     1      30.657  46.049  57.999  1.00  0.00    -0.083 Cl
HETATM   31  C   UNL     1      30.431  43.262  55.085  1.00  0.00     0.034 A 
HETATM   32 CL   UNL     1      32.135  43.277  57.156  1.00  0.00    -0.083 Cl
ENDBRANCH   1  25
TORSDOF 5
ENDMDL
MODEL 5
REMARK VINA RESULT:      -8.8      3.361      6.199
REMARK  5 active torsions:
REMARK  status: ('A' for Active; 'I' for Inactive)
REMARK    1  A    between atoms: C_2  and  C_3 
REMARK    2  A    between atoms: C_8  and  C_9 
REMARK       I    between atoms: C_9  and  N_10 
REMARK    3  A    between atoms: N_10  and  C_11 
REMARK    4  A    between atoms: C_11  and  C_12 
REMARK    5  A    between atoms: C_19  and  C_20 
ROOT
HETATM    1  C   UNL     1      27.207  44.388  53.542  1.00  0.00     0.118 C 
HETATM    2  N   UNL     1      26.875  43.082  52.975  1.00  0.00    -0.366 N 
HETATM    3  C   UNL     1      26.602  42.908  51.667  1.00  0.00     0.123 A 
HETATM    4  N   UNL     1      26.385  43.973  50.843  1.00  0.00    -0.240 N 
HETATM    5  N   UNL     1      26.281  43.650  49.543  1.00  0.00    -0.165 NA
HETATM    6  C   UNL     1      26.329  42.298  49.553  1.00  0.00     0.148 A 
HETATM    7  C   UNL     1      26.500  41.797  50.876  1.00  0.00     0.088 A 
HETATM    8  C   UNL     1      26.431  45.348  51.299  1.00  0.00     0.221 C 
HETATM    9  C   UNL     1      27.450  45.449  52.445  1.00  0.00     0.066 C 
HETATM   10  H   UNL     1      27.003  42.282  53.596  1.00  0.00     0.161 HD
ENDROOT
BRANCH   6  11
HETATM   11  C   UNL     1      26.274  41.498  48.320  1.00  0.00     0.272 C 
HETATM   12  N   UNL     1      27.442  40.820  48.054  1.00  0.00    -0.353 N 
HETATM   13  H   UNL     1      28.135  40.842  48.799  1.00  0.00     0.162 HD
HETATM   14  O   UNL     1      25.266  41.418  47.623  1.00  0.00    -0.266 OA
BRANCH  12  15
HETATM   15  C   UNL     1      27.499  39.743  47.089  1.00  0.00     0.155 C 
BRANCH  15  16
HETATM   16  C   UNL     1      27.776  38.403  47.764  1.00  0.00     0.139 C 
HETATM   17  O   UNL     1      28.942  38.497  48.612  1.00  0.00    -0.384 OA
HETATM   18  C   UNL     1      28.699  37.728  49.800  1.00  0.00     0.168 C 
HETATM   19  C   UNL     1      27.375  37.017  49.609  1.00  0.00     0.029 C 
HETATM   20  C   UNL     1      26.647  37.947  48.671  1.00  0.00     0.035 C 
ENDBRANCH  15  16
ENDBRANCH  12  15
ENDBRANCH   6  11
BRANCH   8  21
HETATM   21  C   UNL     1      25.050  45.811  51.700  1.00  0.00     0.409 C 
HETATM   22  F   UNL     1      24.389  46.411  50.687  1.00  0.00    -0.169 F 
HETATM   23  F   UNL     1      24.266  44.821  52.176  1.00  0.00    -0.169 F 
HETATM   24  F   UNL     1      25.151  46.732  52.695  1.00  0.00    -0.169 F 
ENDBRANCH   8  21
BRANCH   1  25
HETATM   25  C   UNL     1      28.435  44.229  54.427  1.00  0.00    -0.034 A 
HETATM   26  C   UNL     1      29.334  43.165  54.231  1.00  0.00     0.011 A 
HETATM   27  C   UNL     1      30.454  43.012  55.051  1.00  0.00     0.026 A 
HETATM   28  C   UNL     1      30.693  43.918  56.085  1.00  0.00     0.055 A 
HETATM   29  C   UNL     1      29.808  44.980  56.296  1.00  0.00     0.056 A 
HETATM   30 CL   UNL     1      32.092  43.666  57.066  1.00  0.00    -0.083 Cl
HETATM   31  C   UNL     1      28.686  45.134  55.469  1.00  0.00     0.034 A 
HETATM   32 CL   UNL     1      30.035  46.136  57.559  1.00  0.00    -0.083 Cl
ENDBRANCH   1  25
TORSDOF 5
ENDMDL
MODEL 6
REMARK VINA RESULT:      -8.7      6.819     10.866
REMARK  5 active torsions:
REMARK  status: ('A' for Active; 'I' for Inactive)
REMARK    1  A    between atoms: C_2  and  C_3 
REMARK    2  A    between atoms: C_8  and  C_9 
REMARK       I    between atoms: C_9  and  N_10 
REMARK    3  A    between atoms: N_10  and  C_11 
REMARK    4  A    between atoms: C_11  and  C_12 
REMARK    5  A    between atoms: C_19  and  C_20 
ROOT
HETATM    1  C   UNL     1      20.578  50.512  48.330  1.00  0.00     0.118 C 
HETATM    2  N   UNL     1      20.508  49.227  47.636  1.00  0.00    -0.366 N 
HETATM    3  C   UNL     1      21.303  48.188  47.955  1.00  0.00     0.123 A 
HETATM    4  N   UNL     1      22.380  48.348  48.778  1.00  0.00    -0.240 N 
HETATM    5  N   UNL     1      22.981  47.199  49.128  1.00  0.00    -0.165 NA
HETATM    6  C   UNL     1      22.316  46.267  48.404  1.00  0.00     0.148 A 
HETATM    7  C   UNL     1      21.275  46.858  47.633  1.00  0.00     0.088 A 
HETATM    8  C   UNL     1      22.744  49.623  49.363  1.00  0.00     0.221 C 
HETATM    9  C   UNL     1      21.463  50.440  49.594  1.00  0.00     0.066 C 
HETATM   10  H   UNL     1      19.724  49.111  46.994  1.00  0.00     0.161 HD
ENDROOT
BRANCH   6  11
HETATM   11  C   UNL     1      22.627  44.832  48.492  1.00  0.00     0.272 C 
HETATM   12  N   UNL     1      23.974  44.558  48.424  1.00  0.00    -0.353 N 
HETATM   13  H   UNL     1      24.585  45.372  48.463  1.00  0.00     0.162 HD
HETATM   14  O   UNL     1      21.764  43.973  48.650  1.00  0.00    -0.266 OA
BRANCH  12  15
HETATM   15  C   UNL     1      24.513  43.271  48.807  1.00  0.00     0.155 C 
BRANCH  15  16
HETATM   16  C   UNL     1      25.566  43.411  49.903  1.00  0.00     0.139 C 
HETATM   17  O   UNL     1      26.800  43.923  49.354  1.00  0.00    -0.384 OA
HETATM   18  C   UNL     1      27.368  44.840  50.302  1.00  0.00     0.168 C 
HETATM   19  C   UNL     1      26.511  44.780  51.550  1.00  0.00     0.029 C 
HETATM   20  C   UNL     1      25.166  44.388  50.993  1.00  0.00     0.035 C 
ENDBRANCH  15  16
ENDBRANCH  12  15
ENDBRANCH   6  11
BRANCH   8  21
HETATM   21  C   UNL     1      23.743  50.335  48.481  1.00  0.00     0.409 C 
HETATM   22  F   UNL     1      25.015  50.173  48.901  1.00  0.00    -0.169 F 
HETATM   23  F   UNL     1      23.683  49.959  47.186  1.00  0.00    -0.169 F 
HETATM   24  F   UNL     1      23.496  51.672  48.503  1.00  0.00    -0.169 F 
ENDBRANCH   8  21
BRANCH   1  25
HETATM   25  C   UNL     1      19.162  50.946  48.681  1.00  0.00    -0.034 A 
HETATM   26  C   UNL     1      18.930  52.106  49.441  1.00  0.00     0.011 A 
HETATM   27  C   UNL     1      17.632  52.498  49.775  1.00  0.00     0.026 A 
HETATM   28  C   UNL     1      16.542  51.734  49.357  1.00  0.00     0.055 A 
HETATM   29  C   UNL     1      16.754  50.576  48.602  1.00  0.00     0.056 A 
HETATM   30 CL   UNL     1      14.964  52.272  49.810  1.00  0.00    -0.083 Cl
HETATM   31  C   UNL     1      18.058  50.187  48.265  1.00  0.00     0.034 A 
HETATM   32 CL   UNL     1      15.455  49.578  48.055  1.00  0.00    -0.083 Cl
ENDBRANCH   1  25
TORSDOF 5
ENDMDL
MODEL 7
REMARK VINA RESULT:      -8.5      4.218      5.820
REMARK  5 active torsions:
REMARK  status: ('A' for Active; 'I' for Inactive)
REMARK    1  A    between atoms: C_2  and  C_3 
REMARK    2  A    between atoms: C_8  and  C_9 
REMARK       I    between atoms: C_9  and  N_10 
REMARK    3  A    between atoms: N_10  and  C_11 
REMARK    4  A    between atoms: C_11  and  C_12 
REMARK    5  A    between atoms: C_19  and  C_20 
ROOT
HETATM    1  C   UNL     1      26.386  43.189  51.987  1.00  0.00     0.118 C 
HETATM    2  N   UNL     1      25.243  43.670  51.214  1.00  0.00    -0.366 N 
HETATM    3  C   UNL     1      24.982  44.981  51.047  1.00  0.00     0.123 A 
HETATM    4  N   UNL     1      25.626  45.930  51.786  1.00  0.00    -0.240 N 
HETATM    5  N   UNL     1      25.376  47.192  51.399  1.00  0.00    -0.165 NA
HETATM    6  C   UNL     1      24.440  47.042  50.432  1.00  0.00     0.148 A 
HETATM    7  C   UNL     1      24.147  45.666  50.207  1.00  0.00     0.088 A 
HETATM    8  C   UNL     1      26.624  45.609  52.787  1.00  0.00     0.221 C 
HETATM    9  C   UNL     1      27.360  44.332  52.352  1.00  0.00     0.066 C 
HETATM   10  H   UNL     1      24.735  42.961  50.684  1.00  0.00     0.161 HD
ENDROOT
BRANCH   6  11
HETATM   11  C   UNL     1      23.880  48.184  49.694  1.00  0.00     0.272 C 
HETATM   12  N   UNL     1      22.526  48.081  49.472  1.00  0.00    -0.353 N 
HETATM   13  H   UNL     1      22.064  47.315  49.957  1.00  0.00     0.162 HD
HETATM   14  O   UNL     1      24.556  49.149  49.348  1.00  0.00    -0.266 OA
BRANCH  12  15
HETATM   15  C   UNL     1      21.730  49.217  49.059  1.00  0.00     0.155 C 
BRANCH  15  16
HETATM   16  C   UNL     1      20.261  49.034  49.430  1.00  0.00     0.139 C 
HETATM   17  O   UNL     1      19.434  49.949  48.679  1.00  0.00    -0.384 OA
HETATM   18  C   UNL     1      18.224  49.267  48.314  1.00  0.00     0.168 C 
HETATM   19  C   UNL     1      18.253  47.912  48.991  1.00  0.00     0.029 C 
HETATM   20  C   UNL     1      19.733  47.647  49.110  1.00  0.00     0.035 C 
ENDBRANCH  15  16
ENDBRANCH  12  15
ENDBRANCH   6  11
BRANCH   8  21
HETATM   21  C   UNL     1      25.977  45.479  54.145  1.00  0.00     0.409 C 
HETATM   22  F   UNL     1      24.746  44.927  54.084  1.00  0.00    -0.169 F 
HETATM   23  F   UNL     1      26.708  44.764  55.026  1.00  0.00    -0.169 F 
HETATM   24  F   UNL     1      25.819  46.714  54.693  1.00  0.00    -0.169 F 
ENDBRANCH   8  21
BRANCH   1  25
HETATM   25  C   UNL     1      27.093  42.109  51.179  1.00  0.00    -0.034 A 
HETATM   26  C   UNL     1      27.881  41.133  51.814  1.00  0.00     0.011 A 
HETATM   27  C   UNL     1      28.540  40.150  51.072  1.00  0.00     0.026 A 
HETATM   28  C   UNL     1      28.425  40.128  49.682  1.00  0.00     0.055 A 
HETATM   29  C   UNL     1      27.646  41.093  49.035  1.00  0.00     0.056 A 
HETATM   30 CL   UNL     1      29.271  38.889  48.825  1.00  0.00    -0.083 Cl
HETATM   31  C   UNL     1      26.983  42.077  49.781  1.00  0.00     0.034 A 
HETATM   32 CL   UNL     1      27.463  41.133  47.317  1.00  0.00    -0.083 Cl
ENDBRANCH   1  25
TORSDOF 5
ENDMDL
MODEL 8
REMARK VINA RESULT:      -8.5      3.843      5.776
REMARK  5 active torsions:
REMARK  status: ('A' for Active; 'I' for Inactive)
REMARK    1  A    between atoms: C_2  and  C_3 
REMARK    2  A    between atoms: C_8  and  C_9 
REMARK       I    between atoms: C_9  and  N_10 
REMARK    3  A    between atoms: N_10  and  C_11 
REMARK    4  A    between atoms: C_11  and  C_12 
REMARK    5  A    between atoms: C_19  and  C_20 
ROOT
HETATM    1  C   UNL     1      26.754  44.067  52.527  1.00  0.00     0.118 C 
HETATM    2  N   UNL     1      26.930  42.625  52.363  1.00  0.00    -0.366 N 
HETATM    3  C   UNL     1      27.138  42.053  51.161  1.00  0.00     0.123 A 
HETATM    4  N   UNL     1      26.957  42.754  50.004  1.00  0.00    -0.240 N 
HETATM    5  N   UNL     1      27.352  42.101  48.898  1.00  0.00    -0.165 NA
HETATM    6  C   UNL     1      27.704  40.881  49.366  1.00  0.00     0.148 A 
HETATM    7  C   UNL     1      27.553  40.806  50.780  1.00  0.00     0.088 A 
HETATM    8  C   UNL     1      26.537  44.141  49.977  1.00  0.00     0.221 C 
HETATM    9  C   UNL     1      27.084  44.842  51.232  1.00  0.00     0.066 C 
HETATM   10  H   UNL     1      27.033  42.089  53.225  1.00  0.00     0.161 HD
ENDROOT
BRANCH   6  11
HETATM   11  C   UNL     1      28.233  39.823  48.490  1.00  0.00     0.272 C 
HETATM   12  N   UNL     1      27.485  39.630  47.352  1.00  0.00    -0.353 N 
HETATM   13  H   UNL     1      26.755  40.323  47.189  1.00  0.00     0.162 HD
HETATM   14  O   UNL     1      29.264  39.206  48.741  1.00  0.00    -0.266 OA
BRANCH  12  15
HETATM   15  C   UNL     1      27.991  38.883  46.221  1.00  0.00     0.155 C 
BRANCH  15  16
HETATM   16  C   UNL     1      27.541  39.497  44.899  1.00  0.00     0.139 C 
HETATM   17  O   UNL     1      26.131  39.812  44.944  1.00  0.00    -0.384 OA
HETATM   18  C   UNL     1      25.925  41.056  44.257  1.00  0.00     0.168 C 
HETATM   19  C   UNL     1      27.252  41.452  43.643  1.00  0.00     0.029 C 
HETATM   20  C   UNL     1      28.242  40.805  44.578  1.00  0.00     0.035 C 
ENDBRANCH  15  16
ENDBRANCH  12  15
ENDBRANCH   6  11
BRANCH   8  21
HETATM   21  C   UNL     1      25.033  44.228  49.865  1.00  0.00     0.409 C 
HETATM   22  F   UNL     1      24.416  43.100  50.274  1.00  0.00    -0.169 F 
HETATM   23  F   UNL     1      24.500  45.262  50.549  1.00  0.00    -0.169 F 
HETATM   24  F   UNL     1      24.685  44.410  48.564  1.00  0.00    -0.169 F 
ENDBRANCH   8  21
BRANCH   1  25
HETATM   25  C   UNL     1      27.635  44.531  53.678  1.00  0.00    -0.034 A 
HETATM   26  C   UNL     1      27.393  45.756  54.324  1.00  0.00     0.011 A 
HETATM   27  C   UNL     1      28.210  46.188  55.371  1.00  0.00     0.026 A 
HETATM   28  C   UNL     1      29.285  45.404  55.790  1.00  0.00     0.055 A 
HETATM   29  C   UNL     1      29.541  44.183  55.157  1.00  0.00     0.056 A 
HETATM   30 CL   UNL     1      30.258  46.001  57.086  1.00  0.00    -0.083 Cl
HETATM   31  C   UNL     1      28.718  43.749  54.108  1.00  0.00     0.034 A 
HETATM   32 CL   UNL     1      30.857  43.162  55.616  1.00  0.00    -0.083 Cl
ENDBRANCH   1  25
TORSDOF 5
ENDMDL
MODEL 9
REMARK VINA RESULT:      -8.4      4.652      8.274
REMARK  5 active torsions:
REMARK  status: ('A' for Active; 'I' for Inactive)
REMARK    1  A    between atoms: C_2  and  C_3 
REMARK    2  A    between atoms: C_8  and  C_9 
REMARK       I    between atoms: C_9  and  N_10 
REMARK    3  A    between atoms: N_10  and  C_11 
REMARK    4  A    between atoms: C_11  and  C_12 
REMARK    5  A    between atoms: C_19  and  C_20 
ROOT
HETATM    1  C   UNL     1      23.255  45.274  49.381  1.00  0.00     0.118 C 
HETATM    2  N   UNL     1      23.868  45.079  50.694  1.00  0.00    -0.366 N 
HETATM    3  C   UNL     1      24.833  44.165  50.913  1.00  0.00     0.123 A 
HETATM    4  N   UNL     1      25.125  43.207  49.985  1.00  0.00    -0.240 N 
HETATM    5  N   UNL     1      26.209  42.470  50.278  1.00  0.00    -0.165 NA
HETATM    6  C   UNL     1      26.564  42.911  51.507  1.00  0.00     0.148 A 
HETATM    7  C   UNL     1      25.701  43.955  51.950  1.00  0.00     0.088 A 
HETATM    8  C   UNL     1      24.434  43.101  48.715  1.00  0.00     0.221 C 
HETATM    9  C   UNL     1      24.010  44.510  48.270  1.00  0.00     0.066 C 
HETATM   10  H   UNL     1      23.630  45.772  51.403  1.00  0.00     0.161 HD
ENDROOT
BRANCH   6  11
HETATM   11  C   UNL     1      27.739  42.391  52.223  1.00  0.00     0.272 C 
HETATM   12  N   UNL     1      28.720  43.333  52.423  1.00  0.00    -0.353 N 
HETATM   13  H   UNL     1      28.461  44.288  52.182  1.00  0.00     0.162 HD
HETATM   14  O   UNL     1      27.809  41.236  52.634  1.00  0.00    -0.266 OA
BRANCH  12  15
HETATM   15  C   UNL     1      29.798  43.128  53.367  1.00  0.00     0.155 C 
BRANCH  15  16
HETATM   16  C   UNL     1      29.457  43.707  54.737  1.00  0.00     0.139 C 
HETATM   17  O   UNL     1      30.664  44.005  55.472  1.00  0.00    -0.384 OA
HETATM   18  C   UNL     1      30.462  45.231  56.193  1.00  0.00     0.168 C 
HETATM   19  C   UNL     1      29.013  45.630  55.998  1.00  0.00     0.029 C 
HETATM   20  C   UNL     1      28.692  45.016  54.659  1.00  0.00     0.035 C 
ENDBRANCH  15  16
ENDBRANCH  12  15
ENDBRANCH   6  11
BRANCH   8  21
HETATM   21  C   UNL     1      23.268  42.148  48.834  1.00  0.00     0.409 C 
HETATM   22  F   UNL     1      22.692  42.182  50.054  1.00  0.00    -0.169 F 
HETATM   23  F   UNL     1      22.303  42.359  47.914  1.00  0.00    -0.169 F 
HETATM   24  F   UNL     1      23.703  40.874  48.647  1.00  0.00    -0.169 F 
ENDBRANCH   8  21
BRANCH   1  25
HETATM   25  C   UNL     1      23.218  46.767  49.086  1.00  0.00    -0.034 A 
HETATM   26  C   UNL     1      24.304  47.596  49.421  1.00  0.00     0.011 A 
HETATM   27  C   UNL     1      24.264  48.968  49.162  1.00  0.00     0.026 A 
HETATM   28  C   UNL     1      23.138  49.536  48.566  1.00  0.00     0.055 A 
HETATM   29  C   UNL     1      22.048  48.726  48.229  1.00  0.00     0.056 A 
HETATM   30 CL   UNL     1      23.153  51.239  48.280  1.00  0.00    -0.083 Cl
HETATM   31  C   UNL     1      22.091  47.348  48.487  1.00  0.00     0.034 A 
HETATM   32 CL   UNL     1      20.618  49.359  47.496  1.00  0.00    -0.083 Cl
ENDBRANCH   1  25
TORSDOF 5
ENDMDL
MODEL 10
REMARK VINA RESULT:      -8.3      5.916     10.095
REMARK  5 active torsions:
REMARK  status: ('A' for Active; 'I' for Inactive)
REMARK    1  A    between atoms: C_2  and  C_3 
REMARK    2  A    between atoms: C_8  and  C_9 
REMARK       I    between atoms: C_9  and  N_10 
REMARK    3  A    between atoms: N_10  and  C_11 
REMARK    4  A    between atoms: C_11  and  C_12 
REMARK    5  A    between atoms: C_19  and  C_20 
ROOT
HETATM    1  C   UNL     1      22.658  49.232  47.884  1.00  0.00     0.118 C 
HETATM    2  N   UNL     1      22.806  47.796  48.114  1.00  0.00    -0.366 N 
HETATM    3  C   UNL     1      23.602  47.296  49.080  1.00  0.00     0.123 A 
HETATM    4  N   UNL     1      24.497  48.088  49.739  1.00  0.00    -0.240 N 
HETATM    5  N   UNL     1      25.104  47.487  50.776  1.00  0.00    -0.165 NA
HETATM    6  C   UNL     1      24.650  46.214  50.707  1.00  0.00     0.148 A 
HETATM    7  C   UNL     1      23.728  46.051  49.633  1.00  0.00     0.088 A 
HETATM    8  C   UNL     1      24.657  49.501  49.459  1.00  0.00     0.221 C 
HETATM    9  C   UNL     1      23.300  50.069  49.012  1.00  0.00     0.066 C 
HETATM   10  H   UNL     1      22.163  47.194  47.600  1.00  0.00     0.161 HD
ENDROOT
BRANCH   6  11
HETATM   11  C   UNL     1      25.041  45.184  51.682  1.00  0.00     0.272 C 
HETATM   12  N   UNL     1      26.375  45.222  52.014  1.00  0.00    -0.353 N 
HETATM   13  H   UNL     1      26.887  46.029  51.661  1.00  0.00     0.162 HD
HETATM   14  O   UNL     1      24.238  44.397  52.175  1.00  0.00    -0.266 OA
BRANCH  12  15
HETATM   15  C   UNL     1      26.896  44.526  53.171  1.00  0.00     0.155 C 
BRANCH  15  16
HETATM   16  C   UNL     1      26.953  45.439  54.392  1.00  0.00     0.139 C 
HETATM   17  O   UNL     1      28.158  45.191  55.150  1.00  0.00    -0.384 OA
HETATM   18  C   UNL     1      28.654  46.449  55.632  1.00  0.00     0.168 C 
HETATM   19  C   UNL     1      27.628  47.503  55.268  1.00  0.00     0.029 C 
HETATM   20  C   UNL     1      26.991  46.913  54.035  1.00  0.00     0.035 C 
ENDBRANCH  15  16
ENDBRANCH  12  15
ENDBRANCH   6  11
BRANCH   8  21
HETATM   21  C   UNL     1      25.746  49.709  48.434  1.00  0.00     0.409 C 
HETATM   22  F   UNL     1      26.655  50.630  48.820  1.00  0.00    -0.169 F 
HETATM   23  F   UNL     1      26.412  48.579  48.117  1.00  0.00    -0.169 F 
HETATM   24  F   UNL     1      25.199  50.168  47.277  1.00  0.00    -0.169 F 
ENDBRANCH   8  21
BRANCH   1  25
HETATM   25  C   UNL     1      21.174  49.546  47.751  1.00  0.00    -0.034 A 
HETATM   26  C   UNL     1      20.267  48.568  47.306  1.00  0.00     0.011 A 
HETATM   27  C   UNL     1      18.907  48.860  47.171  1.00  0.00     0.026 A 
HETATM   28  C   UNL     1      18.432  50.135  47.476  1.00  0.00     0.055 A 
HETATM   29  C   UNL     1      19.321  51.120  47.919  1.00  0.00     0.056 A 
HETATM   30 CL   UNL     1      16.741  50.430  47.282  1.00  0.00    -0.083 Cl
HETATM   31  C   UNL     1      20.685  50.825  48.056  1.00  0.00     0.034 A 
HETATM   32 CL   UNL     1      18.807  52.723  48.308  1.00  0.00    -0.083 Cl
ENDBRANCH   1  25
TORSDOF 5
ENDMDL
