MODEL 1
REMARK VINA RESULT:      -9.4      0.000      0.000
REMARK  6 active torsions:
REMARK  status: ('A' for Active; 'I' for Inactive)
REMARK    1  A    between atoms: O_2  and  C_3 
REMARK    2  A    between atoms: C_5  and  O_6 
REMARK    3  A    between atoms: C_8  and  N_9 
REMARK       I    between atoms: N_9  and  C_10 
REMARK    4  A    between atoms: C_10  and  C_11 
REMARK    5  A    between atoms: C_11  and  N_12 
REMARK    6  A    between atoms: C_18  and  C_19 
ROOT
HETATM    1  N   UNL     1      26.843  44.770  51.000  1.00  0.00    -0.063 N 
HETATM    2  H   UNL     1      27.049  45.453  51.740  1.00  0.00     0.280 HD
HETATM    3  C   UNL     1      26.997  45.483  49.678  1.00  0.00     0.240 C 
HETATM    4  C   UNL     1      26.089  46.695  49.658  1.00  0.00     0.083 C 
HETATM    5  C   UNL     1      24.628  46.321  49.931  1.00  0.00     0.131 A 
HETATM    6  N   UNL     1      23.905  47.599  50.146  1.00  0.00    -0.251 NA
HETATM    7  C   UNL     1      23.039  47.715  49.173  1.00  0.00     0.132 A 
HETATM    8  C   UNL     1      23.067  46.518  48.252  1.00  0.00     0.272 A 
HETATM    9  O   UNL     1      22.426  46.335  47.248  1.00  0.00    -0.266 OA
HETATM   10  N   UNL     1      24.007  45.701  48.803  1.00  0.00    -0.327 N 
HETATM   11  C   UNL     1      24.486  45.479  51.205  1.00  0.00     0.083 C 
HETATM   12  C   UNL     1      25.431  44.286  51.216  1.00  0.00     0.240 C 
HETATM   13  H   UNL     1      24.262  44.841  48.331  1.00  0.00     0.165 HD
ENDROOT
BRANCH   1  14
HETATM   14  C   UNL     1      27.922  43.667  51.193  1.00  0.00     0.337 C 
BRANCH  14  15
HETATM   15  C   UNL     1      27.547  42.541  52.157  1.00  0.00     0.248 C 
HETATM   16  N   UNL     1      27.617  42.686  53.509  1.00  0.00    -0.323 N 
HETATM   17  H   UNL     1      27.119  41.933  53.977  1.00  0.00     0.169 HD
HETATM   18  O   UNL     1      27.057  41.492  51.722  1.00  0.00    -0.271 OA
BRANCH  16  19
HETATM   19  C   UNL     1      28.234  43.614  54.379  1.00  0.00     0.068 A 
HETATM   20  C   UNL     1      27.730  44.866  54.778  1.00  0.00     0.097 A 
HETATM   21  C   UNL     1      28.500  45.687  55.623  1.00  0.00     0.075 A 
HETATM   22  C   UNL     1      29.778  45.301  56.029  1.00  0.00     0.070 A 
HETATM   23  C   UNL     1      30.279  44.069  55.630  1.00  0.00     0.039 A 
HETATM   24  C   UNL     1      29.522  43.242  54.801  1.00  0.00     0.035 A 
BRANCH  20  25
HETATM   25  O   UNL     1      26.523  45.265  54.273  1.00  0.00    -0.354 OA
HETATM   26  C   UNL     1      26.209  46.658  54.329  1.00  0.00     0.210 C 
ENDBRANCH  20  25
BRANCH  22  27
HETATM   27  O   UNL     1      30.599  46.039  56.833  1.00  0.00    -0.356 OA
HETATM   28  C   UNL     1      30.648  45.634  58.199  1.00  0.00     0.210 C 
ENDBRANCH  22  27
ENDBRANCH  16  19
ENDBRANCH  14  15
ENDBRANCH   1  14
BRANCH   7  29
HETATM   29  C   UNL     1      22.168  48.893  48.996  1.00  0.00    -0.002 A 
HETATM   30  C   UNL     1      20.788  48.736  49.208  1.00  0.00     0.016 A 
HETATM   31  C   UNL     1      19.922  49.825  49.072  1.00  0.00     0.024 A 
HETATM   32  C   UNL     1      20.430  51.072  48.718  1.00  0.00     0.034 A 
HETATM   33 CL   UNL     1      19.367  52.413  48.553  1.00  0.00    -0.084 Cl
HETATM   34  C   UNL     1      21.797  51.236  48.496  1.00  0.00     0.024 A 
HETATM   35  C   UNL     1      22.667  50.148  48.635  1.00  0.00     0.016 A 
ENDBRANCH   7  29
TORSDOF 6
ENDMDL
MODEL 2
REMARK VINA RESULT:      -8.7      3.823     10.380
REMARK  6 active torsions:
REMARK  status: ('A' for Active; 'I' for Inactive)
REMARK    1  A    between atoms: O_2  and  C_3 
REMARK    2  A    between atoms: C_5  and  O_6 
REMARK    3  A    between atoms: C_8  and  N_9 
REMARK       I    between atoms: N_9  and  C_10 
REMARK    4  A    between atoms: C_10  and  C_11 
REMARK    5  A    between atoms: C_11  and  N_12 
REMARK    6  A    between atoms: C_18  and  C_19 
ROOT
HETATM    1  N   UNL     1      24.083  47.268  49.183  1.00  0.00    -0.063 N 
HETATM    2  H   UNL     1      24.941  47.538  48.686  1.00  0.00     0.280 HD
HETATM    3  C   UNL     1      24.172  47.846  50.575  1.00  0.00     0.240 C 
HETATM    4  C   UNL     1      25.442  47.353  51.238  1.00  0.00     0.083 C 
HETATM    5  C   UNL     1      25.521  45.821  51.256  1.00  0.00     0.131 A 
HETATM    6  N   UNL     1      26.902  45.482  51.680  1.00  0.00    -0.251 NA
HETATM    7  C   UNL     1      26.808  44.866  52.829  1.00  0.00     0.132 A 
HETATM    8  C   UNL     1      25.369  44.695  53.257  1.00  0.00     0.272 A 
HETATM    9  O   UNL     1      24.948  44.207  54.275  1.00  0.00    -0.266 OA
HETATM   10  N   UNL     1      24.655  45.246  52.236  1.00  0.00    -0.327 N 
HETATM   11  C   UNL     1      25.295  45.226  49.862  1.00  0.00     0.083 C 
HETATM   12  C   UNL     1      24.032  45.761  49.204  1.00  0.00     0.240 C 
HETATM   13  H   UNL     1      23.646  45.312  52.309  1.00  0.00     0.165 HD
ENDROOT
BRANCH   1  14
HETATM   14  C   UNL     1      22.943  47.925  48.355  1.00  0.00     0.337 C 
BRANCH  14  15
HETATM   15  C   UNL     1      23.196  49.367  47.915  1.00  0.00     0.248 C 
HETATM   16  N   UNL     1      22.294  50.363  48.128  1.00  0.00    -0.323 N 
HETATM   17  H   UNL     1      22.722  51.274  47.984  1.00  0.00     0.169 HD
HETATM   18  O   UNL     1      24.297  49.687  47.448  1.00  0.00    -0.271 OA
BRANCH  16  19
HETATM   19  C   UNL     1      20.923  50.406  48.472  1.00  0.00     0.068 A 
HETATM   20  C   UNL     1      19.867  49.733  47.829  1.00  0.00     0.097 A 
HETATM   21  C   UNL     1      18.547  49.921  48.279  1.00  0.00     0.075 A 
HETATM   22  C   UNL     1      18.263  50.808  49.319  1.00  0.00     0.070 A 
HETATM   23  C   UNL     1      19.303  51.478  49.949  1.00  0.00     0.039 A 
HETATM   24  C   UNL     1      20.617  51.292  49.519  1.00  0.00     0.035 A 
BRANCH  20  25
HETATM   25  O   UNL     1      20.164  48.959  46.740  1.00  0.00    -0.354 OA
HETATM   26  C   UNL     1      19.517  47.690  46.633  1.00  0.00     0.210 C 
ENDBRANCH  20  25
BRANCH  22  27
HETATM   27  O   UNL     1      17.014  51.064  49.809  1.00  0.00    -0.356 OA
HETATM   28  C   UNL     1      16.658  52.441  49.893  1.00  0.00     0.210 C 
ENDBRANCH  22  27
ENDBRANCH  16  19
ENDBRANCH  14  15
ENDBRANCH   1  14
BRANCH   7  29
HETATM   29  C   UNL     1      27.977  44.423  53.612  1.00  0.00    -0.002 A 
HETATM   30  C   UNL     1      28.361  45.191  54.724  1.00  0.00     0.016 A 
HETATM   31  C   UNL     1      29.449  44.804  55.511  1.00  0.00     0.024 A 
HETATM   32  C   UNL     1      30.162  43.653  55.187  1.00  0.00     0.034 A 
HETATM   33 CL   UNL     1      31.499  43.174  56.155  1.00  0.00    -0.084 Cl
HETATM   34  C   UNL     1      29.796  42.889  54.080  1.00  0.00     0.024 A 
HETATM   35  C   UNL     1      28.704  43.273  53.292  1.00  0.00     0.016 A 
ENDBRANCH   7  29
TORSDOF 6
ENDMDL
MODEL 3
REMARK VINA RESULT:      -8.6      5.689      8.967
REMARK  6 active torsions:
REMARK  status: ('A' for Active; 'I' for Inactive)
REMARK    1  A    between atoms: O_2  and  C_3 
REMARK    2  A    between atoms: C_5  and  O_6 
REMARK    3  A    between atoms: C_8  and  N_9 
REMARK       I    between atoms: N_9  and  C_10 
REMARK    4  A    between atoms: C_10  and  C_11 
REMARK    5  A    between atoms: C_11  and  N_12 
REMARK    6  A    between atoms: C_18  and  C_19 
ROOT
HETATM    1  N   UNL     1      26.923  41.515  49.215  1.00  0.00    -0.063 N 
HETATM    2  H   UNL     1      27.933  41.423  49.047  1.00  0.00     0.280 HD
HETATM    3  C   UNL     1      26.631  42.987  49.387  1.00  0.00     0.240 C 
HETATM    4  C   UNL     1      27.489  43.536  50.508  1.00  0.00     0.083 C 
HETATM    5  C   UNL     1      27.285  42.763  51.817  1.00  0.00     0.131 A 
HETATM    6  N   UNL     1      28.354  43.219  52.739  1.00  0.00    -0.251 NA
HETATM    7  C   UNL     1      27.765  43.825  53.736  1.00  0.00     0.132 A 
HETATM    8  C   UNL     1      26.260  43.793  53.602  1.00  0.00     0.272 A 
HETATM    9  O   UNL     1      25.437  44.291  54.327  1.00  0.00    -0.266 OA
HETATM   10  N   UNL     1      26.048  43.092  52.453  1.00  0.00    -0.327 N 
HETATM   11  C   UNL     1      27.448  41.253  51.614  1.00  0.00     0.083 C 
HETATM   12  C   UNL     1      26.602  40.730  50.462  1.00  0.00     0.240 C 
HETATM   13  H   UNL     1      25.104  42.979  52.102  1.00  0.00     0.165 HD
ENDROOT
BRANCH   1  14
HETATM   14  C   UNL     1      26.271  40.942  47.926  1.00  0.00     0.337 C 
BRANCH  14  15
HETATM   15  C   UNL     1      27.245  40.393  46.883  1.00  0.00     0.248 C 
HETATM   16  N   UNL     1      27.995  39.279  47.101  1.00  0.00    -0.323 N 
HETATM   17  H   UNL     1      28.399  38.941  46.231  1.00  0.00     0.169 HD
HETATM   18  O   UNL     1      27.290  40.898  45.754  1.00  0.00    -0.271 OA
BRANCH  16  19
HETATM   19  C   UNL     1      28.347  38.524  48.244  1.00  0.00     0.068 A 
HETATM   20  C   UNL     1      27.553  37.568  48.905  1.00  0.00     0.097 A 
HETATM   21  C   UNL     1      28.047  36.936  50.061  1.00  0.00     0.075 A 
HETATM   22  C   UNL     1      29.289  37.282  50.593  1.00  0.00     0.070 A 
HETATM   23  C   UNL     1      30.070  38.230  49.947  1.00  0.00     0.039 A 
HETATM   24  C   UNL     1      29.596  38.857  48.794  1.00  0.00     0.035 A 
BRANCH  20  25
HETATM   25  O   UNL     1      26.294  37.332  48.424  1.00  0.00    -0.354 OA
HETATM   26  C   UNL     1      26.117  36.218  47.548  1.00  0.00     0.210 C 
ENDBRANCH  20  25
BRANCH  22  27
HETATM   27  O   UNL     1      29.838  36.733  51.717  1.00  0.00    -0.356 OA
HETATM   28  C   UNL     1      29.828  35.309  51.774  1.00  0.00     0.210 C 
ENDBRANCH  22  27
ENDBRANCH  16  19
ENDBRANCH  14  15
ENDBRANCH   1  14
BRANCH   7  29
HETATM   29  C   UNL     1      28.498  44.481  54.837  1.00  0.00    -0.002 A 
HETATM   30  C   UNL     1      29.766  43.984  55.179  1.00  0.00     0.016 A 
HETATM   31  C   UNL     1      30.509  44.582  56.201  1.00  0.00     0.024 A 
HETATM   32  C   UNL     1      29.985  45.673  56.889  1.00  0.00     0.034 A 
HETATM   33 CL   UNL     1      30.898  46.411  58.144  1.00  0.00    -0.084 Cl
HETATM   34  C   UNL     1      28.723  46.168  56.564  1.00  0.00     0.024 A 
HETATM   35  C   UNL     1      27.978  45.573  55.538  1.00  0.00     0.016 A 
ENDBRANCH   7  29
TORSDOF 6
ENDMDL
MODEL 4
REMARK VINA RESULT:      -8.6      4.038     10.151
REMARK  6 active torsions:
REMARK  status: ('A' for Active; 'I' for Inactive)
REMARK    1  A    between atoms: O_2  and  C_3 
REMARK    2  A    between atoms: C_5  and  O_6 
REMARK    3  A    between atoms: C_8  and  N_9 
REMARK       I    between atoms: N_9  and  C_10 
REMARK    4  A    between atoms: C_10  and  C_11 
REMARK    5  A    between atoms: C_11  and  N_12 
REMARK    6  A    between atoms: C_18  and  C_19 
ROOT
HETATM    1  N   UNL     1      21.856  45.846  48.873  1.00  0.00    -0.063 N 
HETATM    2  H   UNL     1      21.519  46.236  49.763  1.00  0.00     0.280 HD
HETATM    3  C   UNL     1      22.143  44.381  49.106  1.00  0.00     0.240 C 
HETATM    4  C   UNL     1      23.132  44.245  50.245  1.00  0.00     0.083 C 
HETATM    5  C   UNL     1      24.419  45.038  49.984  1.00  0.00     0.131 A 
HETATM    6  N   UNL     1      25.174  45.037  51.261  1.00  0.00    -0.251 NA
HETATM    7  C   UNL     1      26.281  44.376  51.050  1.00  0.00     0.132 A 
HETATM    8  C   UNL     1      26.394  43.918  49.614  1.00  0.00     0.272 A 
HETATM    9  O   UNL     1      27.268  43.258  49.109  1.00  0.00    -0.266 OA
HETATM   10  N   UNL     1      25.264  44.399  49.025  1.00  0.00    -0.327 N 
HETATM   11  C   UNL     1      24.121  46.495  49.613  1.00  0.00     0.083 C 
HETATM   12  C   UNL     1      23.099  46.607  48.490  1.00  0.00     0.240 C 
HETATM   13  H   UNL     1      25.068  44.172  48.057  1.00  0.00     0.165 HD
ENDROOT
BRANCH   1  14
HETATM   14  C   UNL     1      20.665  46.054  47.895  1.00  0.00     0.337 C 
BRANCH  14  15
HETATM   15  C   UNL     1      19.294  45.636  48.429  1.00  0.00     0.248 C 
HETATM   16  N   UNL     1      18.321  46.541  48.725  1.00  0.00    -0.323 N 
HETATM   17  H   UNL     1      17.423  46.078  48.840  1.00  0.00     0.169 HD
HETATM   18  O   UNL     1      18.997  44.437  48.498  1.00  0.00    -0.271 OA
BRANCH  16  19
HETATM   19  C   UNL     1      18.291  47.940  48.926  1.00  0.00     0.068 A 
HETATM   20  C   UNL     1      17.967  48.926  47.975  1.00  0.00     0.097 A 
HETATM   21  C   UNL     1      18.028  50.285  48.336  1.00  0.00     0.075 A 
HETATM   22  C   UNL     1      18.457  50.671  49.606  1.00  0.00     0.070 A 
HETATM   23  C   UNL     1      18.784  49.700  50.542  1.00  0.00     0.039 A 
HETATM   24  C   UNL     1      18.718  48.349  50.200  1.00  0.00     0.035 A 
BRANCH  20  25
HETATM   25  O   UNL     1      17.659  48.520  46.705  1.00  0.00    -0.354 OA
HETATM   26  C   UNL     1      18.694  48.577  45.722  1.00  0.00     0.210 C 
ENDBRANCH  20  25
BRANCH  22  27
HETATM   27  O   UNL     1      18.562  51.964  50.036  1.00  0.00    -0.356 OA
HETATM   28  C   UNL     1      17.403  52.771  49.846  1.00  0.00     0.210 C 
ENDBRANCH  22  27
ENDBRANCH  16  19
ENDBRANCH  14  15
ENDBRANCH   1  14
BRANCH   7  29
HETATM   29  C   UNL     1      27.276  44.098  52.103  1.00  0.00    -0.002 A 
HETATM   30  C   UNL     1      26.956  44.440  53.426  1.00  0.00     0.016 A 
HETATM   31  C   UNL     1      27.856  44.179  54.464  1.00  0.00     0.024 A 
HETATM   32  C   UNL     1      29.081  43.582  54.181  1.00  0.00     0.034 A 
HETATM   33 CL   UNL     1      30.189  43.258  55.455  1.00  0.00    -0.084 Cl
HETATM   34  C   UNL     1      29.414  43.247  52.869  1.00  0.00     0.024 A 
HETATM   35  C   UNL     1      28.513  43.504  51.829  1.00  0.00     0.016 A 
ENDBRANCH   7  29
TORSDOF 6
ENDMDL
MODEL 5
REMARK VINA RESULT:      -8.5      3.825      9.930
REMARK  6 active torsions:
REMARK  status: ('A' for Active; 'I' for Inactive)
REMARK    1  A    between atoms: O_2  and  C_3 
REMARK    2  A    between atoms: C_5  and  O_6 
REMARK    3  A    between atoms: C_8  and  N_9 
REMARK       I    between atoms: N_9  and  C_10 
REMARK    4  A    between atoms: C_10  and  C_11 
REMARK    5  A    between atoms: C_11  and  N_12 
REMARK    6  A    between atoms: C_18  and  C_19 
ROOT
HETATM    1  N   UNL     1      22.266  45.596  49.239  1.00  0.00    -0.063 N 
HETATM    2  H   UNL     1      21.982  46.045  50.119  1.00  0.00     0.280 HD
HETATM    3  C   UNL     1      22.520  44.138  49.542  1.00  0.00     0.240 C 
HETATM    4  C   UNL     1      23.555  44.033  50.643  1.00  0.00     0.083 C 
HETATM    5  C   UNL     1      24.851  44.768  50.283  1.00  0.00     0.131 A 
HETATM    6  N   UNL     1      25.662  44.814  51.524  1.00  0.00    -0.251 NA
HETATM    7  C   UNL     1      26.739  44.107  51.303  1.00  0.00     0.132 A 
HETATM    8  C   UNL     1      26.774  43.566  49.892  1.00  0.00     0.272 A 
HETATM    9  O   UNL     1      27.604  42.852  49.389  1.00  0.00    -0.266 OA
HETATM   10  N   UNL     1      25.633  44.051  49.326  1.00  0.00    -0.327 N 
HETATM   11  C   UNL     1      24.581  46.212  49.843  1.00  0.00     0.083 C 
HETATM   12  C   UNL     1      23.514  46.294  48.760  1.00  0.00     0.240 C 
HETATM   13  H   UNL     1      25.388  43.777  48.382  1.00  0.00     0.165 HD
ENDROOT
BRANCH   1  14
HETATM   14  C   UNL     1      21.040  45.788  48.303  1.00  0.00     0.337 C 
BRANCH  14  15
HETATM   15  C   UNL     1      21.272  46.688  47.089  1.00  0.00     0.248 C 
HETATM   16  N   UNL     1      21.014  48.024  47.112  1.00  0.00    -0.323 N 
HETATM   17  H   UNL     1      21.440  48.486  46.312  1.00  0.00     0.169 HD
HETATM   18  O   UNL     1      21.817  46.231  46.077  1.00  0.00    -0.271 OA
BRANCH  16  19
HETATM   19  C   UNL     1      20.283  48.881  47.966  1.00  0.00     0.068 A 
HETATM   20  C   UNL     1      20.780  49.605  49.067  1.00  0.00     0.097 A 
HETATM   21  C   UNL     1      19.898  50.384  49.840  1.00  0.00     0.075 A 
HETATM   22  C   UNL     1      18.531  50.407  49.564  1.00  0.00     0.070 A 
HETATM   23  C   UNL     1      18.039  49.688  48.483  1.00  0.00     0.039 A 
HETATM   24  C   UNL     1      18.903  48.920  47.703  1.00  0.00     0.035 A 
BRANCH  20  25
HETATM   25  O   UNL     1      22.104  49.473  49.380  1.00  0.00    -0.354 OA
HETATM   26  C   UNL     1      22.970  50.567  49.075  1.00  0.00     0.210 C 
ENDBRANCH  20  25
BRANCH  22  27
HETATM   27  O   UNL     1      17.603  51.120  50.269  1.00  0.00    -0.356 OA
HETATM   28  C   UNL     1      17.409  52.466  49.844  1.00  0.00     0.210 C 
ENDBRANCH  22  27
ENDBRANCH  16  19
ENDBRANCH  14  15
ENDBRANCH   1  14
BRANCH   7  29
HETATM   29  C   UNL     1      27.772  43.855  52.326  1.00  0.00    -0.002 A 
HETATM   30  C   UNL     1      27.682  44.547  53.545  1.00  0.00     0.016 A 
HETATM   31  C   UNL     1      28.623  44.330  54.555  1.00  0.00     0.024 A 
HETATM   32  C   UNL     1      29.662  43.426  54.348  1.00  0.00     0.034 A 
HETATM   33 CL   UNL     1      30.820  43.155  55.590  1.00  0.00    -0.084 Cl
HETATM   34  C   UNL     1      29.766  42.741  53.139  1.00  0.00     0.024 A 
HETATM   35  C   UNL     1      28.822  42.954  52.127  1.00  0.00     0.016 A 
ENDBRANCH   7  29
TORSDOF 6
ENDMDL
MODEL 6
REMARK VINA RESULT:      -8.4      4.628      9.294
REMARK  6 active torsions:
REMARK  status: ('A' for Active; 'I' for Inactive)
REMARK    1  A    between atoms: O_2  and  C_3 
REMARK    2  A    between atoms: C_5  and  O_6 
REMARK    3  A    between atoms: C_8  and  N_9 
REMARK       I    between atoms: N_9  and  C_10 
REMARK    4  A    between atoms: C_10  and  C_11 
REMARK    5  A    between atoms: C_11  and  N_12 
REMARK    6  A    between atoms: C_18  and  C_19 
ROOT
HETATM    1  N   UNL     1      24.745  44.328  49.533  1.00  0.00    -0.063 N 
HETATM    2  H   UNL     1      25.162  43.412  49.324  1.00  0.00     0.280 HD
HETATM    3  C   UNL     1      25.864  45.342  49.528  1.00  0.00     0.240 C 
HETATM    4  C   UNL     1      26.925  44.915  50.521  1.00  0.00     0.083 C 
HETATM    5  C   UNL     1      26.346  44.719  51.928  1.00  0.00     0.131 A 
HETATM    6  N   UNL     1      27.409  44.059  52.726  1.00  0.00    -0.251 NA
HETATM    7  C   UNL     1      27.757  44.898  53.666  1.00  0.00     0.132 A 
HETATM    8  C   UNL     1      26.938  46.167  53.616  1.00  0.00     0.272 A 
HETATM    9  O   UNL     1      27.036  47.145  54.314  1.00  0.00    -0.266 OA
HETATM   10  N   UNL     1      26.077  45.962  52.581  1.00  0.00    -0.327 N 
HETATM   11  C   UNL     1      25.123  43.796  51.914  1.00  0.00     0.083 C 
HETATM   12  C   UNL     1      24.087  44.225  50.885  1.00  0.00     0.240 C 
HETATM   13  H   UNL     1      25.448  46.705  52.298  1.00  0.00     0.165 HD
ENDROOT
BRANCH   1  14
HETATM   14  C   UNL     1      23.746  44.563  48.364  1.00  0.00     0.337 C 
BRANCH  14  15
HETATM   15  C   UNL     1      22.680  43.482  48.183  1.00  0.00     0.248 C 
HETATM   16  N   UNL     1      22.992  42.194  47.875  1.00  0.00    -0.323 N 
HETATM   17  H   UNL     1      22.191  41.585  48.022  1.00  0.00     0.169 HD
HETATM   18  O   UNL     1      21.494  43.738  48.428  1.00  0.00    -0.271 OA
BRANCH  16  19
HETATM   19  C   UNL     1      24.146  41.540  47.384  1.00  0.00     0.068 A 
HETATM   20  C   UNL     1      25.223  41.042  48.141  1.00  0.00     0.097 A 
HETATM   21  C   UNL     1      26.319  40.452  47.484  1.00  0.00     0.075 A 
HETATM   22  C   UNL     1      26.377  40.402  46.091  1.00  0.00     0.070 A 
HETATM   23  C   UNL     1      25.319  40.899  45.343  1.00  0.00     0.039 A 
HETATM   24  C   UNL     1      24.223  41.478  45.983  1.00  0.00     0.035 A 
BRANCH  20  25
HETATM   25  O   UNL     1      25.188  41.207  49.499  1.00  0.00    -0.354 OA
HETATM   26  C   UNL     1      26.078  40.415  50.286  1.00  0.00     0.210 C 
ENDBRANCH  20  25
BRANCH  22  27
HETATM   27  O   UNL     1      27.406  39.864  45.371  1.00  0.00    -0.356 OA
HETATM   28  C   UNL     1      27.887  38.604  45.833  1.00  0.00     0.210 C 
ENDBRANCH  22  27
ENDBRANCH  16  19
ENDBRANCH  14  15
ENDBRANCH   1  14
BRANCH   7  29
HETATM   29  C   UNL     1      28.840  44.633  54.632  1.00  0.00    -0.002 A 
HETATM   30  C   UNL     1      29.539  43.419  54.531  1.00  0.00     0.016 A 
HETATM   31  C   UNL     1      30.586  43.128  55.409  1.00  0.00     0.024 A 
HETATM   32  C   UNL     1      30.935  44.046  56.396  1.00  0.00     0.034 A 
HETATM   33 CL   UNL     1      32.225  43.692  57.477  1.00  0.00    -0.084 Cl
HETATM   34  C   UNL     1      30.242  45.250  56.512  1.00  0.00     0.024 A 
HETATM   35  C   UNL     1      29.195  45.545  55.631  1.00  0.00     0.016 A 
ENDBRANCH   7  29
TORSDOF 6
ENDMDL
MODEL 7
REMARK VINA RESULT:      -8.4      4.470      7.691
REMARK  6 active torsions:
REMARK  status: ('A' for Active; 'I' for Inactive)
REMARK    1  A    between atoms: O_2  and  C_3 
REMARK    2  A    between atoms: C_5  and  O_6 
REMARK    3  A    between atoms: C_8  and  N_9 
REMARK       I    between atoms: N_9  and  C_10 
REMARK    4  A    between atoms: C_10  and  C_11 
REMARK    5  A    between atoms: C_11  and  N_12 
REMARK    6  A    between atoms: C_18  and  C_19 
ROOT
HETATM    1  N   UNL     1      20.991  49.484  49.384  1.00  0.00    -0.063 N 
HETATM    2  H   UNL     1      21.336  49.936  50.240  1.00  0.00     0.280 HD
HETATM    3  C   UNL     1      20.706  50.579  48.383  1.00  0.00     0.240 C 
HETATM    4  C   UNL     1      19.728  51.563  48.990  1.00  0.00     0.083 C 
HETATM    5  C   UNL     1      18.439  50.876  49.457  1.00  0.00     0.131 A 
HETATM    6  N   UNL     1      17.697  51.883  50.255  1.00  0.00    -0.251 NA
HETATM    7  C   UNL     1      16.587  52.136  49.613  1.00  0.00     0.132 A 
HETATM    8  C   UNL     1      16.460  51.298  48.362  1.00  0.00     0.272 A 
HETATM    9  O   UNL     1      15.581  51.318  47.537  1.00  0.00    -0.266 OA
HETATM   10  N   UNL     1      17.584  50.528  48.366  1.00  0.00    -0.327 N 
HETATM   11  C   UNL     1      18.733  49.678  50.366  1.00  0.00     0.083 C 
HETATM   12  C   UNL     1      19.744  48.720  49.750  1.00  0.00     0.240 C 
HETATM   13  H   UNL     1      17.770  49.909  47.586  1.00  0.00     0.165 HD
ENDROOT
BRANCH   1  14
HETATM   14  C   UNL     1      22.172  48.579  48.932  1.00  0.00     0.337 C 
BRANCH  14  15
HETATM   15  C   UNL     1      23.565  49.065  49.335  1.00  0.00     0.248 C 
HETATM   16  N   UNL     1      24.514  48.225  49.831  1.00  0.00    -0.323 N 
HETATM   17  H   UNL     1      25.428  48.671  49.822  1.00  0.00     0.169 HD
HETATM   18  O   UNL     1      23.900  50.234  49.109  1.00  0.00    -0.271 OA
BRANCH  16  19
HETATM   19  C   UNL     1      24.504  46.916  50.364  1.00  0.00     0.068 A 
HETATM   20  C   UNL     1      24.946  46.517  51.640  1.00  0.00     0.097 A 
HETATM   21  C   UNL     1      24.901  45.156  51.995  1.00  0.00     0.075 A 
HETATM   22  C   UNL     1      24.476  44.189  51.083  1.00  0.00     0.070 A 
HETATM   23  C   UNL     1      24.046  44.581  49.823  1.00  0.00     0.039 A 
HETATM   24  C   UNL     1      24.076  45.927  49.461  1.00  0.00     0.035 A 
BRANCH  20  25
HETATM   25  O   UNL     1      25.463  47.472  52.470  1.00  0.00    -0.354 OA
HETATM   26  C   UNL     1      25.949  47.050  53.745  1.00  0.00     0.210 C 
ENDBRANCH  20  25
BRANCH  22  27
HETATM   27  O   UNL     1      24.415  42.848  51.337  1.00  0.00    -0.356 OA
HETATM   28  C   UNL     1      25.304  42.038  50.572  1.00  0.00     0.210 C 
ENDBRANCH  22  27
ENDBRANCH  16  19
ENDBRANCH  14  15
ENDBRANCH   1  14
BRANCH   7  29
HETATM   29  C   UNL     1      15.602  53.142  50.055  1.00  0.00    -0.002 A 
HETATM   30  C   UNL     1      15.984  54.494  50.046  1.00  0.00     0.016 A 
HETATM   31  C   UNL     1      15.082  55.488  50.437  1.00  0.00     0.024 A 
HETATM   32  C   UNL     1      13.798  55.134  50.844  1.00  0.00     0.034 A 
HETATM   33 CL   UNL     1      12.686  56.355  51.322  1.00  0.00    -0.084 Cl
HETATM   34  C   UNL     1      13.412  53.795  50.865  1.00  0.00     0.024 A 
HETATM   35  C   UNL     1      14.313  52.798  50.471  1.00  0.00     0.016 A 
ENDBRANCH   7  29
TORSDOF 6
ENDMDL
MODEL 8
REMARK VINA RESULT:      -8.2      3.734      9.502
REMARK  6 active torsions:
REMARK  status: ('A' for Active; 'I' for Inactive)
REMARK    1  A    between atoms: O_2  and  C_3 
REMARK    2  A    between atoms: C_5  and  O_6 
REMARK    3  A    between atoms: C_8  and  N_9 
REMARK       I    between atoms: N_9  and  C_10 
REMARK    4  A    between atoms: C_10  and  C_11 
REMARK    5  A    between atoms: C_11  and  N_12 
REMARK    6  A    between atoms: C_18  and  C_19 
ROOT
HETATM    1  N   UNL     1      23.585  43.754  48.985  1.00  0.00    -0.063 N 
HETATM    2  H   UNL     1      24.402  43.669  48.367  1.00  0.00     0.280 HD
HETATM    3  C   UNL     1      23.746  45.036  49.766  1.00  0.00     0.240 C 
HETATM    4  C   UNL     1      25.068  45.005  50.505  1.00  0.00     0.083 C 
HETATM    5  C   UNL     1      25.189  43.773  51.410  1.00  0.00     0.131 A 
HETATM    6  N   UNL     1      26.603  43.725  51.858  1.00  0.00    -0.251 NA
HETATM    7  C   UNL     1      26.598  43.900  53.154  1.00  0.00     0.132 A 
HETATM    8  C   UNL     1      25.194  44.034  53.696  1.00  0.00     0.272 A 
HETATM    9  O   UNL     1      24.851  44.240  54.833  1.00  0.00    -0.266 OA
HETATM   10  N   UNL     1      24.402  43.893  52.596  1.00  0.00    -0.327 N 
HETATM   11  C   UNL     1      24.892  42.478  50.647  1.00  0.00     0.083 C 
HETATM   12  C   UNL     1      23.575  42.545  49.886  1.00  0.00     0.240 C 
HETATM   13  H   UNL     1      23.398  44.004  52.685  1.00  0.00     0.165 HD
ENDROOT
BRANCH   1  14
HETATM   14  C   UNL     1      22.378  43.818  48.007  1.00  0.00     0.337 C 
BRANCH  14  15
HETATM   15  C   UNL     1      22.601  44.644  46.739  1.00  0.00     0.248 C 
HETATM   16  N   UNL     1      22.257  45.958  46.656  1.00  0.00    -0.323 N 
HETATM   17  H   UNL     1      22.683  46.390  45.840  1.00  0.00     0.169 HD
HETATM   18  O   UNL     1      23.213  44.154  45.783  1.00  0.00    -0.271 OA
BRANCH  16  19
HETATM   19  C   UNL     1      21.439  46.823  47.419  1.00  0.00     0.068 A 
HETATM   20  C   UNL     1      21.829  48.019  48.051  1.00  0.00     0.097 A 
HETATM   21  C   UNL     1      20.890  48.741  48.810  1.00  0.00     0.075 A 
HETATM   22  C   UNL     1      19.593  48.261  48.992  1.00  0.00     0.070 A 
HETATM   23  C   UNL     1      19.209  47.078  48.376  1.00  0.00     0.039 A 
HETATM   24  C   UNL     1      20.128  46.358  47.611  1.00  0.00     0.035 A 
BRANCH  20  25
HETATM   25  O   UNL     1      23.138  48.405  47.948  1.00  0.00    -0.354 OA
HETATM   26  C   UNL     1      23.808  48.803  49.145  1.00  0.00     0.210 C 
ENDBRANCH  20  25
BRANCH  22  27
HETATM   27  O   UNL     1      18.623  48.885  49.724  1.00  0.00    -0.356 OA
HETATM   28  C   UNL     1      18.611  48.578  51.116  1.00  0.00     0.210 C 
ENDBRANCH  22  27
ENDBRANCH  16  19
ENDBRANCH  14  15
ENDBRANCH   1  14
BRANCH   7  29
HETATM   29  C   UNL     1      27.826  43.983  53.968  1.00  0.00    -0.002 A 
HETATM   30  C   UNL     1      28.688  42.875  53.983  1.00  0.00     0.016 A 
HETATM   31  C   UNL     1      29.874  42.909  54.723  1.00  0.00     0.024 A 
HETATM   32  C   UNL     1      30.198  44.048  55.455  1.00  0.00     0.034 A 
HETATM   33 CL   UNL     1      31.658  44.094  56.363  1.00  0.00    -0.084 Cl
HETATM   34  C   UNL     1      29.345  45.150  55.454  1.00  0.00     0.024 A 
HETATM   35  C   UNL     1      28.159  45.119  54.711  1.00  0.00     0.016 A 
ENDBRANCH   7  29
TORSDOF 6
ENDMDL
MODEL 9
REMARK VINA RESULT:      -8.2      3.430      5.844
REMARK  6 active torsions:
REMARK  status: ('A' for Active; 'I' for Inactive)
REMARK    1  A    between atoms: O_2  and  C_3 
REMARK    2  A    between atoms: C_5  and  O_6 
REMARK    3  A    between atoms: C_8  and  N_9 
REMARK       I    between atoms: N_9  and  C_10 
REMARK    4  A    between atoms: C_10  and  C_11 
REMARK    5  A    between atoms: C_11  and  N_12 
REMARK    6  A    between atoms: C_18  and  C_19 
ROOT
HETATM    1  N   UNL     1      21.199  45.393  48.019  1.00  0.00    -0.063 N 
HETATM    2  H   UNL     1      21.093  45.620  47.022  1.00  0.00     0.280 HD
HETATM    3  C   UNL     1      19.811  45.208  48.585  1.00  0.00     0.240 C 
HETATM    4  C   UNL     1      18.999  46.460  48.327  1.00  0.00     0.083 C 
HETATM    5  C   UNL     1      19.678  47.711  48.896  1.00  0.00     0.131 A 
HETATM    6  N   UNL     1      18.931  48.873  48.355  1.00  0.00    -0.251 NA
HETATM    7  C   UNL     1      18.374  49.476  49.373  1.00  0.00     0.132 A 
HETATM    8  C   UNL     1      18.731  48.811  50.682  1.00  0.00     0.272 A 
HETATM    9  O   UNL     1      18.354  49.098  51.790  1.00  0.00    -0.266 OA
HETATM   10  N   UNL     1      19.560  47.793  50.318  1.00  0.00    -0.327 N 
HETATM   11  C   UNL     1      21.134  47.828  48.430  1.00  0.00     0.083 C 
HETATM   12  C   UNL     1      21.920  46.547  48.668  1.00  0.00     0.240 C 
HETATM   13  H   UNL     1      19.897  47.146  51.022  1.00  0.00     0.165 HD
ENDROOT
BRANCH   1  14
HETATM   14  C   UNL     1      22.007  44.065  48.020  1.00  0.00     0.337 C 
BRANCH  14  15
HETATM   15  C   UNL     1      23.354  44.113  47.297  1.00  0.00     0.248 C 
HETATM   16  N   UNL     1      24.540  44.016  47.957  1.00  0.00    -0.323 N 
HETATM   17  H   UNL     1      25.300  43.836  47.307  1.00  0.00     0.169 HD
HETATM   18  O   UNL     1      23.390  44.129  46.061  1.00  0.00    -0.271 OA
BRANCH  16  19
HETATM   19  C   UNL     1      24.938  44.132  49.309  1.00  0.00     0.068 A 
HETATM   20  C   UNL     1      25.532  45.251  49.924  1.00  0.00     0.097 A 
HETATM   21  C   UNL     1      25.905  45.181  51.279  1.00  0.00     0.075 A 
HETATM   22  C   UNL     1      25.745  44.002  52.008  1.00  0.00     0.070 A 
HETATM   23  C   UNL     1      25.166  42.896  51.401  1.00  0.00     0.039 A 
HETATM   24  C   UNL     1      24.782  42.956  50.061  1.00  0.00     0.035 A 
BRANCH  20  25
HETATM   25  O   UNL     1      25.780  46.354  49.154  1.00  0.00    -0.354 OA
HETATM   26  C   UNL     1      25.444  47.631  49.697  1.00  0.00     0.210 C 
ENDBRANCH  20  25
BRANCH  22  27
HETATM   27  O   UNL     1      26.093  43.840  53.319  1.00  0.00    -0.356 OA
HETATM   28  C   UNL     1      25.168  44.362  54.269  1.00  0.00     0.210 C 
ENDBRANCH  22  27
ENDBRANCH  16  19
ENDBRANCH  14  15
ENDBRANCH   1  14
BRANCH   7  29
HETATM   29  C   UNL     1      17.486  50.647  49.238  1.00  0.00    -0.002 A 
HETATM   30  C   UNL     1      16.332  50.517  48.450  1.00  0.00     0.016 A 
HETATM   31  C   UNL     1      15.447  51.590  48.306  1.00  0.00     0.024 A 
HETATM   32  C   UNL     1      15.717  52.798  48.944  1.00  0.00     0.034 A 
HETATM   33 CL   UNL     1      14.629  54.118  48.771  1.00  0.00    -0.084 Cl
HETATM   34  C   UNL     1      16.865  52.941  49.721  1.00  0.00     0.024 A 
HETATM   35  C   UNL     1      17.751  51.866  49.870  1.00  0.00     0.016 A 
ENDBRANCH   7  29
TORSDOF 6
ENDMDL
MODEL 10
REMARK VINA RESULT:      -8.0      3.696      9.680
REMARK  6 active torsions:
REMARK  status: ('A' for Active; 'I' for Inactive)
REMARK    1  A    between atoms: O_2  and  C_3 
REMARK    2  A    between atoms: C_5  and  O_6 
REMARK    3  A    between atoms: C_8  and  N_9 
REMARK       I    between atoms: N_9  and  C_10 
REMARK    4  A    between atoms: C_10  and  C_11 
REMARK    5  A    between atoms: C_11  and  N_12 
REMARK    6  A    between atoms: C_18  and  C_19 
ROOT
HETATM    1  N   UNL     1      23.353  43.994  49.090  1.00  0.00    -0.063 N 
HETATM    2  H   UNL     1      24.084  43.610  48.477  1.00  0.00     0.280 HD
HETATM    3  C   UNL     1      23.864  45.311  49.624  1.00  0.00     0.240 C 
HETATM    4  C   UNL     1      25.188  45.083  50.323  1.00  0.00     0.083 C 
HETATM    5  C   UNL     1      25.078  44.029  51.431  1.00  0.00     0.131 A 
HETATM    6  N   UNL     1      26.468  43.714  51.844  1.00  0.00    -0.251 NA
HETATM    7  C   UNL     1      26.593  44.100  53.087  1.00  0.00     0.132 A 
HETATM    8  C   UNL     1      25.300  44.660  53.632  1.00  0.00     0.272 A 
HETATM    9  O   UNL     1      25.093  45.132  54.722  1.00  0.00    -0.266 OA
HETATM   10  N   UNL     1      24.424  44.534  52.596  1.00  0.00    -0.327 N 
HETATM   11  C   UNL     1      24.433  42.736  50.920  1.00  0.00     0.083 C 
HETATM   12  C   UNL     1      23.121  42.993  50.193  1.00  0.00     0.240 C 
HETATM   13  H   UNL     1      23.483  44.899  52.688  1.00  0.00     0.165 HD
ENDROOT
BRANCH   1  14
HETATM   14  C   UNL     1      22.131  44.185  48.148  1.00  0.00     0.337 C 
BRANCH  14  15
HETATM   15  C   UNL     1      22.334  45.175  47.000  1.00  0.00     0.248 C 
HETATM   16  N   UNL     1      21.972  46.484  47.093  1.00  0.00    -0.323 N 
HETATM   17  H   UNL     1      22.386  47.026  46.340  1.00  0.00     0.169 HD
HETATM   18  O   UNL     1      22.946  44.825  45.983  1.00  0.00    -0.271 OA
BRANCH  16  19
HETATM   19  C   UNL     1      21.148  47.227  47.969  1.00  0.00     0.068 A 
HETATM   20  C   UNL     1      19.782  47.013  48.233  1.00  0.00     0.097 A 
HETATM   21  C   UNL     1      19.100  47.880  49.108  1.00  0.00     0.075 A 
HETATM   22  C   UNL     1      19.744  48.980  49.675  1.00  0.00     0.070 A 
HETATM   23  C   UNL     1      21.089  49.197  49.409  1.00  0.00     0.039 A 
HETATM   24  C   UNL     1      21.779  48.339  48.552  1.00  0.00     0.035 A 
BRANCH  20  25
HETATM   25  O   UNL     1      19.150  45.994  47.575  1.00  0.00    -0.354 OA
HETATM   26  C   UNL     1      17.754  45.813  47.817  1.00  0.00     0.210 C 
ENDBRANCH  20  25
BRANCH  22  27
HETATM   27  O   UNL     1      19.158  49.880  50.519  1.00  0.00    -0.356 OA
HETATM   28  C   UNL     1      18.795  51.127  49.932  1.00  0.00     0.210 C 
ENDBRANCH  22  27
ENDBRANCH  16  19
ENDBRANCH  14  15
ENDBRANCH   1  14
BRANCH   7  29
HETATM   29  C   UNL     1      27.858  44.017  53.841  1.00  0.00    -0.002 A 
HETATM   30  C   UNL     1      28.203  45.089  54.680  1.00  0.00     0.016 A 
HETATM   31  C   UNL     1      29.381  45.051  55.432  1.00  0.00     0.024 A 
HETATM   32  C   UNL     1      30.221  43.945  55.342  1.00  0.00     0.034 A 
HETATM   33 CL   UNL     1      31.670  43.895  56.268  1.00  0.00    -0.084 Cl
HETATM   34  C   UNL     1      29.894  42.879  54.506  1.00  0.00     0.024 A 
HETATM   35  C   UNL     1      28.713  42.914  53.755  1.00  0.00     0.016 A 
ENDBRANCH   7  29
TORSDOF 6
ENDMDL
