MODEL 1
REMARK VINA RESULT:      -8.1      0.000      0.000
REMARK  4 active torsions:
REMARK  status: ('A' for Active; 'I' for Inactive)
REMARK    1  A    between atoms: C_3  and  N_4 
REMARK       I    between atoms: N_4  and  C_5 
REMARK    2  A    between atoms: C_5  and  C_6 
REMARK    3  A    between atoms: C_7  and  C_8 
REMARK    4  A    between atoms: C_15  and  C_16 
ROOT
HETATM    1  C   UNL     1      27.743  47.135  55.132  1.00  0.00     0.003 A 
HETATM    2  C   UNL     1      27.115  46.468  54.079  1.00  0.00     0.029 A 
HETATM    3  C   UNL     1      27.491  45.170  53.743  1.00  0.00     0.035 A 
HETATM    4  C   UNL     1      28.500  44.541  54.491  1.00  0.00     0.043 A 
HETATM    5  C   UNL     1      29.149  45.200  55.549  1.00  0.00    -0.006 A 
HETATM    6  C   UNL     1      28.758  46.508  55.858  1.00  0.00     0.014 A 
ENDROOT
BRANCH   3   7
HETATM    7  N   UNL     1      26.932  44.443  52.670  1.00  0.00    -0.324 N 
HETATM    8  C   UNL     1      25.623  44.027  52.539  1.00  0.00     0.245 C 
HETATM    9  O   UNL     1      24.695  44.178  53.319  1.00  0.00    -0.268 OA
HETATM   10  H   UNL     1      27.558  44.217  51.909  1.00  0.00     0.169 HD
BRANCH   8  11
HETATM   11  C   UNL     1      25.382  43.428  51.201  1.00  0.00     0.077 C 
HETATM   12  C   UNL     1      25.322  44.114  50.051  1.00  0.00     0.042 C 
BRANCH  12  13
HETATM   13  C   UNL     1      25.359  45.531  49.967  1.00  0.00     0.075 A 
HETATM   14  O   UNL     1      26.513  46.281  50.029  1.00  0.00    -0.323 OA
HETATM   15  C   UNL     1      26.178  47.591  49.937  1.00  0.00     0.142 A 
HETATM   16  C   UNL     1      24.819  47.731  49.831  1.00  0.00     0.027 A 
HETATM   17  C   UNL     1      24.293  46.417  49.861  1.00  0.00     0.039 A 
ENDBRANCH  12  13
ENDBRANCH   8  11
ENDBRANCH   3   7
BRANCH   5  18
HETATM   18  C   UNL     1      30.225  44.534  56.286  1.00  0.00     0.061 A 
HETATM   19  N   UNL     1      30.694  44.950  57.509  1.00  0.00    -0.278 N 
HETATM   20  H   UNL     1      30.367  45.733  58.064  1.00  0.00     0.189 HD
HETATM   21  N   UNL     1      31.694  44.201  58.003  1.00  0.00    -0.187 NA
HETATM   22  C   UNL     1      31.870  43.263  57.073  1.00  0.00     0.141 A 
HETATM   23  C   UNL     1      30.984  43.415  55.992  1.00  0.00     0.053 A 
ENDBRANCH   5  18
TORSDOF 4
ENDMDL
MODEL 2
REMARK VINA RESULT:      -7.8      5.101      7.633
REMARK  4 active torsions:
REMARK  status: ('A' for Active; 'I' for Inactive)
REMARK    1  A    between atoms: C_3  and  N_4 
REMARK       I    between atoms: N_4  and  C_5 
REMARK    2  A    between atoms: C_5  and  C_6 
REMARK    3  A    between atoms: C_7  and  C_8 
REMARK    4  A    between atoms: C_15  and  C_16 
ROOT
HETATM    1  C   UNL     1      26.853  48.850  49.005  1.00  0.00     0.003 A 
HETATM    2  C   UNL     1      25.746  49.594  48.593  1.00  0.00     0.029 A 
HETATM    3  C   UNL     1      24.457  49.179  48.921  1.00  0.00     0.035 A 
HETATM    4  C   UNL     1      24.294  48.011  49.683  1.00  0.00     0.043 A 
HETATM    5  C   UNL     1      25.396  47.245  50.099  1.00  0.00    -0.006 A 
HETATM    6  C   UNL     1      26.679  47.680  49.747  1.00  0.00     0.014 A 
ENDROOT
BRANCH   3   7
HETATM    7  N   UNL     1      23.287  49.854  48.511  1.00  0.00    -0.324 N 
HETATM    8  C   UNL     1      22.519  50.720  49.261  1.00  0.00     0.245 C 
HETATM    9  O   UNL     1      22.674  51.061  50.425  1.00  0.00    -0.268 OA
HETATM   10  H   UNL     1      22.991  49.696  47.557  1.00  0.00     0.169 HD
BRANCH   8  11
HETATM   11  C   UNL     1      21.460  51.351  48.435  1.00  0.00     0.077 C 
HETATM   12  C   UNL     1      20.160  51.026  48.472  1.00  0.00     0.042 C 
BRANCH  12  13
HETATM   13  C   UNL     1      19.631  49.942  49.222  1.00  0.00     0.075 A 
HETATM   14  O   UNL     1      19.502  48.658  48.741  1.00  0.00    -0.323 OA
HETATM   15  C   UNL     1      18.947  47.892  49.711  1.00  0.00     0.142 A 
HETATM   16  C   UNL     1      18.686  48.645  50.826  1.00  0.00     0.027 A 
HETATM   17  C   UNL     1      19.113  49.958  50.512  1.00  0.00     0.039 A 
ENDBRANCH  12  13
ENDBRANCH   8  11
ENDBRANCH   3   7
BRANCH   5  18
HETATM   18  C   UNL     1      25.193  46.010  50.859  1.00  0.00     0.061 A 
HETATM   19  N   UNL     1      24.012  45.308  50.888  1.00  0.00    -0.278 N 
HETATM   20  H   UNL     1      23.152  45.523  50.397  1.00  0.00     0.189 HD
HETATM   21  N   UNL     1      24.039  44.208  51.660  1.00  0.00    -0.187 NA
HETATM   22  C   UNL     1      25.284  44.193  52.136  1.00  0.00     0.141 A 
HETATM   23  C   UNL     1      26.045  45.279  51.669  1.00  0.00     0.053 A 
ENDBRANCH   5  18
TORSDOF 4
ENDMDL
MODEL 3
REMARK VINA RESULT:      -7.8      2.800      4.392
REMARK  4 active torsions:
REMARK  status: ('A' for Active; 'I' for Inactive)
REMARK    1  A    between atoms: C_3  and  N_4 
REMARK       I    between atoms: N_4  and  C_5 
REMARK    2  A    between atoms: C_5  and  C_6 
REMARK    3  A    between atoms: C_7  and  C_8 
REMARK    4  A    between atoms: C_15  and  C_16 
ROOT
HETATM    1  C   UNL     1      30.640  43.971  55.654  1.00  0.00     0.003 A 
HETATM    2  C   UNL     1      30.585  43.025  54.628  1.00  0.00     0.029 A 
HETATM    3  C   UNL     1      29.597  43.104  53.650  1.00  0.00     0.035 A 
HETATM    4  C   UNL     1      28.670  44.158  53.705  1.00  0.00     0.043 A 
HETATM    5  C   UNL     1      28.705  45.114  54.735  1.00  0.00    -0.006 A 
HETATM    6  C   UNL     1      29.703  45.004  55.711  1.00  0.00     0.014 A 
ENDROOT
BRANCH   3   7
HETATM    7  N   UNL     1      29.451  42.168  52.604  1.00  0.00    -0.324 N 
HETATM    8  C   UNL     1      28.534  41.140  52.528  1.00  0.00     0.245 C 
HETATM    9  O   UNL     1      27.685  40.816  53.345  1.00  0.00    -0.268 OA
HETATM   10  H   UNL     1      30.079  42.274  51.818  1.00  0.00     0.169 HD
BRANCH   8  11
HETATM   11  C   UNL     1      28.587  40.470  51.204  1.00  0.00     0.077 C 
HETATM   12  C   UNL     1      27.940  40.883  50.106  1.00  0.00     0.042 C 
BRANCH  12  13
HETATM   13  C   UNL     1      27.009  41.956  50.087  1.00  0.00     0.075 A 
HETATM   14  O   UNL     1      27.278  43.205  49.574  1.00  0.00    -0.323 OA
HETATM   15  C   UNL     1      26.180  43.981  49.738  1.00  0.00     0.142 A 
HETATM   16  C   UNL     1      25.186  43.278  50.368  1.00  0.00     0.027 A 
HETATM   17  C   UNL     1      25.718  41.987  50.601  1.00  0.00     0.039 A 
ENDBRANCH  12  13
ENDBRANCH   8  11
ENDBRANCH   3   7
BRANCH   5  18
HETATM   18  C   UNL     1      27.702  46.179  54.789  1.00  0.00     0.061 A 
HETATM   19  N   UNL     1      26.475  46.114  54.172  1.00  0.00    -0.278 N 
HETATM   20  H   UNL     1      26.095  45.348  53.629  1.00  0.00     0.189 HD
HETATM   21  N   UNL     1      25.712  47.207  54.340  1.00  0.00    -0.187 NA
HETATM   22  C   UNL     1      26.466  48.000  55.100  1.00  0.00     0.141 A 
HETATM   23  C   UNL     1      27.704  47.414  55.415  1.00  0.00     0.053 A 
ENDBRANCH   5  18
TORSDOF 4
ENDMDL
MODEL 4
REMARK VINA RESULT:      -7.7      1.725      2.551
REMARK  4 active torsions:
REMARK  status: ('A' for Active; 'I' for Inactive)
REMARK    1  A    between atoms: C_3  and  N_4 
REMARK       I    between atoms: N_4  and  C_5 
REMARK    2  A    between atoms: C_5  and  C_6 
REMARK    3  A    between atoms: C_7  and  C_8 
REMARK    4  A    between atoms: C_15  and  C_16 
ROOT
HETATM    1  C   UNL     1      30.236  42.646  53.243  1.00  0.00     0.003 A 
HETATM    2  C   UNL     1      29.000  43.016  52.708  1.00  0.00     0.029 A 
HETATM    3  C   UNL     1      28.184  43.921  53.382  1.00  0.00     0.035 A 
HETATM    4  C   UNL     1      28.631  44.463  54.598  1.00  0.00     0.043 A 
HETATM    5  C   UNL     1      29.868  44.095  55.155  1.00  0.00    -0.006 A 
HETATM    6  C   UNL     1      30.664  43.177  54.462  1.00  0.00     0.014 A 
ENDROOT
BRANCH   3   7
HETATM    7  N   UNL     1      26.908  44.316  52.927  1.00  0.00    -0.324 N 
HETATM    8  C   UNL     1      26.349  45.575  53.007  1.00  0.00     0.245 C 
HETATM    9  O   UNL     1      26.822  46.589  53.500  1.00  0.00    -0.268 OA
HETATM   10  H   UNL     1      26.351  43.601  52.480  1.00  0.00     0.169 HD
BRANCH   8  11
HETATM   11  C   UNL     1      25.056  45.635  52.279  1.00  0.00     0.077 C 
HETATM   12  C   UNL     1      24.883  46.172  51.063  1.00  0.00     0.042 C 
BRANCH  12  13
HETATM   13  C   UNL     1      25.893  46.872  50.351  1.00  0.00     0.075 A 
HETATM   14  O   UNL     1      25.956  48.244  50.244  1.00  0.00    -0.323 OA
HETATM   15  C   UNL     1      27.030  48.564  49.482  1.00  0.00     0.142 A 
HETATM   16  C   UNL     1      27.675  47.431  49.062  1.00  0.00     0.027 A 
HETATM   17  C   UNL     1      26.945  46.348  49.608  1.00  0.00     0.039 A 
ENDBRANCH  12  13
ENDBRANCH   8  11
ENDBRANCH   3   7
BRANCH   5  18
HETATM   18  C   UNL     1      30.291  44.647  56.444  1.00  0.00     0.061 A 
HETATM   19  N   UNL     1      31.204  44.046  57.278  1.00  0.00    -0.278 N 
HETATM   20  H   UNL     1      31.708  43.181  57.123  1.00  0.00     0.189 HD
HETATM   21  N   UNL     1      31.439  44.717  58.418  1.00  0.00    -0.187 NA
HETATM   22  C   UNL     1      30.662  45.794  58.312  1.00  0.00     0.141 A 
HETATM   23  C   UNL     1      29.934  45.808  57.109  1.00  0.00     0.053 A 
ENDBRANCH   5  18
TORSDOF 4
ENDMDL
MODEL 5
REMARK VINA RESULT:      -7.7      1.780      2.960
REMARK  4 active torsions:
REMARK  status: ('A' for Active; 'I' for Inactive)
REMARK    1  A    between atoms: C_3  and  N_4 
REMARK       I    between atoms: N_4  and  C_5 
REMARK    2  A    between atoms: C_5  and  C_6 
REMARK    3  A    between atoms: C_7  and  C_8 
REMARK    4  A    between atoms: C_15  and  C_16 
ROOT
HETATM    1  C   UNL     1      30.243  42.558  53.290  1.00  0.00     0.003 A 
HETATM    2  C   UNL     1      29.112  43.056  52.639  1.00  0.00     0.029 A 
HETATM    3  C   UNL     1      28.367  44.085  53.211  1.00  0.00     0.035 A 
HETATM    4  C   UNL     1      28.781  44.619  54.442  1.00  0.00     0.043 A 
HETATM    5  C   UNL     1      29.912  44.124  55.114  1.00  0.00    -0.006 A 
HETATM    6  C   UNL     1      30.636  43.084  54.522  1.00  0.00     0.014 A 
ENDROOT
BRANCH   3   7
HETATM    7  N   UNL     1      27.193  44.617  52.636  1.00  0.00    -0.324 N 
HETATM    8  C   UNL     1      25.910  44.533  53.136  1.00  0.00     0.245 C 
HETATM    9  O   UNL     1      25.523  43.973  54.151  1.00  0.00    -0.268 OA
HETATM   10  H   UNL     1      27.310  45.127  51.772  1.00  0.00     0.169 HD
BRANCH   8  11
HETATM   11  C   UNL     1      24.967  45.351  52.331  1.00  0.00     0.077 C 
HETATM   12  C   UNL     1      24.481  45.006  51.131  1.00  0.00     0.042 C 
BRANCH  12  13
HETATM   13  C   UNL     1      24.899  43.861  50.402  1.00  0.00     0.075 A 
HETATM   14  O   UNL     1      26.091  43.771  49.717  1.00  0.00    -0.323 OA
HETATM   15  C   UNL     1      26.153  42.554  49.125  1.00  0.00     0.142 A 
HETATM   16  C   UNL     1      25.017  41.834  49.387  1.00  0.00     0.027 A 
HETATM   17  C   UNL     1      24.210  42.671  50.194  1.00  0.00     0.039 A 
ENDBRANCH  12  13
ENDBRANCH   8  11
ENDBRANCH   3   7
BRANCH   5  18
HETATM   18  C   UNL     1      30.298  44.675  56.416  1.00  0.00     0.061 A 
HETATM   19  N   UNL     1      31.213  44.091  57.258  1.00  0.00    -0.278 N 
HETATM   20  H   UNL     1      31.744  43.243  57.103  1.00  0.00     0.189 HD
HETATM   21  N   UNL     1      31.410  44.757  58.409  1.00  0.00    -0.187 NA
HETATM   22  C   UNL     1      30.604  45.813  58.300  1.00  0.00     0.141 A 
HETATM   23  C   UNL     1      29.897  45.818  57.085  1.00  0.00     0.053 A 
ENDBRANCH   5  18
TORSDOF 4
ENDMDL
MODEL 6
REMARK VINA RESULT:      -7.6      1.674      2.970
REMARK  4 active torsions:
REMARK  status: ('A' for Active; 'I' for Inactive)
REMARK    1  A    between atoms: C_3  and  N_4 
REMARK       I    between atoms: N_4  and  C_5 
REMARK    2  A    between atoms: C_5  and  C_6 
REMARK    3  A    between atoms: C_7  and  C_8 
REMARK    4  A    between atoms: C_15  and  C_16 
ROOT
HETATM    1  C   UNL     1      26.965  47.951  55.441  1.00  0.00     0.003 A 
HETATM    2  C   UNL     1      26.063  47.788  54.388  1.00  0.00     0.029 A 
HETATM    3  C   UNL     1      26.140  46.669  53.563  1.00  0.00     0.035 A 
HETATM    4  C   UNL     1      27.127  45.704  53.818  1.00  0.00     0.043 A 
HETATM    5  C   UNL     1      28.048  45.856  54.868  1.00  0.00    -0.006 A 
HETATM    6  C   UNL     1      27.955  46.995  55.676  1.00  0.00     0.014 A 
ENDROOT
BRANCH   3   7
HETATM    7  N   UNL     1      25.291  46.450  52.457  1.00  0.00    -0.324 N 
HETATM    8  C   UNL     1      25.355  47.063  51.223  1.00  0.00     0.245 C 
HETATM    9  O   UNL     1      26.133  47.926  50.841  1.00  0.00    -0.268 OA
HETATM   10  H   UNL     1      24.566  45.755  52.580  1.00  0.00     0.169 HD
BRANCH   8  11
HETATM   11  C   UNL     1      24.392  46.455  50.270  1.00  0.00     0.077 C 
HETATM   12  C   UNL     1      24.379  45.165  49.909  1.00  0.00     0.042 C 
BRANCH  12  13
HETATM   13  C   UNL     1      25.365  44.220  50.295  1.00  0.00     0.075 A 
HETATM   14  O   UNL     1      25.332  43.501  51.470  1.00  0.00    -0.323 OA
HETATM   15  C   UNL     1      26.433  42.714  51.522  1.00  0.00     0.142 A 
HETATM   16  C   UNL     1      27.213  42.906  50.411  1.00  0.00     0.027 A 
HETATM   17  C   UNL     1      26.538  43.876  49.632  1.00  0.00     0.039 A 
ENDBRANCH  12  13
ENDBRANCH   8  11
ENDBRANCH   3   7
BRANCH   5  18
HETATM   18  C   UNL     1      29.093  44.852  55.087  1.00  0.00     0.061 A 
HETATM   19  N   UNL     1      29.201  43.684  54.369  1.00  0.00    -0.278 N 
HETATM   20  H   UNL     1      28.612  43.369  53.608  1.00  0.00     0.189 HD
HETATM   21  N   UNL     1      30.226  42.899  54.741  1.00  0.00    -0.187 NA
HETATM   22  C   UNL     1      30.806  43.588  55.724  1.00  0.00     0.141 A 
HETATM   23  C   UNL     1      30.152  44.807  55.976  1.00  0.00     0.053 A 
ENDBRANCH   5  18
TORSDOF 4
ENDMDL
MODEL 7
REMARK VINA RESULT:      -7.4      1.952      3.530
REMARK  4 active torsions:
REMARK  status: ('A' for Active; 'I' for Inactive)
REMARK    1  A    between atoms: C_3  and  N_4 
REMARK       I    between atoms: N_4  and  C_5 
REMARK    2  A    between atoms: C_5  and  C_6 
REMARK    3  A    between atoms: C_7  and  C_8 
REMARK    4  A    between atoms: C_15  and  C_16 
ROOT
HETATM    1  C   UNL     1      29.213  41.586  52.994  1.00  0.00     0.003 A 
HETATM    2  C   UNL     1      28.301  42.434  52.363  1.00  0.00     0.029 A 
HETATM    3  C   UNL     1      28.068  43.713  52.862  1.00  0.00     0.035 A 
HETATM    4  C   UNL     1      28.777  44.139  53.997  1.00  0.00     0.043 A 
HETATM    5  C   UNL     1      29.693  43.296  54.649  1.00  0.00    -0.006 A 
HETATM    6  C   UNL     1      29.900  42.011  54.133  1.00  0.00     0.014 A 
ENDROOT
BRANCH   3   7
HETATM    7  N   UNL     1      27.136  44.615  52.305  1.00  0.00    -0.324 N 
HETATM    8  C   UNL     1      25.788  44.699  52.587  1.00  0.00     0.245 C 
HETATM    9  O   UNL     1      25.125  44.009  53.348  1.00  0.00    -0.268 OA
HETATM   10  H   UNL     1      27.501  45.281  51.639  1.00  0.00     0.169 HD
BRANCH   8  11
HETATM   11  C   UNL     1      25.173  45.875  51.921  1.00  0.00     0.077 C 
HETATM   12  C   UNL     1      25.308  47.146  52.326  1.00  0.00     0.042 C 
BRANCH  12  13
HETATM   13  C   UNL     1      25.962  47.534  53.525  1.00  0.00     0.075 A 
HETATM   14  O   UNL     1      25.363  48.253  54.536  1.00  0.00    -0.323 OA
HETATM   15  C   UNL     1      26.279  48.463  55.512  1.00  0.00     0.142 A 
HETATM   16  C   UNL     1      27.484  47.912  55.165  1.00  0.00     0.027 A 
HETATM   17  C   UNL     1      27.287  47.327  53.891  1.00  0.00     0.039 A 
ENDBRANCH  12  13
ENDBRANCH   8  11
ENDBRANCH   3   7
BRANCH   5  18
HETATM   18  C   UNL     1      30.388  43.752  55.855  1.00  0.00     0.061 A 
HETATM   19  N   UNL     1      31.347  43.021  56.515  1.00  0.00    -0.278 N 
HETATM   20  H   UNL     1      31.710  42.108  56.266  1.00  0.00     0.189 HD
HETATM   21  N   UNL     1      31.849  43.622  57.606  1.00  0.00    -0.187 NA
HETATM   22  C   UNL     1      31.201  44.786  57.647  1.00  0.00     0.141 A 
HETATM   23  C   UNL     1      30.291  44.924  56.584  1.00  0.00     0.053 A 
ENDBRANCH   5  18
TORSDOF 4
ENDMDL
MODEL 8
REMARK VINA RESULT:      -7.4      2.117      2.705
REMARK  4 active torsions:
REMARK  status: ('A' for Active; 'I' for Inactive)
REMARK    1  A    between atoms: C_3  and  N_4 
REMARK       I    between atoms: N_4  and  C_5 
REMARK    2  A    between atoms: C_5  and  C_6 
REMARK    3  A    between atoms: C_7  and  C_8 
REMARK    4  A    between atoms: C_15  and  C_16 
ROOT
HETATM    1  C   UNL     1      27.326  45.891  54.166  1.00  0.00     0.003 A 
HETATM    2  C   UNL     1      27.389  44.945  53.142  1.00  0.00     0.029 A 
HETATM    3  C   UNL     1      28.332  43.920  53.187  1.00  0.00     0.035 A 
HETATM    4  C   UNL     1      29.204  43.848  54.285  1.00  0.00     0.043 A 
HETATM    5  C   UNL     1      29.160  44.797  55.321  1.00  0.00    -0.006 A 
HETATM    6  C   UNL     1      28.210  45.822  55.245  1.00  0.00     0.014 A 
ENDROOT
BRANCH   3   7
HETATM    7  N   UNL     1      28.484  42.949  52.175  1.00  0.00    -0.324 N 
HETATM    8  C   UNL     1      28.129  41.617  52.239  1.00  0.00     0.245 C 
HETATM    9  O   UNL     1      27.638  41.004  53.175  1.00  0.00    -0.268 OA
HETATM   10  H   UNL     1      28.882  43.270  51.303  1.00  0.00     0.169 HD
BRANCH   8  11
HETATM   11  C   UNL     1      28.299  40.953  50.921  1.00  0.00     0.077 C 
HETATM   12  C   UNL     1      27.723  41.352  49.779  1.00  0.00     0.042 C 
BRANCH  12  13
HETATM   13  C   UNL     1      26.767  42.398  49.693  1.00  0.00     0.075 A 
HETATM   14  O   UNL     1      27.087  43.729  49.537  1.00  0.00    -0.323 OA
HETATM   15  C   UNL     1      25.937  44.445  49.513  1.00  0.00     0.142 A 
HETATM   16  C   UNL     1      24.855  43.620  49.669  1.00  0.00     0.027 A 
HETATM   17  C   UNL     1      25.383  42.313  49.794  1.00  0.00     0.039 A 
ENDBRANCH  12  13
ENDBRANCH   8  11
ENDBRANCH   3   7
BRANCH   5  18
HETATM   18  C   UNL     1      30.108  44.720  56.435  1.00  0.00     0.061 A 
HETATM   19  N   UNL     1      31.109  43.782  56.531  1.00  0.00    -0.278 N 
HETATM   20  H   UNL     1      31.338  43.050  55.869  1.00  0.00     0.189 HD
HETATM   21  N   UNL     1      31.858  43.884  57.642  1.00  0.00    -0.187 NA
HETATM   22  C   UNL     1      31.332  44.930  58.278  1.00  0.00     0.141 A 
HETATM   23  C   UNL     1      30.252  45.492  57.575  1.00  0.00     0.053 A 
ENDBRANCH   5  18
TORSDOF 4
ENDMDL
MODEL 9
REMARK VINA RESULT:      -7.3      2.350      3.377
REMARK  4 active torsions:
REMARK  status: ('A' for Active; 'I' for Inactive)
REMARK    1  A    between atoms: C_3  and  N_4 
REMARK       I    between atoms: N_4  and  C_5 
REMARK    2  A    between atoms: C_5  and  C_6 
REMARK    3  A    between atoms: C_7  and  C_8 
REMARK    4  A    between atoms: C_15  and  C_16 
ROOT
HETATM    1  C   UNL     1      26.719  47.576  54.883  1.00  0.00     0.003 A 
HETATM    2  C   UNL     1      25.787  47.523  53.844  1.00  0.00     0.029 A 
HETATM    3  C   UNL     1      25.827  46.487  52.915  1.00  0.00     0.035 A 
HETATM    4  C   UNL     1      26.810  45.493  53.049  1.00  0.00     0.043 A 
HETATM    5  C   UNL     1      27.761  45.535  54.083  1.00  0.00    -0.006 A 
HETATM    6  C   UNL     1      27.703  46.593  54.998  1.00  0.00     0.014 A 
ENDROOT
BRANCH   3   7
HETATM    7  N   UNL     1      24.946  46.383  51.817  1.00  0.00    -0.324 N 
HETATM    8  C   UNL     1      24.971  47.127  50.656  1.00  0.00     0.245 C 
HETATM    9  O   UNL     1      25.733  48.031  50.347  1.00  0.00    -0.268 OA
HETATM   10  H   UNL     1      24.229  45.674  51.885  1.00  0.00     0.169 HD
BRANCH   8  11
HETATM   11  C   UNL     1      23.982  46.618  49.671  1.00  0.00     0.077 C 
HETATM   12  C   UNL     1      23.246  47.385  48.855  1.00  0.00     0.042 C 
BRANCH  12  13
HETATM   13  C   UNL     1      23.220  48.804  48.904  1.00  0.00     0.075 A 
HETATM   14  O   UNL     1      22.621  49.533  49.907  1.00  0.00    -0.323 OA
HETATM   15  C   UNL     1      22.770  50.850  49.625  1.00  0.00     0.142 A 
HETATM   16  C   UNL     1      23.442  51.015  48.443  1.00  0.00     0.027 A 
HETATM   17  C   UNL     1      23.722  49.709  47.975  1.00  0.00     0.039 A 
ENDBRANCH  12  13
ENDBRANCH   8  11
ENDBRANCH   3   7
BRANCH   5  18
HETATM   18  C   UNL     1      28.798  44.505  54.175  1.00  0.00     0.061 A 
HETATM   19  N   UNL     1      29.629  44.343  55.259  1.00  0.00    -0.278 N 
HETATM   20  H   UNL     1      29.634  44.877  56.120  1.00  0.00     0.189 HD
HETATM   21  N   UNL     1      30.518  43.344  55.130  1.00  0.00    -0.187 NA
HETATM   22  C   UNL     1      30.245  42.836  53.929  1.00  0.00     0.141 A 
HETATM   23  C   UNL     1      29.186  43.510  53.296  1.00  0.00     0.053 A 
ENDBRANCH   5  18
TORSDOF 4
ENDMDL
MODEL 10
REMARK VINA RESULT:      -7.3      4.021      5.952
REMARK  4 active torsions:
REMARK  status: ('A' for Active; 'I' for Inactive)
REMARK    1  A    between atoms: C_3  and  N_4 
REMARK       I    between atoms: N_4  and  C_5 
REMARK    2  A    between atoms: C_5  and  C_6 
REMARK    3  A    between atoms: C_7  and  C_8 
REMARK    4  A    between atoms: C_15  and  C_16 
ROOT
HETATM    1  C   UNL     1      29.867  42.705  54.139  1.00  0.00     0.003 A 
HETATM    2  C   UNL     1      29.145  41.857  53.297  1.00  0.00     0.029 A 
HETATM    3  C   UNL     1      27.890  42.234  52.826  1.00  0.00     0.035 A 
HETATM    4  C   UNL     1      27.372  43.485  53.200  1.00  0.00     0.043 A 
HETATM    5  C   UNL     1      28.081  44.348  54.052  1.00  0.00    -0.006 A 
HETATM    6  C   UNL     1      29.336  43.939  54.519  1.00  0.00     0.014 A 
ENDROOT
BRANCH   3   7
HETATM    7  N   UNL     1      27.083  41.418  52.004  1.00  0.00    -0.324 N 
HETATM    8  C   UNL     1      26.972  41.472  50.630  1.00  0.00     0.245 C 
HETATM    9  O   UNL     1      27.522  42.237  49.851  1.00  0.00    -0.268 OA
HETATM   10  H   UNL     1      26.539  40.708  52.475  1.00  0.00     0.169 HD
BRANCH   8  11
HETATM   11  C   UNL     1      26.146  40.351  50.114  1.00  0.00     0.077 C 
HETATM   12  C   UNL     1      26.613  39.135  49.796  1.00  0.00     0.042 C 
BRANCH  12  13
HETATM   13  C   UNL     1      27.990  38.787  49.792  1.00  0.00     0.075 A 
HETATM   14  O   UNL     1      28.791  38.786  50.912  1.00  0.00    -0.323 OA
HETATM   15  C   UNL     1      30.043  38.424  50.542  1.00  0.00     0.142 A 
HETATM   16  C   UNL     1      30.098  38.201  49.191  1.00  0.00     0.027 A 
HETATM   17  C   UNL     1      28.790  38.442  48.709  1.00  0.00     0.039 A 
ENDBRANCH  12  13
ENDBRANCH   8  11
ENDBRANCH   3   7
BRANCH   5  18
HETATM   18  C   UNL     1      27.499  45.630  54.457  1.00  0.00     0.061 A 
HETATM   19  N   UNL     1      26.199  45.998  54.208  1.00  0.00    -0.278 N 
HETATM   20  H   UNL     1      25.479  45.455  53.745  1.00  0.00     0.189 HD
HETATM   21  N   UNL     1      25.875  47.223  54.655  1.00  0.00    -0.187 NA
HETATM   22  C   UNL     1      27.001  47.656  55.222  1.00  0.00     0.141 A 
HETATM   23  C   UNL     1      28.037  46.710  55.135  1.00  0.00     0.053 A 
ENDBRANCH   5  18
TORSDOF 4
ENDMDL
