MODEL 1
REMARK VINA RESULT:      -7.9      0.000      0.000
REMARK  7 active torsions:
REMARK  status: ('A' for Active; 'I' for Inactive)
REMARK    1  A    between atoms: C_2  and  N_3 
REMARK       I    between atoms: N_3  and  C_4 
REMARK    2  A    between atoms: C_4  and  C_5 
REMARK    3  A    between atoms: N_8  and  C_10 
REMARK    4  A    between atoms: C_10  and  N_11 
REMARK    5  A    between atoms: C_13  and  C_14 
REMARK    6  A    between atoms: C_14  and  N_15 
REMARK    7  A    between atoms: N_22  and  C_23 
ROOT
HETATM    1  N   UNL     1      24.805  46.823  49.970  1.00  0.00    -0.216 N 
HETATM    2  N   UNL     1      24.683  48.163  49.655  1.00  0.00    -0.153 NA
HETATM    3  C   UNL     1      23.595  48.234  48.933  1.00  0.00     0.160 A 
HETATM    4  N   UNL     1      22.957  47.051  48.752  1.00  0.00    -0.272 N 
HETATM    5  C   UNL     1      23.740  46.099  49.401  1.00  0.00     0.204 A 
HETATM    6  S   UNL     1      23.499  44.467  49.631  1.00  0.00    -0.038 SA
ENDROOT
BRANCH   1   7
HETATM    7  C   UNL     1      25.992  46.299  50.629  1.00  0.00     0.388 C 
BRANCH   7   8
HETATM    8  N   UNL     1      25.729  45.959  52.070  1.00  0.00    -0.053 N 
HETATM    9  C   UNL     1      26.209  44.553  52.347  1.00  0.00     0.237 C 
HETATM   10  C   UNL     1      25.933  44.166  53.794  1.00  0.00     0.042 C 
HETATM   11  C   UNL     1      26.575  45.149  54.773  1.00  0.00     0.081 C 
HETATM   12  C   UNL     1      26.102  46.572  54.463  1.00  0.00     0.042 C 
HETATM   13  C   UNL     1      26.302  46.988  53.010  1.00  0.00     0.237 C 
HETATM   14  H   UNL     1      24.705  45.967  52.178  1.00  0.00     0.281 HD
BRANCH  11  15
HETATM   15  C   UNL     1      28.093  45.033  54.688  1.00  0.00     0.221 C 
HETATM   16  N   UNL     1      28.557  43.770  54.425  1.00  0.00    -0.361 N 
HETATM   17  H   UNL     1      27.944  42.973  54.551  1.00  0.00     0.162 HD
HETATM   18  O   UNL     1      28.812  46.028  54.735  1.00  0.00    -0.273 OA
BRANCH  16  19
HETATM   19  C   UNL     1      29.978  43.488  54.317  1.00  0.00     0.118 C 
HETATM   20  C   UNL     1      30.610  43.246  55.675  1.00  0.00     0.026 C 
ENDBRANCH  16  19
ENDBRANCH  11  15
ENDBRANCH   7   8
ENDBRANCH   1   7
BRANCH   3  21
HETATM   21  C   UNL     1      23.146  49.549  48.300  1.00  0.00     0.315 C 
BRANCH  21  22
HETATM   22  N   UNL     1      21.734  49.965  48.728  1.00  0.00    -0.064 N 
HETATM   23  H   UNL     1      21.267  49.097  49.032  1.00  0.00     0.280 HD
HETATM   24  C   UNL     1      21.732  50.907  49.913  1.00  0.00     0.235 C 
HETATM   25  C   UNL     1      20.296  51.129  50.370  1.00  0.00     0.028 C 
HETATM   26  C   UNL     1      19.424  51.665  49.240  1.00  0.00     0.003 C 
HETATM   27  C   UNL     1      19.505  50.772  48.007  1.00  0.00     0.028 C 
HETATM   28  C   UNL     1      20.942  50.534  47.569  1.00  0.00     0.235 C 
ENDBRANCH  21  22
ENDBRANCH   3  21
BRANCH   4  29
HETATM   29  C   UNL     1      21.736  46.844  48.069  1.00  0.00     0.043 A 
HETATM   30  C   UNL     1      21.718  46.545  46.701  1.00  0.00     0.030 A 
HETATM   31  C   UNL     1      20.507  46.359  46.029  1.00  0.00     0.002 A 
HETATM   32  C   UNL     1      19.302  46.466  46.717  1.00  0.00     0.000 A 
HETATM   33  C   UNL     1      19.304  46.753  48.078  1.00  0.00     0.002 A 
HETATM   34  C   UNL     1      20.514  46.941  48.752  1.00  0.00     0.030 A 
ENDBRANCH   4  29
TORSDOF 7
ENDMDL
MODEL 2
REMARK VINA RESULT:      -7.8      2.592      8.765
REMARK  7 active torsions:
REMARK  status: ('A' for Active; 'I' for Inactive)
REMARK    1  A    between atoms: C_2  and  N_3 
REMARK       I    between atoms: N_3  and  C_4 
REMARK    2  A    between atoms: C_4  and  C_5 
REMARK    3  A    between atoms: N_8  and  C_10 
REMARK    4  A    between atoms: C_10  and  N_11 
REMARK    5  A    between atoms: C_13  and  C_14 
REMARK    6  A    between atoms: C_14  and  N_15 
REMARK    7  A    between atoms: N_22  and  C_23 
ROOT
HETATM    1  N   UNL     1      24.297  44.216  50.908  1.00  0.00    -0.216 N 
HETATM    2  N   UNL     1      24.154  44.558  52.239  1.00  0.00    -0.153 NA
HETATM    3  C   UNL     1      25.237  44.103  52.815  1.00  0.00     0.160 A 
HETATM    4  N   UNL     1      26.113  43.498  51.975  1.00  0.00    -0.272 N 
HETATM    5  C   UNL     1      25.514  43.534  50.718  1.00  0.00     0.204 A 
HETATM    6  S   UNL     1      26.076  43.035  49.231  1.00  0.00    -0.038 SA
ENDROOT
BRANCH   1   7
HETATM    7  C   UNL     1      23.215  44.399  49.953  1.00  0.00     0.388 C 
BRANCH   7   8
HETATM    8  N   UNL     1      23.418  45.622  49.102  1.00  0.00    -0.053 N 
HETATM    9  C   UNL     1      22.164  45.891  48.304  1.00  0.00     0.237 C 
HETATM   10  C   UNL     1      22.346  47.111  47.410  1.00  0.00     0.042 C 
HETATM   11  C   UNL     1      22.736  48.348  48.218  1.00  0.00     0.081 C 
HETATM   12  C   UNL     1      23.992  48.053  49.042  1.00  0.00     0.042 C 
HETATM   13  C   UNL     1      23.882  46.806  49.912  1.00  0.00     0.237 C 
HETATM   14  H   UNL     1      24.167  45.381  48.438  1.00  0.00     0.281 HD
BRANCH  11  15
HETATM   15  C   UNL     1      21.568  48.765  49.106  1.00  0.00     0.221 C 
HETATM   16  N   UNL     1      21.670  50.028  49.629  1.00  0.00    -0.361 N 
HETATM   17  H   UNL     1      22.566  50.502  49.628  1.00  0.00     0.162 HD
HETATM   18  O   UNL     1      20.575  48.054  49.228  1.00  0.00    -0.273 OA
BRANCH  16  19
HETATM   19  C   UNL     1      20.645  50.576  50.500  1.00  0.00     0.118 C 
HETATM   20  C   UNL     1      19.674  51.462  49.741  1.00  0.00     0.026 C 
ENDBRANCH  16  19
ENDBRANCH  11  15
ENDBRANCH   7   8
ENDBRANCH   1   7
BRANCH   3  21
HETATM   21  C   UNL     1      25.433  44.198  54.326  1.00  0.00     0.315 C 
BRANCH  21  22
HETATM   22  N   UNL     1      26.122  45.498  54.756  1.00  0.00    -0.064 N 
HETATM   23  H   UNL     1      25.599  45.831  55.581  1.00  0.00     0.280 HD
HETATM   24  C   UNL     1      27.555  45.289  55.194  1.00  0.00     0.235 C 
HETATM   25  C   UNL     1      28.100  46.593  55.758  1.00  0.00     0.028 C 
HETATM   26  C   UNL     1      27.995  47.730  54.747  1.00  0.00     0.003 C 
HETATM   27  C   UNL     1      26.570  47.878  54.226  1.00  0.00     0.028 C 
HETATM   28  C   UNL     1      26.023  46.565  53.686  1.00  0.00     0.235 C 
ENDBRANCH  21  22
ENDBRANCH   3  21
BRANCH   4  29
HETATM   29  C   UNL     1      27.381  42.969  52.312  1.00  0.00     0.043 A 
HETATM   30  C   UNL     1      27.526  41.626  52.680  1.00  0.00     0.030 A 
HETATM   31  C   UNL     1      28.779  41.116  53.028  1.00  0.00     0.002 A 
HETATM   32  C   UNL     1      29.900  41.941  53.009  1.00  0.00     0.000 A 
HETATM   33  C   UNL     1      29.773  43.274  52.637  1.00  0.00     0.002 A 
HETATM   34  C   UNL     1      28.521  43.788  52.289  1.00  0.00     0.030 A 
ENDBRANCH   4  29
TORSDOF 7
ENDMDL
MODEL 3
REMARK VINA RESULT:      -7.6      2.581      4.595
REMARK  7 active torsions:
REMARK  status: ('A' for Active; 'I' for Inactive)
REMARK    1  A    between atoms: C_2  and  N_3 
REMARK       I    between atoms: N_3  and  C_4 
REMARK    2  A    between atoms: C_4  and  C_5 
REMARK    3  A    between atoms: N_8  and  C_10 
REMARK    4  A    between atoms: C_10  and  N_11 
REMARK    5  A    between atoms: C_13  and  C_14 
REMARK    6  A    between atoms: C_14  and  N_15 
REMARK    7  A    between atoms: N_22  and  C_23 
ROOT
HETATM    1  N   UNL     1      22.032  47.034  48.513  1.00  0.00    -0.216 N 
HETATM    2  N   UNL     1      20.780  46.471  48.665  1.00  0.00    -0.153 NA
HETATM    3  C   UNL     1      19.970  47.493  48.772  1.00  0.00     0.160 A 
HETATM    4  N   UNL     1      20.573  48.705  48.683  1.00  0.00    -0.272 N 
HETATM    5  C   UNL     1      21.932  48.439  48.537  1.00  0.00     0.204 A 
HETATM    6  S   UNL     1      23.222  49.465  48.300  1.00  0.00    -0.038 SA
ENDROOT
BRANCH   1   7
HETATM    7  C   UNL     1      23.240  46.223  48.531  1.00  0.00     0.388 C 
BRANCH   7   8
HETATM    8  N   UNL     1      23.918  46.256  49.873  1.00  0.00    -0.053 N 
HETATM    9  C   UNL     1      23.910  44.869  50.472  1.00  0.00     0.237 C 
HETATM   10  C   UNL     1      24.568  44.873  51.846  1.00  0.00     0.042 C 
HETATM   11  C   UNL     1      25.995  45.417  51.786  1.00  0.00     0.081 C 
HETATM   12  C   UNL     1      25.992  46.811  51.153  1.00  0.00     0.042 C 
HETATM   13  C   UNL     1      25.292  46.872  49.800  1.00  0.00     0.237 C 
HETATM   14  H   UNL     1      23.333  46.858  50.469  1.00  0.00     0.281 HD
BRANCH  11  15
HETATM   15  C   UNL     1      26.876  44.448  51.005  1.00  0.00     0.221 C 
HETATM   16  N   UNL     1      26.800  43.144  51.420  1.00  0.00    -0.361 N 
HETATM   17  H   UNL     1      26.400  42.926  52.326  1.00  0.00     0.162 HD
HETATM   18  O   UNL     1      27.502  44.814  50.014  1.00  0.00    -0.273 OA
BRANCH  16  19
HETATM   19  C   UNL     1      27.580  42.096  50.784  1.00  0.00     0.118 C 
HETATM   20  C   UNL     1      28.379  41.294  51.795  1.00  0.00     0.026 C 
ENDBRANCH  16  19
ENDBRANCH  11  15
ENDBRANCH   7   8
ENDBRANCH   1   7
BRANCH   3  21
HETATM   21  C   UNL     1      18.480  47.301  49.047  1.00  0.00     0.315 C 
BRANCH  21  22
HETATM   22  N   UNL     1      17.594  47.816  47.907  1.00  0.00    -0.064 N 
HETATM   23  H   UNL     1      18.201  48.420  47.332  1.00  0.00     0.280 HD
HETATM   24  C   UNL     1      17.088  46.709  47.008  1.00  0.00     0.235 C 
HETATM   25  C   UNL     1      16.364  47.325  45.819  1.00  0.00     0.028 C 
HETATM   26  C   UNL     1      15.224  48.233  46.265  1.00  0.00     0.003 C 
HETATM   27  C   UNL     1      15.710  49.288  47.252  1.00  0.00     0.028 C 
HETATM   28  C   UNL     1      16.454  48.668  48.426  1.00  0.00     0.235 C 
ENDBRANCH  21  22
ENDBRANCH   3  21
BRANCH   4  29
HETATM   29  C   UNL     1      19.939  49.969  48.706  1.00  0.00     0.043 A 
HETATM   30  C   UNL     1      19.664  50.615  49.918  1.00  0.00     0.030 A 
HETATM   31  C   UNL     1      19.022  51.855  49.933  1.00  0.00     0.002 A 
HETATM   32  C   UNL     1      18.651  52.465  48.739  1.00  0.00     0.000 A 
HETATM   33  C   UNL     1      18.925  51.841  47.527  1.00  0.00     0.002 A 
HETATM   34  C   UNL     1      19.566  50.599  47.509  1.00  0.00     0.030 A 
ENDBRANCH   4  29
TORSDOF 7
ENDMDL
MODEL 4
REMARK VINA RESULT:      -7.3     13.401     14.792
REMARK  7 active torsions:
REMARK  status: ('A' for Active; 'I' for Inactive)
REMARK    1  A    between atoms: C_2  and  N_3 
REMARK       I    between atoms: N_3  and  C_4 
REMARK    2  A    between atoms: C_4  and  C_5 
REMARK    3  A    between atoms: N_8  and  C_10 
REMARK    4  A    between atoms: C_10  and  N_11 
REMARK    5  A    between atoms: C_13  and  C_14 
REMARK    6  A    between atoms: C_14  and  N_15 
REMARK    7  A    between atoms: N_22  and  C_23 
ROOT
HETATM    1  N   UNL     1      34.479  51.239  41.365  1.00  0.00    -0.216 N 
HETATM    2  N   UNL     1      33.648  50.443  42.128  1.00  0.00    -0.153 NA
HETATM    3  C   UNL     1      32.443  50.713  41.696  1.00  0.00     0.160 A 
HETATM    4  N   UNL     1      32.394  51.615  40.684  1.00  0.00    -0.272 N 
HETATM    5  C   UNL     1      33.714  51.999  40.459  1.00  0.00     0.204 A 
HETATM    6  S   UNL     1      34.370  53.016  39.315  1.00  0.00    -0.038 SA
ENDROOT
BRANCH   1   7
HETATM    7  C   UNL     1      35.900  51.358  41.656  1.00  0.00     0.388 C 
BRANCH   7   8
HETATM    8  N   UNL     1      36.215  52.624  42.403  1.00  0.00    -0.053 N 
HETATM    9  C   UNL     1      36.551  52.289  43.837  1.00  0.00     0.237 C 
HETATM   10  C   UNL     1      36.851  53.554  44.630  1.00  0.00     0.042 C 
HETATM   11  C   UNL     1      37.983  54.362  43.995  1.00  0.00     0.081 C 
HETATM   12  C   UNL     1      37.641  54.672  42.535  1.00  0.00     0.042 C 
HETATM   13  C   UNL     1      37.275  53.442  41.711  1.00  0.00     0.237 C 
HETATM   14  H   UNL     1      35.344  53.173  42.406  1.00  0.00     0.281 HD
BRANCH  11  15
HETATM   15  C   UNL     1      39.290  53.586  44.112  1.00  0.00     0.221 C 
HETATM   16  N   UNL     1      39.514  53.024  45.341  1.00  0.00    -0.361 N 
HETATM   17  H   UNL     1      38.979  53.339  46.144  1.00  0.00     0.162 HD
HETATM   18  O   UNL     1      40.008  53.396  43.134  1.00  0.00    -0.273 OA
BRANCH  16  19
HETATM   19  C   UNL     1      40.715  52.256  45.620  1.00  0.00     0.118 C 
HETATM   20  C   UNL     1      40.507  50.773  45.378  1.00  0.00     0.026 C 
ENDBRANCH  16  19
ENDBRANCH  11  15
ENDBRANCH   7   8
ENDBRANCH   1   7
BRANCH   3  21
HETATM   21  C   UNL     1      31.208  50.098  42.349  1.00  0.00     0.315 C 
BRANCH  21  22
HETATM   22  N   UNL     1      30.402  49.216  41.388  1.00  0.00    -0.064 N 
HETATM   23  H   UNL     1      30.085  49.844  40.633  1.00  0.00     0.280 HD
HETATM   24  C   UNL     1      31.238  48.133  40.742  1.00  0.00     0.235 C 
HETATM   25  C   UNL     1      30.403  47.422  39.686  1.00  0.00     0.028 C 
HETATM   26  C   UNL     1      29.121  46.847  40.278  1.00  0.00     0.003 C 
HETATM   27  C   UNL     1      28.325  47.915  41.019  1.00  0.00     0.028 C 
HETATM   28  C   UNL     1      29.172  48.639  42.056  1.00  0.00     0.235 C 
ENDBRANCH  21  22
ENDBRANCH   3  21
BRANCH   4  29
HETATM   29  C   UNL     1      31.240  52.046  39.990  1.00  0.00     0.043 A 
HETATM   30  C   UNL     1      30.435  53.072  40.500  1.00  0.00     0.030 A 
HETATM   31  C   UNL     1      29.286  53.481  39.817  1.00  0.00     0.002 A 
HETATM   32  C   UNL     1      28.932  52.872  38.617  1.00  0.00     0.000 A 
HETATM   33  C   UNL     1      29.726  51.858  38.093  1.00  0.00     0.002 A 
HETATM   34  C   UNL     1      30.875  51.445  38.775  1.00  0.00     0.030 A 
ENDBRANCH   4  29
TORSDOF 7
ENDMDL
MODEL 5
REMARK VINA RESULT:      -7.2      3.172      7.972
REMARK  7 active torsions:
REMARK  status: ('A' for Active; 'I' for Inactive)
REMARK    1  A    between atoms: C_2  and  N_3 
REMARK       I    between atoms: N_3  and  C_4 
REMARK    2  A    between atoms: C_4  and  C_5 
REMARK    3  A    between atoms: N_8  and  C_10 
REMARK    4  A    between atoms: C_10  and  N_11 
REMARK    5  A    between atoms: C_13  and  C_14 
REMARK    6  A    between atoms: C_14  and  N_15 
REMARK    7  A    between atoms: N_22  and  C_23 
ROOT
HETATM    1  N   UNL     1      22.365  44.855  47.449  1.00  0.00    -0.216 N 
HETATM    2  N   UNL     1      22.505  46.179  47.813  1.00  0.00    -0.153 NA
HETATM    3  C   UNL     1      23.371  46.163  48.794  1.00  0.00     0.160 A 
HETATM    4  N   UNL     1      23.845  44.931  49.108  1.00  0.00    -0.272 N 
HETATM    5  C   UNL     1      23.186  44.047  48.259  1.00  0.00     0.204 A 
HETATM    6  S   UNL     1      23.350  42.400  48.063  1.00  0.00    -0.038 SA
ENDROOT
BRANCH   1   7
HETATM    7  C   UNL     1      21.352  44.429  46.494  1.00  0.00     0.388 C 
BRANCH   7   8
HETATM    8  N   UNL     1      20.075  45.208  46.646  1.00  0.00    -0.053 N 
HETATM    9  C   UNL     1      19.707  45.286  48.110  1.00  0.00     0.237 C 
HETATM   10  C   UNL     1      18.402  46.048  48.297  1.00  0.00     0.042 C 
HETATM   11  C   UNL     1      18.476  47.450  47.693  1.00  0.00     0.081 C 
HETATM   12  C   UNL     1      18.876  47.358  46.218  1.00  0.00     0.042 C 
HETATM   13  C   UNL     1      20.147  46.554  45.971  1.00  0.00     0.237 C 
HETATM   14  H   UNL     1      19.349  44.654  46.170  1.00  0.00     0.281 HD
BRANCH  11  15
HETATM   15  C   UNL     1      19.465  48.295  48.490  1.00  0.00     0.221 C 
HETATM   16  N   UNL     1      20.091  49.277  47.766  1.00  0.00    -0.361 N 
HETATM   17  H   UNL     1      20.079  49.241  46.753  1.00  0.00     0.162 HD
HETATM   18  O   UNL     1      19.581  48.163  49.705  1.00  0.00    -0.273 OA
BRANCH  16  19
HETATM   19  C   UNL     1      21.065  50.166  48.374  1.00  0.00     0.118 C 
HETATM   20  C   UNL     1      20.504  51.561  48.584  1.00  0.00     0.026 C 
ENDBRANCH  16  19
ENDBRANCH  11  15
ENDBRANCH   7   8
ENDBRANCH   1   7
BRANCH   3  21
HETATM   21  C   UNL     1      23.740  47.436  49.550  1.00  0.00     0.315 C 
BRANCH  21  22
HETATM   22  N   UNL     1      24.976  48.134  48.971  1.00  0.00    -0.064 N 
HETATM   23  H   UNL     1      25.199  47.630  48.099  1.00  0.00     0.280 HD
HETATM   24  C   UNL     1      24.716  49.577  48.594  1.00  0.00     0.235 C 
HETATM   25  C   UNL     1      25.939  50.133  47.877  1.00  0.00     0.028 C 
HETATM   26  C   UNL     1      27.195  50.007  48.731  1.00  0.00     0.003 C 
HETATM   27  C   UNL     1      27.405  48.572  49.199  1.00  0.00     0.028 C 
HETATM   28  C   UNL     1      26.172  48.013  49.893  1.00  0.00     0.235 C 
ENDBRANCH  21  22
ENDBRANCH   3  21
BRANCH   4  29
HETATM   29  C   UNL     1      24.827  44.625  50.079  1.00  0.00     0.043 A 
HETATM   30  C   UNL     1      24.483  44.477  51.428  1.00  0.00     0.030 A 
HETATM   31  C   UNL     1      25.462  44.192  52.384  1.00  0.00     0.002 A 
HETATM   32  C   UNL     1      26.792  44.049  52.002  1.00  0.00     0.000 A 
HETATM   33  C   UNL     1      27.148  44.185  50.665  1.00  0.00     0.002 A 
HETATM   34  C   UNL     1      26.171  44.472  49.706  1.00  0.00     0.030 A 
ENDBRANCH   4  29
TORSDOF 7
ENDMDL
MODEL 6
REMARK VINA RESULT:      -7.2      3.715      9.266
REMARK  7 active torsions:
REMARK  status: ('A' for Active; 'I' for Inactive)
REMARK    1  A    between atoms: C_2  and  N_3 
REMARK       I    between atoms: N_3  and  C_4 
REMARK    2  A    between atoms: C_4  and  C_5 
REMARK    3  A    between atoms: N_8  and  C_10 
REMARK    4  A    between atoms: C_10  and  N_11 
REMARK    5  A    between atoms: C_13  and  C_14 
REMARK    6  A    between atoms: C_14  and  N_15 
REMARK    7  A    between atoms: N_22  and  C_23 
ROOT
HETATM    1  N   UNL     1      24.213  43.968  49.535  1.00  0.00    -0.216 N 
HETATM    2  N   UNL     1      25.258  44.707  50.054  1.00  0.00    -0.153 NA
HETATM    3  C   UNL     1      26.282  43.893  50.031  1.00  0.00     0.160 A 
HETATM    4  N   UNL     1      26.018  42.666  49.515  1.00  0.00    -0.272 N 
HETATM    5  C   UNL     1      24.661  42.675  49.202  1.00  0.00     0.204 A 
HETATM    6  S   UNL     1      23.707  41.522  48.471  1.00  0.00    -0.038 SA
ENDROOT
BRANCH   1   7
HETATM    7  C   UNL     1      22.846  44.466  49.549  1.00  0.00     0.388 C 
BRANCH   7   8
HETATM    8  N   UNL     1      22.636  45.557  48.536  1.00  0.00    -0.053 N 
HETATM    9  C   UNL     1      21.261  45.416  47.926  1.00  0.00     0.237 C 
HETATM   10  C   UNL     1      21.025  46.493  46.875  1.00  0.00     0.042 C 
HETATM   11  C   UNL     1      21.209  47.895  47.454  1.00  0.00     0.081 C 
HETATM   12  C   UNL     1      22.595  48.015  48.091  1.00  0.00     0.042 C 
HETATM   13  C   UNL     1      22.904  46.924  49.111  1.00  0.00     0.237 C 
HETATM   14  H   UNL     1      23.327  45.386  47.792  1.00  0.00     0.281 HD
BRANCH  11  15
HETATM   15  C   UNL     1      20.102  48.178  48.464  1.00  0.00     0.221 C 
HETATM   16  N   UNL     1      20.351  49.230  49.307  1.00  0.00    -0.361 N 
HETATM   17  H   UNL     1      21.296  49.586  49.402  1.00  0.00     0.162 HD
HETATM   18  O   UNL     1      19.034  47.574  48.424  1.00  0.00    -0.273 OA
BRANCH  16  19
HETATM   19  C   UNL     1      19.400  49.627  50.331  1.00  0.00     0.118 C 
HETATM   20  C   UNL     1      18.766  50.971  50.023  1.00  0.00     0.026 C 
ENDBRANCH  16  19
ENDBRANCH  11  15
ENDBRANCH   7   8
ENDBRANCH   1   7
BRANCH   3  21
HETATM   21  C   UNL     1      27.634  44.300  50.612  1.00  0.00     0.315 C 
BRANCH  21  22
HETATM   22  N   UNL     1      27.839  43.802  52.047  1.00  0.00    -0.064 N 
HETATM   23  H   UNL     1      27.229  42.976  52.146  1.00  0.00     0.280 HD
HETATM   24  C   UNL     1      29.256  43.341  52.314  1.00  0.00     0.235 C 
HETATM   25  C   UNL     1      29.323  42.711  53.698  1.00  0.00     0.028 C 
HETATM   26  C   UNL     1      28.848  43.677  54.778  1.00  0.00     0.003 C 
HETATM   27  C   UNL     1      27.460  44.224  54.460  1.00  0.00     0.028 C 
HETATM   28  C   UNL     1      27.393  44.830  53.066  1.00  0.00     0.235 C 
ENDBRANCH  21  22
ENDBRANCH   3  21
BRANCH   4  29
HETATM   29  C   UNL     1      26.943  41.616  49.315  1.00  0.00     0.043 A 
HETATM   30  C   UNL     1      27.281  40.746  50.359  1.00  0.00     0.030 A 
HETATM   31  C   UNL     1      28.209  39.721  50.159  1.00  0.00     0.002 A 
HETATM   32  C   UNL     1      28.806  39.552  48.913  1.00  0.00     0.000 A 
HETATM   33  C   UNL     1      28.474  40.402  47.864  1.00  0.00     0.002 A 
HETATM   34  C   UNL     1      27.547  41.429  48.062  1.00  0.00     0.030 A 
ENDBRANCH   4  29
TORSDOF 7
ENDMDL
MODEL 7
REMARK VINA RESULT:      -7.2      3.912      9.379
REMARK  7 active torsions:
REMARK  status: ('A' for Active; 'I' for Inactive)
REMARK    1  A    between atoms: C_2  and  N_3 
REMARK       I    between atoms: N_3  and  C_4 
REMARK    2  A    between atoms: C_4  and  C_5 
REMARK    3  A    between atoms: N_8  and  C_10 
REMARK    4  A    between atoms: C_10  and  N_11 
REMARK    5  A    between atoms: C_13  and  C_14 
REMARK    6  A    between atoms: C_14  and  N_15 
REMARK    7  A    between atoms: N_22  and  C_23 
ROOT
HETATM    1  N   UNL     1      22.232  46.993  48.531  1.00  0.00    -0.216 N 
HETATM    2  N   UNL     1      21.764  45.695  48.608  1.00  0.00    -0.153 NA
HETATM    3  C   UNL     1      22.719  45.035  49.212  1.00  0.00     0.160 A 
HETATM    4  N   UNL     1      23.788  45.788  49.570  1.00  0.00    -0.272 N 
HETATM    5  C   UNL     1      23.511  47.075  49.116  1.00  0.00     0.204 A 
HETATM    6  S   UNL     1      24.363  48.496  49.286  1.00  0.00    -0.038 SA
ENDROOT
BRANCH   1   7
HETATM    7  C   UNL     1      21.528  48.013  47.769  1.00  0.00     0.388 C 
BRANCH   7   8
HETATM    8  N   UNL     1      21.123  49.176  48.631  1.00  0.00    -0.053 N 
HETATM    9  C   UNL     1      20.960  50.406  47.769  1.00  0.00     0.237 C 
HETATM   10  C   UNL     1      20.574  51.611  48.617  1.00  0.00     0.042 C 
HETATM   11  C   UNL     1      19.298  51.352  49.417  1.00  0.00     0.081 C 
HETATM   12  C   UNL     1      19.467  50.089  50.266  1.00  0.00     0.042 C 
HETATM   13  C   UNL     1      19.911  48.865  49.471  1.00  0.00     0.237 C 
HETATM   14  H   UNL     1      21.914  49.343  49.269  1.00  0.00     0.281 HD
BRANCH  11  15
HETATM   15  C   UNL     1      18.115  51.232  48.463  1.00  0.00     0.221 C 
HETATM   16  N   UNL     1      17.002  50.639  49.003  1.00  0.00    -0.361 N 
HETATM   17  H   UNL     1      17.083  50.104  49.860  1.00  0.00     0.162 HD
HETATM   18  O   UNL     1      18.143  51.740  47.346  1.00  0.00    -0.273 OA
BRANCH  16  19
HETATM   19  C   UNL     1      15.791  50.444  48.226  1.00  0.00     0.118 C 
HETATM   20  C   UNL     1      15.548  48.978  47.917  1.00  0.00     0.026 C 
ENDBRANCH  16  19
ENDBRANCH  11  15
ENDBRANCH   7   8
ENDBRANCH   1   7
BRANCH   3  21
HETATM   21  C   UNL     1      22.634  43.525  49.416  1.00  0.00     0.315 C 
BRANCH  21  22
HETATM   22  N   UNL     1      23.522  42.741  48.443  1.00  0.00    -0.064 N 
HETATM   23  H   UNL     1      24.170  43.434  48.037  1.00  0.00     0.280 HD
HETATM   24  C   UNL     1      24.369  41.693  49.132  1.00  0.00     0.235 C 
HETATM   25  C   UNL     1      25.334  41.088  48.121  1.00  0.00     0.028 C 
HETATM   26  C   UNL     1      24.595  40.498  46.925  1.00  0.00     0.003 C 
HETATM   27  C   UNL     1      23.662  41.522  46.290  1.00  0.00     0.028 C 
HETATM   28  C   UNL     1      22.717  42.141  47.309  1.00  0.00     0.235 C 
ENDBRANCH  21  22
ENDBRANCH   3  21
BRANCH   4  29
HETATM   29  C   UNL     1      24.929  45.353  50.282  1.00  0.00     0.043 A 
HETATM   30  C   UNL     1      26.097  44.973  49.609  1.00  0.00     0.030 A 
HETATM   31  C   UNL     1      27.214  44.526  50.319  1.00  0.00     0.002 A 
HETATM   32  C   UNL     1      27.179  44.458  51.709  1.00  0.00     0.000 A 
HETATM   33  C   UNL     1      26.030  44.841  52.392  1.00  0.00     0.002 A 
HETATM   34  C   UNL     1      24.909  45.286  51.685  1.00  0.00     0.030 A 
ENDBRANCH   4  29
TORSDOF 7
ENDMDL
MODEL 8
REMARK VINA RESULT:      -7.0     14.373     16.983
REMARK  7 active torsions:
REMARK  status: ('A' for Active; 'I' for Inactive)
REMARK    1  A    between atoms: C_2  and  N_3 
REMARK       I    between atoms: N_3  and  C_4 
REMARK    2  A    between atoms: C_4  and  C_5 
REMARK    3  A    between atoms: N_8  and  C_10 
REMARK    4  A    between atoms: C_10  and  N_11 
REMARK    5  A    between atoms: C_13  and  C_14 
REMARK    6  A    between atoms: C_14  and  N_15 
REMARK    7  A    between atoms: N_22  and  C_23 
ROOT
HETATM    1  N   UNL     1      33.926  51.544  39.323  1.00  0.00    -0.216 N 
HETATM    2  N   UNL     1      34.642  52.664  38.949  1.00  0.00    -0.153 NA
HETATM    3  C   UNL     1      35.530  52.819  39.898  1.00  0.00     0.160 A 
HETATM    4  N   UNL     1      35.486  51.878  40.874  1.00  0.00    -0.272 N 
HETATM    5  C   UNL     1      34.427  51.039  40.538  1.00  0.00     0.204 A 
HETATM    6  S   UNL     1      33.871  49.646  41.263  1.00  0.00    -0.038 SA
ENDROOT
BRANCH   1   7
HETATM    7  C   UNL     1      32.725  51.134  38.609  1.00  0.00     0.388 C 
BRANCH   7   8
HETATM    8  N   UNL     1      31.599  52.111  38.800  1.00  0.00    -0.053 N 
HETATM    9  C   UNL     1      30.461  51.749  37.874  1.00  0.00     0.237 C 
HETATM   10  C   UNL     1      29.311  52.737  38.024  1.00  0.00     0.042 C 
HETATM   11  C   UNL     1      28.817  52.813  39.468  1.00  0.00     0.081 C 
HETATM   12  C   UNL     1      29.985  53.154  40.397  1.00  0.00     0.042 C 
HETATM   13  C   UNL     1      31.187  52.228  40.245  1.00  0.00     0.237 C 
HETATM   14  H   UNL     1      31.967  53.025  38.501  1.00  0.00     0.281 HD
BRANCH  11  15
HETATM   15  C   UNL     1      28.163  51.491  39.853  1.00  0.00     0.221 C 
HETATM   16  N   UNL     1      28.391  51.094  41.145  1.00  0.00    -0.361 N 
HETATM   17  H   UNL     1      29.142  51.519  41.677  1.00  0.00     0.162 HD
HETATM   18  O   UNL     1      27.401  50.910  39.085  1.00  0.00    -0.273 OA
BRANCH  16  19
HETATM   19  C   UNL     1      27.843  49.855  41.668  1.00  0.00     0.118 C 
HETATM   20  C   UNL     1      28.934  48.872  42.051  1.00  0.00     0.026 C 
ENDBRANCH  16  19
ENDBRANCH  11  15
ENDBRANCH   7   8
ENDBRANCH   1   7
BRANCH   3  21
HETATM   21  C   UNL     1      36.478  54.016  39.911  1.00  0.00     0.315 C 
BRANCH  21  22
HETATM   22  N   UNL     1      36.043  55.130  38.952  1.00  0.00    -0.064 N 
HETATM   23  H   UNL     1      35.213  54.766  38.459  1.00  0.00     0.280 HD
HETATM   24  C   UNL     1      35.614  56.391  39.671  1.00  0.00     0.235 C 
HETATM   25  C   UNL     1      35.044  57.373  38.657  1.00  0.00     0.028 C 
HETATM   26  C   UNL     1      36.046  57.685  37.551  1.00  0.00     0.003 C 
HETATM   27  C   UNL     1      36.558  56.409  36.892  1.00  0.00     0.028 C 
HETATM   28  C   UNL     1      37.105  55.422  37.913  1.00  0.00     0.235 C 
ENDBRANCH  21  22
ENDBRANCH   3  21
BRANCH   4  29
HETATM   29  C   UNL     1      36.358  51.767  41.981  1.00  0.00     0.043 A 
HETATM   30  C   UNL     1      37.511  50.976  41.913  1.00  0.00     0.030 A 
HETATM   31  C   UNL     1      38.358  50.856  43.018  1.00  0.00     0.002 A 
HETATM   32  C   UNL     1      38.064  51.529  44.201  1.00  0.00     0.000 A 
HETATM   33  C   UNL     1      36.927  52.326  44.281  1.00  0.00     0.002 A 
HETATM   34  C   UNL     1      36.077  52.445  43.178  1.00  0.00     0.030 A 
ENDBRANCH   4  29
TORSDOF 7
ENDMDL
MODEL 9
REMARK VINA RESULT:      -7.0      3.737      9.798
REMARK  7 active torsions:
REMARK  status: ('A' for Active; 'I' for Inactive)
REMARK    1  A    between atoms: C_2  and  N_3 
REMARK       I    between atoms: N_3  and  C_4 
REMARK    2  A    between atoms: C_4  and  C_5 
REMARK    3  A    between atoms: N_8  and  C_10 
REMARK    4  A    between atoms: C_10  and  N_11 
REMARK    5  A    between atoms: C_13  and  C_14 
REMARK    6  A    between atoms: C_14  and  N_15 
REMARK    7  A    between atoms: N_22  and  C_23 
ROOT
HETATM    1  N   UNL     1      23.778  45.477  49.513  1.00  0.00    -0.216 N 
HETATM    2  N   UNL     1      23.677  44.105  49.389  1.00  0.00    -0.153 NA
HETATM    3  C   UNL     1      24.481  43.630  50.306  1.00  0.00     0.160 A 
HETATM    4  N   UNL     1      25.102  44.573  51.057  1.00  0.00    -0.272 N 
HETATM    5  C   UNL     1      24.681  45.798  50.546  1.00  0.00     0.204 A 
HETATM    6  S   UNL     1      25.000  47.354  51.048  1.00  0.00    -0.038 SA
ENDROOT
BRANCH   1   7
HETATM    7  C   UNL     1      23.161  46.377  48.551  1.00  0.00     0.388 C 
BRANCH   7   8
HETATM    8  N   UNL     1      21.839  46.900  49.041  1.00  0.00    -0.053 N 
HETATM    9  C   UNL     1      21.816  48.405  48.911  1.00  0.00     0.237 C 
HETATM   10  C   UNL     1      20.498  48.969  49.423  1.00  0.00     0.042 C 
HETATM   11  C   UNL     1      19.301  48.356  48.696  1.00  0.00     0.081 C 
HETATM   12  C   UNL     1      19.351  46.830  48.813  1.00  0.00     0.042 C 
HETATM   13  C   UNL     1      20.675  46.219  48.367  1.00  0.00     0.237 C 
HETATM   14  H   UNL     1      21.800  46.671  50.044  1.00  0.00     0.281 HD
BRANCH  11  15
HETATM   15  C   UNL     1      19.305  48.807  47.240  1.00  0.00     0.221 C 
HETATM   16  N   UNL     1      18.633  47.975  46.382  1.00  0.00    -0.361 N 
HETATM   17  H   UNL     1      18.404  47.031  46.672  1.00  0.00     0.162 HD
HETATM   18  O   UNL     1      19.777  49.891  46.910  1.00  0.00    -0.273 OA
BRANCH  16  19
HETATM   19  C   UNL     1      18.546  48.258  44.960  1.00  0.00     0.118 C 
HETATM   20  C   UNL     1      17.227  48.913  44.593  1.00  0.00     0.026 C 
ENDBRANCH  16  19
ENDBRANCH  11  15
ENDBRANCH   7   8
ENDBRANCH   1   7
BRANCH   3  21
HETATM   21  C   UNL     1      24.730  42.130  50.445  1.00  0.00     0.315 C 
BRANCH  21  22
HETATM   22  N   UNL     1      26.133  41.716  49.988  1.00  0.00    -0.064 N 
HETATM   23  H   UNL     1      26.713  42.566  50.059  1.00  0.00     0.280 HD
HETATM   24  C   UNL     1      26.762  40.673  50.887  1.00  0.00     0.235 C 
HETATM   25  C   UNL     1      28.206  40.450  50.458  1.00  0.00     0.028 C 
HETATM   26  C   UNL     1      28.298  40.038  48.993  1.00  0.00     0.003 C 
HETATM   27  C   UNL     1      27.577  41.034  48.091  1.00  0.00     0.028 C 
HETATM   28  C   UNL     1      26.142  41.271  48.540  1.00  0.00     0.235 C 
ENDBRANCH  21  22
ENDBRANCH   3  21
BRANCH   4  29
HETATM   29  C   UNL     1      25.972  44.348  52.149  1.00  0.00     0.043 A 
HETATM   30  C   UNL     1      27.355  44.234  51.956  1.00  0.00     0.030 A 
HETATM   31  C   UNL     1      28.206  43.993  53.037  1.00  0.00     0.002 A 
HETATM   32  C   UNL     1      27.687  43.867  54.322  1.00  0.00     0.000 A 
HETATM   33  C   UNL     1      26.317  43.987  54.531  1.00  0.00     0.002 A 
HETATM   34  C   UNL     1      25.462  44.226  53.451  1.00  0.00     0.030 A 
ENDBRANCH   4  29
TORSDOF 7
ENDMDL
MODEL 10
REMARK VINA RESULT:      -7.0      5.046      7.669
REMARK  7 active torsions:
REMARK  status: ('A' for Active; 'I' for Inactive)
REMARK    1  A    between atoms: C_2  and  N_3 
REMARK       I    between atoms: N_3  and  C_4 
REMARK    2  A    between atoms: C_4  and  C_5 
REMARK    3  A    between atoms: N_8  and  C_10 
REMARK    4  A    between atoms: C_10  and  N_11 
REMARK    5  A    between atoms: C_13  and  C_14 
REMARK    6  A    between atoms: C_14  and  N_15 
REMARK    7  A    between atoms: N_22  and  C_23 
ROOT
HETATM    1  N   UNL     1      26.270  43.675  49.507  1.00  0.00    -0.216 N 
HETATM    2  N   UNL     1      27.049  42.636  49.037  1.00  0.00    -0.153 NA
HETATM    3  C   UNL     1      26.238  41.922  48.299  1.00  0.00     0.160 A 
HETATM    4  N   UNL     1      24.974  42.409  48.214  1.00  0.00    -0.272 N 
HETATM    5  C   UNL     1      24.956  43.547  49.016  1.00  0.00     0.204 A 
HETATM    6  S   UNL     1      23.747  44.658  49.299  1.00  0.00    -0.038 SA
ENDROOT
BRANCH   1   7
HETATM    7  C   UNL     1      26.764  44.606  50.509  1.00  0.00     0.388 C 
BRANCH   7   8
HETATM    8  N   UNL     1      26.870  43.965  51.865  1.00  0.00    -0.053 N 
HETATM    9  C   UNL     1      28.320  43.930  52.290  1.00  0.00     0.237 C 
HETATM   10  C   UNL     1      28.465  43.262  53.651  1.00  0.00     0.042 C 
HETATM   11  C   UNL     1      27.617  43.959  54.715  1.00  0.00     0.081 C 
HETATM   12  C   UNL     1      26.157  44.011  54.260  1.00  0.00     0.042 C 
HETATM   13  C   UNL     1      25.962  44.619  52.875  1.00  0.00     0.237 C 
HETATM   14  H   UNL     1      26.557  42.992  51.742  1.00  0.00     0.281 HD
BRANCH  11  15
HETATM   15  C   UNL     1      28.173  45.355  54.975  1.00  0.00     0.221 C 
HETATM   16  N   UNL     1      27.233  46.352  54.989  1.00  0.00    -0.361 N 
HETATM   17  H   UNL     1      26.315  46.183  54.594  1.00  0.00     0.162 HD
HETATM   18  O   UNL     1      29.354  45.526  55.265  1.00  0.00    -0.273 OA
BRANCH  16  19
HETATM   19  C   UNL     1      27.597  47.739  55.218  1.00  0.00     0.118 C 
HETATM   20  C   UNL     1      26.409  48.569  55.667  1.00  0.00     0.026 C 
ENDBRANCH  16  19
ENDBRANCH  11  15
ENDBRANCH   7   8
ENDBRANCH   1   7
BRANCH   3  21
HETATM   21  C   UNL     1      26.691  40.613  47.658  1.00  0.00     0.315 C 
BRANCH  21  22
HETATM   22  N   UNL     1      27.124  39.564  48.689  1.00  0.00    -0.064 N 
HETATM   23  H   UNL     1      26.711  39.866  49.585  1.00  0.00     0.280 HD
HETATM   24  C   UNL     1      26.579  38.184  48.391  1.00  0.00     0.235 C 
HETATM   25  C   UNL     1      26.916  37.254  49.548  1.00  0.00     0.028 C 
HETATM   26  C   UNL     1      28.418  37.206  49.809  1.00  0.00     0.003 C 
HETATM   27  C   UNL     1      28.990  38.605  50.008  1.00  0.00     0.028 C 
HETATM   28  C   UNL     1      28.629  39.536  48.861  1.00  0.00     0.235 C 
ENDBRANCH  21  22
ENDBRANCH   3  21
BRANCH   4  29
HETATM   29  C   UNL     1      23.913  41.878  47.445  1.00  0.00     0.043 A 
HETATM   30  C   UNL     1      23.672  42.329  46.142  1.00  0.00     0.030 A 
HETATM   31  C   UNL     1      22.610  41.812  45.395  1.00  0.00     0.002 A 
HETATM   32  C   UNL     1      21.782  40.836  45.940  1.00  0.00     0.000 A 
HETATM   33  C   UNL     1      22.015  40.370  47.229  1.00  0.00     0.002 A 
HETATM   34  C   UNL     1      23.074  40.887  47.980  1.00  0.00     0.030 A 
ENDBRANCH   4  29
TORSDOF 7
ENDMDL
