MODEL 1
REMARK VINA RESULT:      -8.3      0.000      0.000
REMARK  7 active torsions:
REMARK  status: ('A' for Active; 'I' for Inactive)
REMARK       I    between atoms: C_2  and  N_3 
REMARK    1  A    between atoms: N_3  and  C_4 
REMARK    2  A    between atoms: N_9  and  C_10 
REMARK    3  A    between atoms: C_10  and  C_11 
REMARK    4  A    between atoms: C_11  and  C_12 
REMARK    5  A    between atoms: C_12  and  O_13 
REMARK    6  A    between atoms: O_13  and  C_14 
REMARK    7  A    between atoms: C_17  and  C_18 
REMARK       I    between atoms: N_30  and  C_31 
ROOT
HETATM    1  C   UNL     1      35.573  51.777  42.066  1.00  0.00     0.191 C 
HETATM    2  S   UNL     1      35.164  50.941  40.603  1.00  0.00    -0.042 SA
HETATM    3  C   UNL     1      33.412  50.954  41.157  1.00  0.00     0.224 A 
HETATM    4  C   UNL     1      32.661  52.026  40.317  1.00  0.00     0.271 A 
HETATM    5  O   UNL     1      32.868  53.232  40.356  1.00  0.00    -0.269 OA
HETATM    6  N   UNL     1      31.742  51.338  39.502  1.00  0.00    -0.314 N 
HETATM    7  C   UNL     1      31.742  49.963  39.818  1.00  0.00     0.047 A 
HETATM    8  C   UNL     1      32.703  49.684  40.799  1.00  0.00     0.019 A 
HETATM    9  C   UNL     1      30.936  48.965  39.301  1.00  0.00     0.030 A 
HETATM   10  C   UNL     1      31.107  47.664  39.785  1.00  0.00     0.002 A 
HETATM   11  C   UNL     1      32.068  47.383  40.769  1.00  0.00     0.001 A 
HETATM   12  C   UNL     1      32.877  48.397  41.285  1.00  0.00     0.013 A 
HETATM   13  N   UNL     1      33.478  51.346  42.562  1.00  0.00    -0.201 N 
HETATM   14  C   UNL     1      32.343  51.438  43.350  1.00  0.00     0.238 C 
HETATM   15  C   UNL     1      32.562  51.959  44.748  1.00  0.00     0.119 C 
HETATM   16  O   UNL     1      31.217  51.135  42.956  1.00  0.00    -0.272 OA
HETATM   17  N   UNL     1      34.681  51.884  42.991  1.00  0.00    -0.141 NA
ENDROOT
BRANCH   6  18
HETATM   18  C   UNL     1      30.775  51.927  38.586  1.00  0.00     0.134 C 
BRANCH  18  19
HETATM   19  C   UNL     1      29.688  52.783  39.230  1.00  0.00     0.047 C 
BRANCH  19  20
HETATM   20  C   UNL     1      28.296  52.190  39.039  1.00  0.00     0.177 C 
BRANCH  20  21
HETATM   21  O   UNL     1      27.906  51.637  40.295  1.00  0.00    -0.351 OA
BRANCH  21  22
HETATM   22  C   UNL     1      27.750  50.285  40.374  1.00  0.00     0.068 A 
HETATM   23  C   UNL     1      28.074  49.480  41.461  1.00  0.00     0.037 A 
HETATM   24  C   UNL     1      27.873  48.092  41.399  1.00  0.00     0.011 A 
HETATM   25  C   UNL     1      27.343  47.475  40.253  1.00  0.00    -0.050 A 
HETATM   26  C   UNL     1      27.014  48.313  39.171  1.00  0.00     0.011 A 
HETATM   27  C   UNL     1      27.217  49.693  39.233  1.00  0.00     0.037 A 
BRANCH  25  28
HETATM   28  C   UNL     1      27.118  45.958  40.149  1.00  0.00    -0.024 C 
HETATM   29  C   UNL     1      28.397  45.159  39.815  1.00  0.00     0.019 C 
HETATM   30  C   UNL     1      26.580  45.423  41.494  1.00  0.00     0.019 C 
HETATM   31  C   UNL     1      26.090  45.658  39.035  1.00  0.00     0.019 C 
ENDBRANCH  25  28
ENDBRANCH  21  22
ENDBRANCH  20  21
ENDBRANCH  19  20
ENDBRANCH  18  19
ENDBRANCH   6  18
BRANCH   1  32
HETATM   32  N   UNL     1      36.854  52.245  42.096  1.00  0.00    -0.305 N 
HETATM   33  C   UNL     1      38.016  51.644  42.518  1.00  0.00     0.219 C 
HETATM   34  C   UNL     1      37.944  50.271  43.127  1.00  0.00     0.117 C 
HETATM   35  O   UNL     1      39.085  52.242  42.390  1.00  0.00    -0.274 OA
HETATM   36  H   UNL     1      36.988  53.191  41.769  1.00  0.00     0.171 HD
ENDBRANCH   1  32
TORSDOF 7
ENDMDL
MODEL 2
REMARK VINA RESULT:      -8.2      1.998      2.577
REMARK  7 active torsions:
REMARK  status: ('A' for Active; 'I' for Inactive)
REMARK       I    between atoms: C_2  and  N_3 
REMARK    1  A    between atoms: N_3  and  C_4 
REMARK    2  A    between atoms: N_9  and  C_10 
REMARK    3  A    between atoms: C_10  and  C_11 
REMARK    4  A    between atoms: C_11  and  C_12 
REMARK    5  A    between atoms: C_12  and  O_13 
REMARK    6  A    between atoms: O_13  and  C_14 
REMARK    7  A    between atoms: C_17  and  C_18 
REMARK       I    between atoms: N_30  and  C_31 
ROOT
HETATM    1  C   UNL     1      34.468  50.913  40.521  1.00  0.00     0.191 C 
HETATM    2  S   UNL     1      32.975  50.472  39.760  1.00  0.00    -0.042 SA
HETATM    3  C   UNL     1      32.098  51.147  41.229  1.00  0.00     0.224 A 
HETATM    4  C   UNL     1      31.475  52.511  40.818  1.00  0.00     0.271 A 
HETATM    5  O   UNL     1      32.105  53.515  40.511  1.00  0.00    -0.269 OA
HETATM    6  N   UNL     1      30.077  52.347  40.842  1.00  0.00    -0.314 N 
HETATM    7  C   UNL     1      29.743  51.069  41.338  1.00  0.00     0.047 A 
HETATM    8  C   UNL     1      30.902  50.323  41.593  1.00  0.00     0.019 A 
HETATM    9  C   UNL     1      28.486  50.547  41.585  1.00  0.00     0.030 A 
HETATM   10  C   UNL     1      28.402  49.249  42.098  1.00  0.00     0.002 A 
HETATM   11  C   UNL     1      29.562  48.500  42.356  1.00  0.00     0.001 A 
HETATM   12  C   UNL     1      30.826  49.035  42.103  1.00  0.00     0.013 A 
HETATM   13  N   UNL     1      33.149  51.332  42.225  1.00  0.00    -0.201 N 
HETATM   14  C   UNL     1      32.875  51.802  43.498  1.00  0.00     0.238 C 
HETATM   15  C   UNL     1      34.078  52.042  44.376  1.00  0.00     0.119 C 
HETATM   16  O   UNL     1      31.736  52.029  43.907  1.00  0.00    -0.272 OA
HETATM   17  N   UNL     1      34.452  51.283  41.756  1.00  0.00    -0.141 NA
ENDROOT
BRANCH   6  18
HETATM   18  C   UNL     1      29.073  53.371  40.587  1.00  0.00     0.134 C 
BRANCH  18  19
HETATM   19  C   UNL     1      28.807  53.687  39.118  1.00  0.00     0.047 C 
BRANCH  19  20
HETATM   20  C   UNL     1      29.149  52.515  38.204  1.00  0.00     0.177 C 
BRANCH  20  21
HETATM   21  O   UNL     1      27.927  51.829  37.937  1.00  0.00    -0.351 OA
BRANCH  21  22
HETATM   22  C   UNL     1      27.867  50.499  38.229  1.00  0.00     0.068 A 
HETATM   23  C   UNL     1      26.714  49.760  38.475  1.00  0.00     0.037 A 
HETATM   24  C   UNL     1      26.802  48.393  38.782  1.00  0.00     0.011 A 
HETATM   25  C   UNL     1      28.039  47.731  38.848  1.00  0.00    -0.050 A 
HETATM   26  C   UNL     1      29.189  48.498  38.585  1.00  0.00     0.011 A 
HETATM   27  C   UNL     1      29.102  49.858  38.283  1.00  0.00     0.037 A 
BRANCH  25  28
HETATM   28  C   UNL     1      28.170  46.237  39.188  1.00  0.00    -0.024 C 
HETATM   29  C   UNL     1      27.529  45.300  38.141  1.00  0.00     0.019 C 
HETATM   30  C   UNL     1      29.663  45.860  39.290  1.00  0.00     0.019 C 
HETATM   31  C   UNL     1      27.480  45.948  40.540  1.00  0.00     0.019 C 
ENDBRANCH  25  28
ENDBRANCH  21  22
ENDBRANCH  20  21
ENDBRANCH  19  20
ENDBRANCH  18  19
ENDBRANCH   6  18
BRANCH   1  32
HETATM   32  N   UNL     1      35.557  50.810  39.705  1.00  0.00    -0.305 N 
HETATM   33  C   UNL     1      36.315  51.783  39.097  1.00  0.00     0.219 C 
HETATM   34  C   UNL     1      35.903  53.221  39.243  1.00  0.00     0.117 C 
HETATM   35  O   UNL     1      37.308  51.456  38.447  1.00  0.00    -0.274 OA
HETATM   36  H   UNL     1      35.865  49.872  39.493  1.00  0.00     0.171 HD
ENDBRANCH   1  32
TORSDOF 7
ENDMDL
MODEL 3
REMARK VINA RESULT:      -7.8     10.336     13.059
REMARK  7 active torsions:
REMARK  status: ('A' for Active; 'I' for Inactive)
REMARK       I    between atoms: C_2  and  N_3 
REMARK    1  A    between atoms: N_3  and  C_4 
REMARK    2  A    between atoms: N_9  and  C_10 
REMARK    3  A    between atoms: C_10  and  C_11 
REMARK    4  A    between atoms: C_11  and  C_12 
REMARK    5  A    between atoms: C_12  and  O_13 
REMARK    6  A    between atoms: O_13  and  C_14 
REMARK    7  A    between atoms: C_17  and  C_18 
REMARK       I    between atoms: N_30  and  C_31 
ROOT
HETATM    1  C   UNL     1      26.826  47.647  50.200  1.00  0.00     0.191 C 
HETATM    2  S   UNL     1      26.961  46.097  49.435  1.00  0.00    -0.042 SA
HETATM    3  C   UNL     1      26.189  45.360  50.932  1.00  0.00     0.224 A 
HETATM    4  C   UNL     1      24.720  44.996  50.572  1.00  0.00     0.271 A 
HETATM    5  O   UNL     1      23.838  45.798  50.294  1.00  0.00    -0.269 OA
HETATM    6  N   UNL     1      24.627  43.592  50.600  1.00  0.00    -0.314 N 
HETATM    7  C   UNL     1      25.839  43.030  51.055  1.00  0.00     0.047 A 
HETATM    8  C   UNL     1      26.792  44.033  51.276  1.00  0.00     0.019 A 
HETATM    9  C   UNL     1      26.130  41.699  51.293  1.00  0.00     0.030 A 
HETATM   10  C   UNL     1      27.408  41.380  51.763  1.00  0.00     0.002 A 
HETATM   11  C   UNL     1      28.364  42.383  51.987  1.00  0.00     0.001 A 
HETATM   12  C   UNL     1      28.062  43.724  51.744  1.00  0.00     0.013 A 
HETATM   13  N   UNL     1      26.232  46.428  51.926  1.00  0.00    -0.201 N 
HETATM   14  C   UNL     1      25.765  46.245  53.217  1.00  0.00     0.238 C 
HETATM   15  C   UNL     1      25.779  47.472  54.094  1.00  0.00     0.119 C 
HETATM   16  O   UNL     1      25.348  45.167  53.641  1.00  0.00    -0.272 OA
HETATM   17  N   UNL     1      26.503  47.699  51.447  1.00  0.00    -0.141 NA
ENDROOT
BRANCH   6  18
HETATM   18  C   UNL     1      23.429  42.791  50.386  1.00  0.00     0.134 C 
BRANCH  18  19
HETATM   19  C   UNL     1      23.234  42.254  48.972  1.00  0.00     0.047 C 
BRANCH  19  20
HETATM   20  C   UNL     1      23.018  43.369  47.954  1.00  0.00     0.177 C 
BRANCH  20  21
HETATM   21  O   UNL     1      21.614  43.620  47.907  1.00  0.00    -0.351 OA
BRANCH  21  22
HETATM   22  C   UNL     1      21.194  44.912  48.022  1.00  0.00     0.068 A 
HETATM   23  C   UNL     1      20.075  45.356  48.717  1.00  0.00     0.037 A 
HETATM   24  C   UNL     1      19.750  46.722  48.737  1.00  0.00     0.011 A 
HETATM   25  C   UNL     1      20.535  47.675  48.067  1.00  0.00    -0.050 A 
HETATM   26  C   UNL     1      21.667  47.201  47.380  1.00  0.00     0.011 A 
HETATM   27  C   UNL     1      21.988  45.842  47.357  1.00  0.00     0.037 A 
BRANCH  25  28
HETATM   28  C   UNL     1      20.202  49.177  48.063  1.00  0.00    -0.024 C 
HETATM   29  C   UNL     1      21.409  50.081  47.733  1.00  0.00     0.019 C 
HETATM   30  C   UNL     1      19.112  49.460  47.009  1.00  0.00     0.019 C 
HETATM   31  C   UNL     1      19.685  49.600  49.456  1.00  0.00     0.019 C 
ENDBRANCH  25  28
ENDBRANCH  21  22
ENDBRANCH  20  21
ENDBRANCH  19  20
ENDBRANCH  18  19
ENDBRANCH   6  18
BRANCH   1  32
HETATM   32  N   UNL     1      27.099  48.697  49.373  1.00  0.00    -0.305 N 
HETATM   33  C   UNL     1      26.256  49.503  48.643  1.00  0.00     0.219 C 
HETATM   34  C   UNL     1      24.784  49.201  48.641  1.00  0.00     0.117 C 
HETATM   35  O   UNL     1      26.726  50.448  48.009  1.00  0.00    -0.274 OA
HETATM   36  H   UNL     1      28.074  48.930  49.258  1.00  0.00     0.171 HD
ENDBRANCH   1  32
TORSDOF 7
ENDMDL
MODEL 4
REMARK VINA RESULT:      -7.4     11.848     13.777
REMARK  7 active torsions:
REMARK  status: ('A' for Active; 'I' for Inactive)
REMARK       I    between atoms: C_2  and  N_3 
REMARK    1  A    between atoms: N_3  and  C_4 
REMARK    2  A    between atoms: N_9  and  C_10 
REMARK    3  A    between atoms: C_10  and  C_11 
REMARK    4  A    between atoms: C_11  and  C_12 
REMARK    5  A    between atoms: C_12  and  O_13 
REMARK    6  A    between atoms: O_13  and  C_14 
REMARK    7  A    between atoms: C_17  and  C_18 
REMARK       I    between atoms: N_30  and  C_31 
ROOT
HETATM    1  C   UNL     1      28.877  43.377  54.325  1.00  0.00     0.191 C 
HETATM    2  S   UNL     1      29.086  43.286  52.607  1.00  0.00    -0.042 SA
HETATM    3  C   UNL     1      27.312  43.732  52.429  1.00  0.00     0.224 A 
HETATM    4  C   UNL     1      27.244  45.216  51.969  1.00  0.00     0.271 A 
HETATM    5  O   UNL     1      27.603  46.181  52.630  1.00  0.00    -0.269 OA
HETATM    6  N   UNL     1      26.728  45.216  50.659  1.00  0.00    -0.314 N 
HETATM    7  C   UNL     1      26.349  43.910  50.283  1.00  0.00     0.047 A 
HETATM    8  C   UNL     1      26.662  42.996  51.297  1.00  0.00     0.019 A 
HETATM    9  C   UNL     1      25.735  43.499  49.112  1.00  0.00     0.030 A 
HETATM   10  C   UNL     1      25.436  42.141  48.969  1.00  0.00     0.002 A 
HETATM   11  C   UNL     1      25.748  41.223  49.985  1.00  0.00     0.001 A 
HETATM   12  C   UNL     1      26.366  41.647  51.162  1.00  0.00     0.013 A 
HETATM   13  N   UNL     1      26.762  43.577  53.772  1.00  0.00    -0.201 N 
HETATM   14  C   UNL     1      25.422  43.794  54.043  1.00  0.00     0.238 C 
HETATM   15  C   UNL     1      25.028  43.699  55.496  1.00  0.00     0.119 C 
HETATM   16  O   UNL     1      24.589  44.061  53.177  1.00  0.00    -0.272 OA
HETATM   17  N   UNL     1      27.683  43.475  54.802  1.00  0.00    -0.141 NA
ENDROOT
BRANCH   6  18
HETATM   18  C   UNL     1      26.429  46.381  49.838  1.00  0.00     0.134 C 
BRANCH  18  19
HETATM   19  C   UNL     1      25.514  47.423  50.473  1.00  0.00     0.047 C 
BRANCH  19  20
HETATM   20  C   UNL     1      24.192  47.565  49.726  1.00  0.00     0.177 C 
BRANCH  20  21
HETATM   21  O   UNL     1      23.927  48.963  49.618  1.00  0.00    -0.351 OA
BRANCH  21  22
HETATM   22  C   UNL     1      22.681  49.346  49.219  1.00  0.00     0.068 A 
HETATM   23  C   UNL     1      21.651  48.505  48.814  1.00  0.00     0.037 A 
HETATM   24  C   UNL     1      20.416  49.041  48.412  1.00  0.00     0.011 A 
HETATM   25  C   UNL     1      20.181  50.426  48.407  1.00  0.00    -0.050 A 
HETATM   26  C   UNL     1      21.236  51.254  48.831  1.00  0.00     0.011 A 
HETATM   27  C   UNL     1      22.465  50.721  49.228  1.00  0.00     0.037 A 
BRANCH  25  28
HETATM   28  C   UNL     1      18.845  51.045  47.966  1.00  0.00    -0.024 C 
HETATM   29  C   UNL     1      18.549  50.881  46.459  1.00  0.00     0.019 C 
HETATM   30  C   UNL     1      17.687  50.376  48.737  1.00  0.00     0.019 C 
HETATM   31  C   UNL     1      18.847  52.560  48.267  1.00  0.00     0.019 C 
ENDBRANCH  25  28
ENDBRANCH  21  22
ENDBRANCH  20  21
ENDBRANCH  19  20
ENDBRANCH  18  19
ENDBRANCH   6  18
BRANCH   1  32
HETATM   32  N   UNL     1      30.045  43.322  55.029  1.00  0.00    -0.305 N 
HETATM   33  C   UNL     1      30.623  44.239  55.874  1.00  0.00     0.219 C 
HETATM   34  C   UNL     1      29.965  45.578  56.053  1.00  0.00     0.117 C 
HETATM   35  O   UNL     1      31.665  43.944  56.462  1.00  0.00    -0.274 OA
HETATM   36  H   UNL     1      30.593  42.481  54.914  1.00  0.00     0.171 HD
ENDBRANCH   1  32
TORSDOF 7
ENDMDL
MODEL 5
REMARK VINA RESULT:      -7.2     25.056     26.958
REMARK  7 active torsions:
REMARK  status: ('A' for Active; 'I' for Inactive)
REMARK       I    between atoms: C_2  and  N_3 
REMARK    1  A    between atoms: N_3  and  C_4 
REMARK    2  A    between atoms: N_9  and  C_10 
REMARK    3  A    between atoms: C_10  and  C_11 
REMARK    4  A    between atoms: C_11  and  C_12 
REMARK    5  A    between atoms: C_12  and  O_13 
REMARK    6  A    between atoms: O_13  and  C_14 
REMARK    7  A    between atoms: C_17  and  C_18 
REMARK       I    between atoms: N_30  and  C_31 
ROOT
HETATM    1  C   UNL     1      39.384  50.121  66.074  1.00  0.00     0.191 C 
HETATM    2  S   UNL     1      39.328  49.074  64.694  1.00  0.00    -0.042 SA
HETATM    3  C   UNL     1      39.768  47.681  65.810  1.00  0.00     0.224 A 
HETATM    4  C   UNL     1      38.482  46.837  66.038  1.00  0.00     0.271 A 
HETATM    5  O   UNL     1      37.476  47.220  66.621  1.00  0.00    -0.269 OA
HETATM    6  N   UNL     1      38.697  45.588  65.424  1.00  0.00    -0.314 N 
HETATM    7  C   UNL     1      40.018  45.503  64.938  1.00  0.00     0.047 A 
HETATM    8  C   UNL     1      40.699  46.710  65.150  1.00  0.00     0.019 A 
HETATM    9  C   UNL     1      40.644  44.423  64.341  1.00  0.00     0.030 A 
HETATM   10  C   UNL     1      41.980  44.570  63.952  1.00  0.00     0.002 A 
HETATM   11  C   UNL     1      42.664  45.777  64.166  1.00  0.00     0.001 A 
HETATM   12  C   UNL     1      42.024  46.861  64.769  1.00  0.00     0.013 A 
HETATM   13  N   UNL     1      40.194  48.327  67.047  1.00  0.00    -0.201 N 
HETATM   14  C   UNL     1      40.640  47.599  68.137  1.00  0.00     0.238 C 
HETATM   15  C   UNL     1      40.941  48.402  69.378  1.00  0.00     0.119 C 
HETATM   16  O   UNL     1      40.778  46.376  68.125  1.00  0.00    -0.272 OA
HETATM   17  N   UNL     1      39.871  49.668  67.179  1.00  0.00    -0.141 NA
ENDROOT
BRANCH   6  18
HETATM   18  C   UNL     1      37.792  44.446  65.427  1.00  0.00     0.134 C 
BRANCH  18  19
HETATM   19  C   UNL     1      37.161  44.098  64.082  1.00  0.00     0.047 C 
BRANCH  19  20
HETATM   20  C   UNL     1      37.014  42.593  63.885  1.00  0.00     0.177 C 
BRANCH  20  21
HETATM   21  O   UNL     1      38.107  42.173  63.070  1.00  0.00    -0.351 OA
BRANCH  21  22
HETATM   22  C   UNL     1      38.856  41.119  63.501  1.00  0.00     0.068 A 
HETATM   23  C   UNL     1      39.442  40.143  62.703  1.00  0.00     0.037 A 
HETATM   24  C   UNL     1      40.177  39.099  63.286  1.00  0.00     0.011 A 
HETATM   25  C   UNL     1      40.346  39.005  64.678  1.00  0.00    -0.050 A 
HETATM   26  C   UNL     1      39.752  40.010  65.462  1.00  0.00     0.011 A 
HETATM   27  C   UNL     1      39.018  41.047  64.882  1.00  0.00     0.037 A 
BRANCH  25  28
HETATM   28  C   UNL     1      41.139  37.871  65.348  1.00  0.00    -0.024 C 
HETATM   29  C   UNL     1      41.898  36.967  64.353  1.00  0.00     0.019 C 
HETATM   30  C   UNL     1      42.183  38.472  66.313  1.00  0.00     0.019 C 
HETATM   31  C   UNL     1      40.175  36.962  66.144  1.00  0.00     0.019 C 
ENDBRANCH  25  28
ENDBRANCH  21  22
ENDBRANCH  20  21
ENDBRANCH  19  20
ENDBRANCH  18  19
ENDBRANCH   6  18
BRANCH   1  32
HETATM   32  N   UNL     1      38.897  51.374  65.839  1.00  0.00    -0.305 N 
HETATM   33  C   UNL     1      37.996  52.131  66.551  1.00  0.00     0.219 C 
HETATM   34  C   UNL     1      37.336  51.529  67.759  1.00  0.00     0.117 C 
HETATM   35  O   UNL     1      37.750  53.280  66.181  1.00  0.00    -0.274 OA
HETATM   36  H   UNL     1      39.235  51.832  65.005  1.00  0.00     0.171 HD
ENDBRANCH   1  32
TORSDOF 7
ENDMDL
MODEL 6
REMARK VINA RESULT:      -7.2     13.120     15.542
REMARK  7 active torsions:
REMARK  status: ('A' for Active; 'I' for Inactive)
REMARK       I    between atoms: C_2  and  N_3 
REMARK    1  A    between atoms: N_3  and  C_4 
REMARK    2  A    between atoms: N_9  and  C_10 
REMARK    3  A    between atoms: C_10  and  C_11 
REMARK    4  A    between atoms: C_11  and  C_12 
REMARK    5  A    between atoms: C_12  and  O_13 
REMARK    6  A    between atoms: O_13  and  C_14 
REMARK    7  A    between atoms: C_17  and  C_18 
REMARK       I    between atoms: N_30  and  C_31 
ROOT
HETATM    1  C   UNL     1      17.313  51.493  46.077  1.00  0.00     0.191 C 
HETATM    2  S   UNL     1      18.753  50.560  45.828  1.00  0.00    -0.042 SA
HETATM    3  C   UNL     1      18.784  50.240  47.638  1.00  0.00     0.224 A 
HETATM    4  C   UNL     1      18.318  48.774  47.864  1.00  0.00     0.271 A 
HETATM    5  O   UNL     1      17.198  48.341  47.628  1.00  0.00    -0.269 OA
HETATM    6  N   UNL     1      19.429  48.062  48.354  1.00  0.00    -0.314 N 
HETATM    7  C   UNL     1      20.512  48.937  48.577  1.00  0.00     0.047 A 
HETATM    8  C   UNL     1      20.180  50.240  48.181  1.00  0.00     0.019 A 
HETATM    9  C   UNL     1      21.751  48.647  49.120  1.00  0.00     0.030 A 
HETATM   10  C   UNL     1      22.668  49.694  49.261  1.00  0.00     0.002 A 
HETATM   11  C   UNL     1      22.337  51.000  48.867  1.00  0.00     0.001 A 
HETATM   12  C   UNL     1      21.084  51.283  48.321  1.00  0.00     0.013 A 
HETATM   13  N   UNL     1      17.819  51.185  48.191  1.00  0.00    -0.201 N 
HETATM   14  C   UNL     1      17.579  51.274  49.552  1.00  0.00     0.238 C 
HETATM   15  C   UNL     1      16.477  52.221  49.958  1.00  0.00     0.119 C 
HETATM   16  O   UNL     1      18.200  50.626  50.394  1.00  0.00    -0.272 OA
HETATM   17  N   UNL     1      16.962  51.786  47.283  1.00  0.00    -0.141 NA
ENDROOT
BRANCH   6  18
HETATM   18  C   UNL     1      19.458  46.665  48.767  1.00  0.00     0.134 C 
BRANCH  18  19
HETATM   19  C   UNL     1      19.594  45.644  47.642  1.00  0.00     0.047 C 
BRANCH  19  20
HETATM   20  C   UNL     1      21.015  45.106  47.516  1.00  0.00     0.177 C 
BRANCH  20  21
HETATM   21  O   UNL     1      21.184  44.138  48.550  1.00  0.00    -0.351 OA
BRANCH  21  22
HETATM   22  C   UNL     1      22.347  44.161  49.261  1.00  0.00     0.068 A 
HETATM   23  C   UNL     1      22.888  43.108  49.991  1.00  0.00     0.037 A 
HETATM   24  C   UNL     1      24.092  43.279  50.693  1.00  0.00     0.011 A 
HETATM   25  C   UNL     1      24.785  44.501  50.680  1.00  0.00    -0.050 A 
HETATM   26  C   UNL     1      24.222  45.546  49.925  1.00  0.00     0.011 A 
HETATM   27  C   UNL     1      23.023  45.377  49.230  1.00  0.00     0.037 A 
BRANCH  25  28
HETATM   28  C   UNL     1      26.102  44.722  51.443  1.00  0.00    -0.024 C 
HETATM   29  C   UNL     1      26.243  43.850  52.709  1.00  0.00     0.019 C 
HETATM   30  C   UNL     1      27.294  44.391  50.520  1.00  0.00     0.019 C 
HETATM   31  C   UNL     1      26.202  46.197  51.892  1.00  0.00     0.019 C 
ENDBRANCH  25  28
ENDBRANCH  21  22
ENDBRANCH  20  21
ENDBRANCH  19  20
ENDBRANCH  18  19
ENDBRANCH   6  18
BRANCH   1  32
HETATM   32  N   UNL     1      16.677  51.848  44.923  1.00  0.00    -0.305 N 
HETATM   33  C   UNL     1      15.590  51.289  44.293  1.00  0.00     0.219 C 
HETATM   34  C   UNL     1      14.986  50.035  44.861  1.00  0.00     0.117 C 
HETATM   35  O   UNL     1      15.139  51.825  43.280  1.00  0.00    -0.274 OA
HETATM   36  H   UNL     1      17.059  52.643  44.432  1.00  0.00     0.171 HD
ENDBRANCH   1  32
TORSDOF 7
ENDMDL
MODEL 7
REMARK VINA RESULT:      -7.0      3.181      6.252
REMARK  7 active torsions:
REMARK  status: ('A' for Active; 'I' for Inactive)
REMARK       I    between atoms: C_2  and  N_3 
REMARK    1  A    between atoms: N_3  and  C_4 
REMARK    2  A    between atoms: N_9  and  C_10 
REMARK    3  A    between atoms: C_10  and  C_11 
REMARK    4  A    between atoms: C_11  and  C_12 
REMARK    5  A    between atoms: C_12  and  O_13 
REMARK    6  A    between atoms: O_13  and  C_14 
REMARK    7  A    between atoms: C_17  and  C_18 
REMARK       I    between atoms: N_30  and  C_31 
ROOT
HETATM    1  C   UNL     1      29.681  50.111  41.377  1.00  0.00     0.191 C 
HETATM    2  S   UNL     1      28.970  48.532  41.453  1.00  0.00    -0.042 SA
HETATM    3  C   UNL     1      28.271  48.833  39.780  1.00  0.00     0.224 A 
HETATM    4  C   UNL     1      29.106  48.002  38.765  1.00  0.00     0.271 A 
HETATM    5  O   UNL     1      30.287  48.186  38.498  1.00  0.00    -0.269 OA
HETATM    6  N   UNL     1      28.255  47.004  38.254  1.00  0.00    -0.314 N 
HETATM    7  C   UNL     1      26.943  47.183  38.741  1.00  0.00     0.047 A 
HETATM    8  C   UNL     1      26.895  48.258  39.638  1.00  0.00     0.019 A 
HETATM    9  C   UNL     1      25.805  46.464  38.422  1.00  0.00     0.030 A 
HETATM   10  C   UNL     1      24.600  46.840  39.023  1.00  0.00     0.002 A 
HETATM   11  C   UNL     1      24.549  47.918  39.921  1.00  0.00     0.001 A 
HETATM   12  C   UNL     1      25.702  48.638  40.237  1.00  0.00     0.013 A 
HETATM   13  N   UNL     1      28.457  50.264  39.561  1.00  0.00    -0.201 N 
HETATM   14  C   UNL     1      28.020  50.890  38.405  1.00  0.00     0.238 C 
HETATM   15  C   UNL     1      28.381  52.349  38.279  1.00  0.00     0.119 C 
HETATM   16  O   UNL     1      27.390  50.314  37.519  1.00  0.00    -0.272 OA
HETATM   17  N   UNL     1      29.326  50.908  40.427  1.00  0.00    -0.141 NA
ENDROOT
BRANCH   6  18
HETATM   18  C   UNL     1      28.579  46.022  37.227  1.00  0.00     0.134 C 
BRANCH  18  19
HETATM   19  C   UNL     1      29.387  44.816  37.696  1.00  0.00     0.047 C 
BRANCH  19  20
HETATM   20  C   UNL     1      28.503  43.718  38.279  1.00  0.00     0.177 C 
BRANCH  20  21
HETATM   21  O   UNL     1      28.616  43.807  39.699  1.00  0.00    -0.351 OA
BRANCH  21  22
HETATM   22  C   UNL     1      27.479  44.035  40.415  1.00  0.00     0.068 A 
HETATM   23  C   UNL     1      27.307  44.996  41.405  1.00  0.00     0.037 A 
HETATM   24  C   UNL     1      26.078  45.109  42.076  1.00  0.00     0.011 A 
HETATM   25  C   UNL     1      24.994  44.268  41.774  1.00  0.00    -0.050 A 
HETATM   26  C   UNL     1      25.191  43.310  40.762  1.00  0.00     0.011 A 
HETATM   27  C   UNL     1      26.414  43.197  40.097  1.00  0.00     0.037 A 
BRANCH  25  28
HETATM   28  C   UNL     1      23.639  44.360  42.495  1.00  0.00    -0.024 C 
HETATM   29  C   UNL     1      22.899  45.695  42.263  1.00  0.00     0.019 C 
HETATM   30  C   UNL     1      22.714  43.228  42.000  1.00  0.00     0.019 C 
HETATM   31  C   UNL     1      23.849  44.214  44.019  1.00  0.00     0.019 C 
ENDBRANCH  25  28
ENDBRANCH  21  22
ENDBRANCH  20  21
ENDBRANCH  19  20
ENDBRANCH  18  19
ENDBRANCH   6  18
BRANCH   1  32
HETATM   32  N   UNL     1      30.572  50.367  42.378  1.00  0.00    -0.305 N 
HETATM   33  C   UNL     1      31.923  50.124  42.456  1.00  0.00     0.219 C 
HETATM   34  C   UNL     1      32.597  49.396  41.327  1.00  0.00     0.117 C 
HETATM   35  O   UNL     1      32.548  50.505  43.447  1.00  0.00    -0.274 OA
HETATM   36  H   UNL     1      30.193  50.795  43.211  1.00  0.00     0.171 HD
ENDBRANCH   1  32
TORSDOF 7
ENDMDL
MODEL 8
REMARK VINA RESULT:      -6.9      2.215      3.058
REMARK  7 active torsions:
REMARK  status: ('A' for Active; 'I' for Inactive)
REMARK       I    between atoms: C_2  and  N_3 
REMARK    1  A    between atoms: N_3  and  C_4 
REMARK    2  A    between atoms: N_9  and  C_10 
REMARK    3  A    between atoms: C_10  and  C_11 
REMARK    4  A    between atoms: C_11  and  C_12 
REMARK    5  A    between atoms: C_12  and  O_13 
REMARK    6  A    between atoms: O_13  and  C_14 
REMARK    7  A    between atoms: C_17  and  C_18 
REMARK       I    between atoms: N_30  and  C_31 
ROOT
HETATM    1  C   UNL     1      33.170  52.480  39.748  1.00  0.00     0.191 C 
HETATM    2  S   UNL     1      32.530  51.411  38.543  1.00  0.00    -0.042 SA
HETATM    3  C   UNL     1      31.208  50.956  39.736  1.00  0.00     0.224 A 
HETATM    4  C   UNL     1      29.899  51.658  39.276  1.00  0.00     0.271 A 
HETATM    5  O   UNL     1      29.711  52.868  39.257  1.00  0.00    -0.269 OA
HETATM    6  N   UNL     1      29.011  50.644  38.869  1.00  0.00    -0.314 N 
HETATM    7  C   UNL     1      29.566  49.374  39.132  1.00  0.00     0.047 A 
HETATM    8  C   UNL     1      30.859  49.501  39.656  1.00  0.00     0.019 A 
HETATM    9  C   UNL     1      28.986  48.131  38.949  1.00  0.00     0.030 A 
HETATM   10  C   UNL     1      29.730  47.000  39.301  1.00  0.00     0.002 A 
HETATM   11  C   UNL     1      31.025  47.126  39.828  1.00  0.00     0.001 A 
HETATM   12  C   UNL     1      31.602  48.384  40.009  1.00  0.00     0.013 A 
HETATM   13  N   UNL     1      31.668  51.495  41.012  1.00  0.00    -0.201 N 
HETATM   14  C   UNL     1      30.947  51.326  42.181  1.00  0.00     0.238 C 
HETATM   15  C   UNL     1      31.497  52.033  43.394  1.00  0.00     0.119 C 
HETATM   16  O   UNL     1      29.914  50.659  42.250  1.00  0.00    -0.272 OA
HETATM   17  N   UNL     1      32.706  52.411  40.950  1.00  0.00    -0.141 NA
ENDROOT
BRANCH   6  18
HETATM   18  C   UNL     1      27.637  50.816  38.415  1.00  0.00     0.134 C 
BRANCH  18  19
HETATM   19  C   UNL     1      26.555  50.347  39.382  1.00  0.00     0.047 C 
BRANCH  19  20
HETATM   20  C   UNL     1      25.409  49.639  38.669  1.00  0.00     0.177 C 
BRANCH  20  21
HETATM   21  O   UNL     1      24.839  48.726  39.606  1.00  0.00    -0.351 OA
BRANCH  21  22
HETATM   22  C   UNL     1      25.435  47.509  39.753  1.00  0.00     0.068 A 
HETATM   23  C   UNL     1      25.938  46.974  40.934  1.00  0.00     0.037 A 
HETATM   24  C   UNL     1      26.543  45.707  40.936  1.00  0.00     0.011 A 
HETATM   25  C   UNL     1      26.659  44.945  39.761  1.00  0.00    -0.050 A 
HETATM   26  C   UNL     1      26.134  45.504  38.582  1.00  0.00     0.011 A 
HETATM   27  C   UNL     1      25.534  46.765  38.580  1.00  0.00     0.037 A 
BRANCH  25  28
HETATM   28  C   UNL     1      27.323  43.558  39.728  1.00  0.00    -0.024 C 
HETATM   29  C   UNL     1      28.694  43.540  39.017  1.00  0.00     0.019 C 
HETATM   30  C   UNL     1      27.547  43.059  41.171  1.00  0.00     0.019 C 
HETATM   31  C   UNL     1      26.410  42.561  38.981  1.00  0.00     0.019 C 
ENDBRANCH  25  28
ENDBRANCH  21  22
ENDBRANCH  20  21
ENDBRANCH  19  20
ENDBRANCH  18  19
ENDBRANCH   6  18
BRANCH   1  32
HETATM   32  N   UNL     1      34.148  53.312  39.287  1.00  0.00    -0.305 N 
HETATM   33  C   UNL     1      35.513  53.148  39.242  1.00  0.00     0.219 C 
HETATM   34  C   UNL     1      36.116  51.910  39.844  1.00  0.00     0.117 C 
HETATM   35  O   UNL     1      36.207  54.018  38.714  1.00  0.00    -0.274 OA
HETATM   36  H   UNL     1      33.840  54.202  38.926  1.00  0.00     0.171 HD
ENDBRANCH   1  32
TORSDOF 7
ENDMDL
MODEL 9
REMARK VINA RESULT:      -6.8     24.500     27.467
REMARK  7 active torsions:
REMARK  status: ('A' for Active; 'I' for Inactive)
REMARK       I    between atoms: C_2  and  N_3 
REMARK    1  A    between atoms: N_3  and  C_4 
REMARK    2  A    between atoms: N_9  and  C_10 
REMARK    3  A    between atoms: C_10  and  C_11 
REMARK    4  A    between atoms: C_11  and  C_12 
REMARK    5  A    between atoms: C_12  and  O_13 
REMARK    6  A    between atoms: O_13  and  C_14 
REMARK    7  A    between atoms: C_17  and  C_18 
REMARK       I    between atoms: N_30  and  C_31 
ROOT
HETATM    1  C   UNL     1      39.768  46.573  66.547  1.00  0.00     0.191 C 
HETATM    2  S   UNL     1      39.390  44.905  66.831  1.00  0.00    -0.042 SA
HETATM    3  C   UNL     1      38.113  45.034  65.515  1.00  0.00     0.224 A 
HETATM    4  C   UNL     1      38.664  44.310  64.254  1.00  0.00     0.271 A 
HETATM    5  O   UNL     1      39.632  44.668  63.596  1.00  0.00    -0.269 OA
HETATM    6  N   UNL     1      37.859  43.174  64.049  1.00  0.00    -0.314 N 
HETATM    7  C   UNL     1      36.788  43.161  64.967  1.00  0.00     0.047 A 
HETATM    8  C   UNL     1      36.884  44.245  65.849  1.00  0.00     0.019 A 
HETATM    9  C   UNL     1      35.740  42.261  65.049  1.00  0.00     0.030 A 
HETATM   10  C   UNL     1      34.776  42.464  66.042  1.00  0.00     0.002 A 
HETATM   11  C   UNL     1      34.870  43.551  66.926  1.00  0.00     0.001 A 
HETATM   12  C   UNL     1      35.930  44.454  66.835  1.00  0.00     0.013 A 
HETATM   13  N   UNL     1      37.980  46.468  65.277  1.00  0.00    -0.201 N 
HETATM   14  C   UNL     1      37.075  46.977  64.361  1.00  0.00     0.238 C 
HETATM   15  C   UNL     1      37.132  48.470  64.150  1.00  0.00     0.119 C 
HETATM   16  O   UNL     1      36.276  46.279  63.737  1.00  0.00    -0.272 OA
HETATM   17  N   UNL     1      38.982  47.270  65.799  1.00  0.00    -0.141 NA
ENDROOT
BRANCH   6  18
HETATM   18  C   UNL     1      37.957  42.219  62.952  1.00  0.00     0.134 C 
BRANCH  18  19
HETATM   19  C   UNL     1      39.219  41.363  62.930  1.00  0.00     0.047 C 
BRANCH  19  20
HETATM   20  C   UNL     1      39.319  40.448  64.146  1.00  0.00     0.177 C 
BRANCH  20  21
HETATM   21  O   UNL     1      40.639  39.905  64.147  1.00  0.00    -0.351 OA
BRANCH  21  22
HETATM   22  C   UNL     1      40.827  38.692  64.739  1.00  0.00     0.068 A 
HETATM   23  C   UNL     1      41.778  37.741  64.384  1.00  0.00     0.037 A 
HETATM   24  C   UNL     1      41.850  36.520  65.074  1.00  0.00     0.011 A 
HETATM   25  C   UNL     1      40.977  36.221  66.134  1.00  0.00    -0.050 A 
HETATM   26  C   UNL     1      40.031  37.203  66.479  1.00  0.00     0.011 A 
HETATM   27  C   UNL     1      39.959  38.416  65.791  1.00  0.00     0.037 A 
BRANCH  25  28
HETATM   28  C   UNL     1      41.024  34.891  66.904  1.00  0.00    -0.024 C 
HETATM   29  C   UNL     1      40.881  33.644  66.005  1.00  0.00     0.019 C 
HETATM   30  C   UNL     1      42.373  34.772  67.645  1.00  0.00     0.019 C 
HETATM   31  C   UNL     1      39.873  34.844  67.934  1.00  0.00     0.019 C 
ENDBRANCH  25  28
ENDBRANCH  21  22
ENDBRANCH  20  21
ENDBRANCH  19  20
ENDBRANCH  18  19
ENDBRANCH   6  18
BRANCH   1  32
HETATM   32  N   UNL     1      40.899  46.999  67.181  1.00  0.00    -0.305 N 
HETATM   33  C   UNL     1      42.175  47.182  66.704  1.00  0.00     0.219 C 
HETATM   34  C   UNL     1      42.481  46.805  65.281  1.00  0.00     0.117 C 
HETATM   35  O   UNL     1      43.037  47.646  67.451  1.00  0.00    -0.274 OA
HETATM   36  H   UNL     1      40.804  47.211  68.163  1.00  0.00     0.171 HD
ENDBRANCH   1  32
TORSDOF 7
ENDMDL
MODEL 10
REMARK VINA RESULT:      -6.8     24.748     27.734
REMARK  7 active torsions:
REMARK  status: ('A' for Active; 'I' for Inactive)
REMARK       I    between atoms: C_2  and  N_3 
REMARK    1  A    between atoms: N_3  and  C_4 
REMARK    2  A    between atoms: N_9  and  C_10 
REMARK    3  A    between atoms: C_10  and  C_11 
REMARK    4  A    between atoms: C_11  and  C_12 
REMARK    5  A    between atoms: C_12  and  O_13 
REMARK    6  A    between atoms: O_13  and  C_14 
REMARK    7  A    between atoms: C_17  and  C_18 
REMARK       I    between atoms: N_30  and  C_31 
ROOT
HETATM    1  C   UNL     1      38.472  42.030  65.150  1.00  0.00     0.191 C 
HETATM    2  S   UNL     1      39.219  43.593  65.199  1.00  0.00    -0.042 SA
HETATM    3  C   UNL     1      37.634  44.263  65.845  1.00  0.00     0.224 A 
HETATM    4  C   UNL     1      37.823  44.534  67.365  1.00  0.00     0.271 A 
HETATM    5  O   UNL     1      38.015  43.680  68.220  1.00  0.00    -0.269 OA
HETATM    6  N   UNL     1      37.760  45.930  67.543  1.00  0.00    -0.314 N 
HETATM    7  C   UNL     1      37.433  46.564  66.326  1.00  0.00     0.047 A 
HETATM    8  C   UNL     1      37.335  45.623  65.292  1.00  0.00     0.019 A 
HETATM    9  C   UNL     1      37.204  47.909  66.095  1.00  0.00     0.030 A 
HETATM   10  C   UNL     1      36.874  48.305  64.795  1.00  0.00     0.002 A 
HETATM   11  C   UNL     1      36.774  47.364  63.758  1.00  0.00     0.001 A 
HETATM   12  C   UNL     1      37.006  46.009  64.001  1.00  0.00     0.013 A 
HETATM   13  N   UNL     1      36.669  43.191  65.623  1.00  0.00    -0.201 N 
HETATM   14  C   UNL     1      35.332  43.329  65.955  1.00  0.00     0.238 C 
HETATM   15  C   UNL     1      34.483  42.097  65.766  1.00  0.00     0.119 C 
HETATM   16  O   UNL     1      34.846  44.374  66.390  1.00  0.00    -0.272 OA
HETATM   17  N   UNL     1      37.197  41.944  65.328  1.00  0.00    -0.141 NA
ENDROOT
BRANCH   6  18
HETATM   18  C   UNL     1      37.826  46.653  68.806  1.00  0.00     0.134 C 
BRANCH  18  19
HETATM   19  C   UNL     1      39.229  46.941  69.332  1.00  0.00     0.047 C 
BRANCH  19  20
HETATM   20  C   UNL     1      39.565  48.428  69.300  1.00  0.00     0.177 C 
BRANCH  20  21
HETATM   21  O   UNL     1      39.871  48.754  67.945  1.00  0.00    -0.351 OA
BRANCH  21  22
HETATM   22  C   UNL     1      41.010  48.233  67.406  1.00  0.00     0.068 A 
HETATM   23  C   UNL     1      42.259  48.178  68.015  1.00  0.00     0.037 A 
HETATM   24  C   UNL     1      43.355  47.625  67.333  1.00  0.00     0.011 A 
HETATM   25  C   UNL     1      43.229  47.113  66.030  1.00  0.00    -0.050 A 
HETATM   26  C   UNL     1      41.953  47.172  65.441  1.00  0.00     0.011 A 
HETATM   27  C   UNL     1      40.864  47.724  66.118  1.00  0.00     0.037 A 
BRANCH  25  28
HETATM   28  C   UNL     1      44.411  46.508  65.253  1.00  0.00    -0.024 C 
HETATM   29  C   UNL     1      45.018  45.254  65.919  1.00  0.00     0.019 C 
HETATM   30  C   UNL     1      43.942  46.098  63.841  1.00  0.00     0.019 C 
HETATM   31  C   UNL     1      45.543  47.551  65.130  1.00  0.00     0.019 C 
ENDBRANCH  25  28
ENDBRANCH  21  22
ENDBRANCH  20  21
ENDBRANCH  19  20
ENDBRANCH  18  19
ENDBRANCH   6  18
BRANCH   1  32
HETATM   32  N   UNL     1      39.341  41.008  64.905  1.00  0.00    -0.305 N 
HETATM   33  C   UNL     1      39.709  40.411  63.722  1.00  0.00     0.219 C 
HETATM   34  C   UNL     1      39.036  40.844  62.450  1.00  0.00     0.117 C 
HETATM   35  O   UNL     1      40.575  39.535  63.732  1.00  0.00    -0.274 OA
HETATM   36  H   UNL     1      39.791  40.604  65.714  1.00  0.00     0.171 HD
ENDBRANCH   1  32
TORSDOF 7
ENDMDL
