MODEL 1
REMARK VINA RESULT:      -8.2      0.000      0.000
REMARK  6 active torsions:
REMARK  status: ('A' for Active; 'I' for Inactive)
REMARK    1  A    between atoms: C_2  and  C_3 
REMARK    2  A    between atoms: C_3  and  N_4 
REMARK       I    between atoms: N_4  and  C_5 
REMARK    3  A    between atoms: C_5  and  C_6 
REMARK    4  A    between atoms: C_11  and  C_12 
REMARK    5  A    between atoms: C_15  and  O_16 
REMARK    6  A    between atoms: C_21  and  C_22 
ROOT
HETATM    1  C   UNL     1      27.229  41.453  50.358  1.00  0.00     0.170 A 
HETATM    2  N   UNL     1      27.773  42.236  51.323  1.00  0.00    -0.163 NA
HETATM    3  N   UNL     1      26.736  42.964  51.771  1.00  0.00    -0.238 N 
HETATM    4  C   UNL     1      25.578  42.762  51.069  1.00  0.00     0.145 A 
HETATM    5  N   UNL     1      24.478  43.530  51.291  1.00  0.00    -0.365 N 
HETATM    6  C   UNL     1      24.601  44.793  52.019  1.00  0.00     0.118 C 
HETATM    7  C   UNL     1      25.544  44.567  53.212  1.00  0.00     0.066 C 
HETATM    8  C   UNL     1      26.911  44.014  52.763  1.00  0.00     0.221 C 
HETATM    9  C   UNL     1      25.849  41.746  50.181  1.00  0.00     0.115 A 
HETATM   10 CL   UNL     1      24.772  41.069  49.058  1.00  0.00    -0.077 Cl
HETATM   11  H   UNL     1      23.707  43.494  50.624  1.00  0.00     0.162 HD
ENDROOT
BRANCH   6  12
HETATM   12  C   UNL     1      25.015  45.968  51.141  1.00  0.00    -0.035 A 
HETATM   13  C   UNL     1      26.213  46.678  51.316  1.00  0.00     0.012 A 
HETATM   14  C   UNL     1      26.536  47.760  50.490  1.00  0.00     0.037 A 
HETATM   15  C   UNL     1      25.682  48.157  49.464  1.00  0.00     0.068 A 
HETATM   16  C   UNL     1      24.496  47.455  49.265  1.00  0.00     0.037 A 
HETATM   17  C   UNL     1      24.171  46.370  50.090  1.00  0.00     0.012 A 
BRANCH  15  18
HETATM   18  O   UNL     1      26.120  49.229  48.740  1.00  0.00    -0.356 OA
HETATM   19  C   UNL     1      27.485  49.596  48.892  1.00  0.00     0.210 C 
ENDBRANCH  15  18
ENDBRANCH   6  12
BRANCH   8  20
HETATM   20  C   UNL     1      27.677  43.519  53.970  1.00  0.00     0.409 C 
HETATM   21  F   UNL     1      29.016  43.540  53.801  1.00  0.00    -0.169 F 
HETATM   22  F   UNL     1      27.418  44.320  55.037  1.00  0.00    -0.169 F 
HETATM   23  F   UNL     1      27.317  42.267  54.331  1.00  0.00    -0.169 F 
ENDBRANCH   8  20
BRANCH   1  24
HETATM   24  C   UNL     1      28.063  40.496  49.613  1.00  0.00     0.273 C 
HETATM   25  N   UNL     1      28.218  39.295  50.274  1.00  0.00    -0.356 N 
HETATM   26  H   UNL     1      27.786  39.245  51.194  1.00  0.00     0.162 HD
HETATM   27  O   UNL     1      28.591  40.744  48.535  1.00  0.00    -0.266 OA
BRANCH  25  28
HETATM   28  C   UNL     1      29.130  38.265  49.835  1.00  0.00     0.122 C 
BRANCH  28  29
HETATM   29  C   UNL     1      30.158  37.901  50.905  1.00  0.00     0.015 C 
HETATM   30  C   UNL     1      29.859  36.569  51.578  1.00  0.00     0.006 C 
ENDBRANCH  28  29
ENDBRANCH  25  28
ENDBRANCH   1  24
TORSDOF 6
ENDMDL
MODEL 2
REMARK VINA RESULT:      -7.8      3.650      7.520
REMARK  6 active torsions:
REMARK  status: ('A' for Active; 'I' for Inactive)
REMARK    1  A    between atoms: C_2  and  C_3 
REMARK    2  A    between atoms: C_3  and  N_4 
REMARK       I    between atoms: N_4  and  C_5 
REMARK    3  A    between atoms: C_5  and  C_6 
REMARK    4  A    between atoms: C_11  and  C_12 
REMARK    5  A    between atoms: C_15  and  O_16 
REMARK    6  A    between atoms: C_21  and  C_22 
ROOT
HETATM    1  C   UNL     1      26.563  46.582  50.299  1.00  0.00     0.170 A 
HETATM    2  N   UNL     1      27.116  45.387  49.976  1.00  0.00    -0.163 NA
HETATM    3  N   UNL     1      26.775  44.584  50.999  1.00  0.00    -0.238 N 
HETATM    4  C   UNL     1      26.119  45.233  52.012  1.00  0.00     0.145 A 
HETATM    5  N   UNL     1      25.840  44.604  53.184  1.00  0.00    -0.365 N 
HETATM    6  C   UNL     1      26.522  43.356  53.528  1.00  0.00     0.118 C 
HETATM    7  C   UNL     1      26.580  42.480  52.265  1.00  0.00     0.066 C 
HETATM    8  C   UNL     1      27.257  43.216  51.091  1.00  0.00     0.221 C 
HETATM    9  C   UNL     1      25.916  46.519  51.564  1.00  0.00     0.115 A 
HETATM   10 CL   UNL     1      25.138  47.771  52.405  1.00  0.00    -0.077 Cl
HETATM   11  H   UNL     1      25.538  45.161  53.984  1.00  0.00     0.162 HD
ENDROOT
BRANCH   6  12
HETATM   12  C   UNL     1      27.886  43.563  54.178  1.00  0.00    -0.035 A 
HETATM   13  C   UNL     1      28.909  42.604  54.145  1.00  0.00     0.012 A 
HETATM   14  C   UNL     1      30.137  42.839  54.772  1.00  0.00     0.037 A 
HETATM   15  C   UNL     1      30.381  44.038  55.440  1.00  0.00     0.068 A 
HETATM   16  C   UNL     1      29.383  45.008  55.468  1.00  0.00     0.037 A 
HETATM   17  C   UNL     1      28.153  44.774  54.840  1.00  0.00     0.012 A 
BRANCH  15  18
HETATM   18  O   UNL     1      31.619  44.132  56.009  1.00  0.00    -0.356 OA
HETATM   19  C   UNL     1      31.844  43.378  57.193  1.00  0.00     0.210 C 
ENDBRANCH  15  18
ENDBRANCH   6  12
BRANCH   8  20
HETATM   20  C   UNL     1      27.013  42.451  49.809  1.00  0.00     0.409 C 
HETATM   21  F   UNL     1      28.107  41.805  49.353  1.00  0.00    -0.169 F 
HETATM   22  F   UNL     1      26.070  41.494  50.019  1.00  0.00    -0.169 F 
HETATM   23  F   UNL     1      26.546  43.241  48.817  1.00  0.00    -0.169 F 
ENDBRANCH   8  20
BRANCH   1  24
HETATM   24  C   UNL     1      26.719  47.744  49.410  1.00  0.00     0.273 C 
HETATM   25  N   UNL     1      25.576  48.512  49.328  1.00  0.00    -0.356 N 
HETATM   26  H   UNL     1      24.774  48.156  49.843  1.00  0.00     0.162 HD
HETATM   27  O   UNL     1      27.743  47.992  48.783  1.00  0.00    -0.266 OA
BRANCH  25  28
HETATM   28  C   UNL     1      25.421  49.598  48.390  1.00  0.00     0.122 C 
BRANCH  28  29
HETATM   29  C   UNL     1      23.959  49.851  48.026  1.00  0.00     0.015 C 
HETATM   30  C   UNL     1      23.289  50.856  48.952  1.00  0.00     0.006 C 
ENDBRANCH  28  29
ENDBRANCH  25  28
ENDBRANCH   1  24
TORSDOF 6
ENDMDL
MODEL 3
REMARK VINA RESULT:      -7.7     12.457     15.526
REMARK  6 active torsions:
REMARK  status: ('A' for Active; 'I' for Inactive)
REMARK    1  A    between atoms: C_2  and  C_3 
REMARK    2  A    between atoms: C_3  and  N_4 
REMARK       I    between atoms: N_4  and  C_5 
REMARK    3  A    between atoms: C_5  and  C_6 
REMARK    4  A    between atoms: C_11  and  C_12 
REMARK    5  A    between atoms: C_15  and  O_16 
REMARK    6  A    between atoms: C_21  and  C_22 
ROOT
HETATM    1  C   UNL     1      33.313  52.067  40.175  1.00  0.00     0.170 A 
HETATM    2  N   UNL     1      32.066  52.277  39.682  1.00  0.00    -0.163 NA
HETATM    3  N   UNL     1      31.262  51.655  40.561  1.00  0.00    -0.238 N 
HETATM    4  C   UNL     1      31.938  50.968  41.535  1.00  0.00     0.145 A 
HETATM    5  N   UNL     1      31.280  50.161  42.409  1.00  0.00    -0.365 N 
HETATM    6  C   UNL     1      29.910  49.734  42.127  1.00  0.00     0.118 C 
HETATM    7  C   UNL     1      29.136  50.947  41.583  1.00  0.00     0.066 C 
HETATM    8  C   UNL     1      29.826  51.559  40.348  1.00  0.00     0.221 C 
HETATM    9  C   UNL     1      33.269  51.261  41.346  1.00  0.00     0.115 A 
HETATM   10 CL   UNL     1      34.572  50.692  42.273  1.00  0.00    -0.077 Cl
HETATM   11  H   UNL     1      31.820  49.513  42.985  1.00  0.00     0.162 HD
ENDROOT
BRANCH   6  12
HETATM   12  C   UNL     1      29.823  48.512  41.220  1.00  0.00    -0.035 A 
HETATM   13  C   UNL     1      30.928  47.970  40.546  1.00  0.00     0.012 A 
HETATM   14  C   UNL     1      30.788  46.855  39.714  1.00  0.00     0.037 A 
HETATM   15  C   UNL     1      29.549  46.245  39.537  1.00  0.00     0.068 A 
HETATM   16  C   UNL     1      28.443  46.758  40.211  1.00  0.00     0.037 A 
HETATM   17  C   UNL     1      28.582  47.874  41.046  1.00  0.00     0.012 A 
BRANCH  15  18
HETATM   18  O   UNL     1      29.556  45.169  38.695  1.00  0.00    -0.356 OA
HETATM   19  C   UNL     1      28.748  44.058  39.060  1.00  0.00     0.210 C 
ENDBRANCH  15  18
ENDBRANCH   6  12
BRANCH   8  20
HETATM   20  C   UNL     1      29.216  52.909  40.046  1.00  0.00     0.409 C 
HETATM   21  F   UNL     1      29.020  53.126  38.728  1.00  0.00    -0.169 F 
HETATM   22  F   UNL     1      27.990  52.999  40.629  1.00  0.00    -0.169 F 
HETATM   23  F   UNL     1      29.952  53.930  40.537  1.00  0.00    -0.169 F 
ENDBRANCH   8  20
BRANCH   1  24
HETATM   24  C   UNL     1      34.493  52.602  39.477  1.00  0.00     0.273 C 
HETATM   25  N   UNL     1      34.641  53.964  39.646  1.00  0.00    -0.356 N 
HETATM   26  H   UNL     1      33.904  54.419  40.179  1.00  0.00     0.162 HD
HETATM   27  O   UNL     1      35.250  51.923  38.793  1.00  0.00    -0.266 OA
BRANCH  25  28
HETATM   28  C   UNL     1      35.614  54.746  38.922  1.00  0.00     0.122 C 
BRANCH  28  29
HETATM   29  C   UNL     1      35.873  56.104  39.574  1.00  0.00     0.015 C 
HETATM   30  C   UNL     1      34.649  57.009  39.552  1.00  0.00     0.006 C 
ENDBRANCH  28  29
ENDBRANCH  25  28
ENDBRANCH   1  24
TORSDOF 6
ENDMDL
MODEL 4
REMARK VINA RESULT:      -7.6      9.530     13.414
REMARK  6 active torsions:
REMARK  status: ('A' for Active; 'I' for Inactive)
REMARK    1  A    between atoms: C_2  and  C_3 
REMARK    2  A    between atoms: C_3  and  N_4 
REMARK       I    between atoms: N_4  and  C_5 
REMARK    3  A    between atoms: C_5  and  C_6 
REMARK    4  A    between atoms: C_11  and  C_12 
REMARK    5  A    between atoms: C_15  and  O_16 
REMARK    6  A    between atoms: C_21  and  C_22 
ROOT
HETATM    1  C   UNL     1      16.320  51.548  47.717  1.00  0.00     0.170 A 
HETATM    2  N   UNL     1      16.570  50.269  47.340  1.00  0.00    -0.163 NA
HETATM    3  N   UNL     1      17.300  49.769  48.351  1.00  0.00    -0.238 N 
HETATM    4  C   UNL     1      17.619  50.696  49.309  1.00  0.00     0.145 A 
HETATM    5  N   UNL     1      18.479  50.395  50.318  1.00  0.00    -0.365 N 
HETATM    6  C   UNL     1      19.342  49.218  50.220  1.00  0.00     0.118 C 
HETATM    7  C   UNL     1      18.507  48.059  49.650  1.00  0.00     0.066 C 
HETATM    8  C   UNL     1      17.864  48.430  48.298  1.00  0.00     0.221 C 
HETATM    9  C   UNL     1      16.951  51.846  48.956  1.00  0.00     0.115 A 
HETATM   10 CL   UNL     1      16.970  53.323  49.791  1.00  0.00    -0.077 Cl
HETATM   11  H   UNL     1      18.852  51.152  50.892  1.00  0.00     0.162 HD
ENDROOT
BRANCH   6  12
HETATM   12  C   UNL     1      20.631  49.465  49.445  1.00  0.00    -0.035 A 
HETATM   13  C   UNL     1      21.212  50.734  49.298  1.00  0.00     0.012 A 
HETATM   14  C   UNL     1      22.389  50.907  48.562  1.00  0.00     0.037 A 
HETATM   15  C   UNL     1      23.022  49.821  47.960  1.00  0.00     0.068 A 
HETATM   16  C   UNL     1      22.470  48.552  48.109  1.00  0.00     0.037 A 
HETATM   17  C   UNL     1      21.292  48.377  48.847  1.00  0.00     0.012 A 
BRANCH  15  18
HETATM   18  O   UNL     1      24.159  50.134  47.270  1.00  0.00    -0.356 OA
HETATM   19  C   UNL     1      25.386  50.068  47.984  1.00  0.00     0.210 C 
ENDBRANCH  15  18
ENDBRANCH   6  12
BRANCH   8  20
HETATM   20  C   UNL     1      16.818  47.398  47.938  1.00  0.00     0.409 C 
HETATM   21  F   UNL     1      16.717  47.179  46.609  1.00  0.00    -0.169 F 
HETATM   22  F   UNL     1      17.144  46.201  48.494  1.00  0.00    -0.169 F 
HETATM   23  F   UNL     1      15.592  47.720  48.406  1.00  0.00    -0.169 F 
ENDBRANCH   8  20
BRANCH   1  24
HETATM   24  C   UNL     1      15.532  52.442  46.854  1.00  0.00     0.273 C 
HETATM   25  N   UNL     1      14.816  53.380  47.569  1.00  0.00    -0.356 N 
HETATM   26  H   UNL     1      14.886  53.303  48.581  1.00  0.00     0.162 HD
HETATM   27  O   UNL     1      15.487  52.349  45.632  1.00  0.00    -0.266 OA
BRANCH  25  28
HETATM   28  C   UNL     1      13.836  54.251  46.966  1.00  0.00     0.122 C 
BRANCH  28  29
HETATM   29  C   UNL     1      13.718  55.590  47.693  1.00  0.00     0.015 C 
HETATM   30  C   UNL     1      14.240  55.530  49.122  1.00  0.00     0.006 C 
ENDBRANCH  28  29
ENDBRANCH  25  28
ENDBRANCH   1  24
TORSDOF 6
ENDMDL
MODEL 5
REMARK VINA RESULT:      -7.5      7.365     10.279
REMARK  6 active torsions:
REMARK  status: ('A' for Active; 'I' for Inactive)
REMARK    1  A    between atoms: C_2  and  C_3 
REMARK    2  A    between atoms: C_3  and  N_4 
REMARK       I    between atoms: N_4  and  C_5 
REMARK    3  A    between atoms: C_5  and  C_6 
REMARK    4  A    between atoms: C_11  and  C_12 
REMARK    5  A    between atoms: C_15  and  O_16 
REMARK    6  A    between atoms: C_21  and  C_22 
ROOT
HETATM    1  C   UNL     1      22.530  49.451  48.475  1.00  0.00     0.170 A 
HETATM    2  N   UNL     1      21.523  50.360  48.468  1.00  0.00    -0.163 NA
HETATM    3  N   UNL     1      20.474  49.685  48.969  1.00  0.00    -0.238 N 
HETATM    4  C   UNL     1      20.732  48.360  49.199  1.00  0.00     0.145 A 
HETATM    5  N   UNL     1      19.739  47.503  49.559  1.00  0.00    -0.365 N 
HETATM    6  C   UNL     1      18.339  47.884  49.375  1.00  0.00     0.118 C 
HETATM    7  C   UNL     1      18.183  49.351  49.809  1.00  0.00     0.066 C 
HETATM    8  C   UNL     1      19.149  50.279  49.045  1.00  0.00     0.221 C 
HETATM    9  C   UNL     1      22.073  48.188  48.942  1.00  0.00     0.115 A 
HETATM   10 CL   UNL     1      22.951  46.741  49.071  1.00  0.00    -0.077 Cl
HETATM   11  H   UNL     1      19.917  46.499  49.526  1.00  0.00     0.162 HD
ENDROOT
BRANCH   6  12
HETATM   12  C   UNL     1      17.809  47.615  47.972  1.00  0.00    -0.035 A 
HETATM   13  C   UNL     1      18.557  46.968  46.976  1.00  0.00     0.012 A 
HETATM   14  C   UNL     1      18.026  46.760  45.698  1.00  0.00     0.037 A 
HETATM   15  C   UNL     1      16.737  47.182  45.381  1.00  0.00     0.068 A 
HETATM   16  C   UNL     1      15.974  47.810  46.362  1.00  0.00     0.037 A 
HETATM   17  C   UNL     1      16.503  48.019  47.642  1.00  0.00     0.012 A 
BRANCH  15  18
HETATM   18  O   UNL     1      16.349  46.918  44.098  1.00  0.00    -0.356 OA
HETATM   19  C   UNL     1      15.582  45.740  43.886  1.00  0.00     0.210 C 
ENDBRANCH  15  18
ENDBRANCH   6  12
BRANCH   8  20
HETATM   20  C   UNL     1      19.182  51.635  49.715  1.00  0.00     0.409 C 
HETATM   21  F   UNL     1      19.374  52.655  48.852  1.00  0.00    -0.169 F 
HETATM   22  F   UNL     1      17.990  51.875  50.324  1.00  0.00    -0.169 F 
HETATM   23  F   UNL     1      20.129  51.712  50.676  1.00  0.00    -0.169 F 
ENDBRANCH   8  20
BRANCH   1  24
HETATM   24  C   UNL     1      23.870  49.816  47.988  1.00  0.00     0.273 C 
HETATM   25  N   UNL     1      24.879  49.378  48.822  1.00  0.00    -0.356 N 
HETATM   26  H   UNL     1      24.569  48.912  49.672  1.00  0.00     0.162 HD
HETATM   27  O   UNL     1      24.074  50.465  46.968  1.00  0.00    -0.266 OA
BRANCH  25  28
HETATM   28  C   UNL     1      26.260  49.760  48.656  1.00  0.00     0.122 C 
BRANCH  28  29
HETATM   29  C   UNL     1      27.226  48.709  49.199  1.00  0.00     0.015 C 
HETATM   30  C   UNL     1      26.521  47.616  49.991  1.00  0.00     0.006 C 
ENDBRANCH  28  29
ENDBRANCH  25  28
ENDBRANCH   1  24
TORSDOF 6
ENDMDL
MODEL 6
REMARK VINA RESULT:      -7.4     12.673     15.173
REMARK  6 active torsions:
REMARK  status: ('A' for Active; 'I' for Inactive)
REMARK    1  A    between atoms: C_2  and  C_3 
REMARK    2  A    between atoms: C_3  and  N_4 
REMARK       I    between atoms: N_4  and  C_5 
REMARK    3  A    between atoms: C_5  and  C_6 
REMARK    4  A    between atoms: C_11  and  C_12 
REMARK    5  A    between atoms: C_15  and  O_16 
REMARK    6  A    between atoms: C_21  and  C_22 
ROOT
HETATM    1  C   UNL     1      32.812  51.848  39.810  1.00  0.00     0.170 A 
HETATM    2  N   UNL     1      31.739  51.880  38.980  1.00  0.00    -0.163 NA
HETATM    3  N   UNL     1      30.719  51.472  39.755  1.00  0.00    -0.238 N 
HETATM    4  C   UNL     1      31.104  51.081  41.010  1.00  0.00     0.145 A 
HETATM    5  N   UNL     1      30.221  50.498  41.865  1.00  0.00    -0.365 N 
HETATM    6  C   UNL     1      28.956  49.964  41.362  1.00  0.00     0.118 C 
HETATM    7  C   UNL     1      28.382  50.969  40.349  1.00  0.00     0.066 C 
HETATM    8  C   UNL     1      29.383  51.272  39.216  1.00  0.00     0.221 C 
HETATM    9  C   UNL     1      32.447  51.365  41.097  1.00  0.00     0.115 A 
HETATM   10 CL   UNL     1      33.453  51.098  42.437  1.00  0.00    -0.077 Cl
HETATM   11  H   UNL     1      30.577  50.038  42.704  1.00  0.00     0.162 HD
ENDROOT
BRANCH   6  12
HETATM   12  C   UNL     1      29.066  48.549  40.806  1.00  0.00    -0.035 A 
HETATM   13  C   UNL     1      30.257  48.011  40.294  1.00  0.00     0.012 A 
HETATM   14  C   UNL     1      30.297  46.711  39.781  1.00  0.00     0.037 A 
HETATM   15  C   UNL     1      29.158  45.909  39.772  1.00  0.00     0.068 A 
HETATM   16  C   UNL     1      27.971  46.419  40.292  1.00  0.00     0.037 A 
HETATM   17  C   UNL     1      27.928  47.722  40.806  1.00  0.00     0.012 A 
BRANCH  15  18
HETATM   18  O   UNL     1      29.339  44.664  39.239  1.00  0.00    -0.356 OA
HETATM   19  C   UNL     1      28.265  43.742  39.373  1.00  0.00     0.210 C 
ENDBRANCH  15  18
ENDBRANCH   6  12
BRANCH   8  20
HETATM   20  C   UNL     1      28.910  52.479  38.435  1.00  0.00     0.409 C 
HETATM   21  F   UNL     1      29.548  52.638  37.256  1.00  0.00    -0.169 F 
HETATM   22  F   UNL     1      27.591  52.342  38.135  1.00  0.00    -0.169 F 
HETATM   23  F   UNL     1      29.029  53.627  39.137  1.00  0.00    -0.169 F 
ENDBRANCH   8  20
BRANCH   1  24
HETATM   24  C   UNL     1      34.146  52.232  39.322  1.00  0.00     0.273 C 
HETATM   25  N   UNL     1      35.039  51.180  39.321  1.00  0.00    -0.356 N 
HETATM   26  H   UNL     1      34.680  50.304  39.696  1.00  0.00     0.162 HD
HETATM   27  O   UNL     1      34.448  53.370  38.980  1.00  0.00    -0.266 OA
BRANCH  25  28
HETATM   28  C   UNL     1      36.448  51.341  39.056  1.00  0.00     0.122 C 
BRANCH  28  29
HETATM   29  C   UNL     1      37.222  51.816  40.284  1.00  0.00     0.015 C 
HETATM   30  C   UNL     1      37.188  50.810  41.426  1.00  0.00     0.006 C 
ENDBRANCH  28  29
ENDBRANCH  25  28
ENDBRANCH   1  24
TORSDOF 6
ENDMDL
MODEL 7
REMARK VINA RESULT:      -7.2      8.281      9.885
REMARK  6 active torsions:
REMARK  status: ('A' for Active; 'I' for Inactive)
REMARK    1  A    between atoms: C_2  and  C_3 
REMARK    2  A    between atoms: C_3  and  N_4 
REMARK       I    between atoms: N_4  and  C_5 
REMARK    3  A    between atoms: C_5  and  C_6 
REMARK    4  A    between atoms: C_11  and  C_12 
REMARK    5  A    between atoms: C_15  and  O_16 
REMARK    6  A    between atoms: C_21  and  C_22 
ROOT
HETATM    1  C   UNL     1      21.054  47.105  47.177  1.00  0.00     0.170 A 
HETATM    2  N   UNL     1      21.596  48.347  47.218  1.00  0.00    -0.163 NA
HETATM    3  N   UNL     1      21.162  48.852  48.385  1.00  0.00    -0.238 N 
HETATM    4  C   UNL     1      20.283  48.034  49.045  1.00  0.00     0.145 A 
HETATM    5  N   UNL     1      19.631  48.458  50.161  1.00  0.00    -0.365 N 
HETATM    6  C   UNL     1      19.581  49.883  50.484  1.00  0.00     0.118 C 
HETATM    7  C   UNL     1      20.973  50.482  50.223  1.00  0.00     0.066 C 
HETATM    8  C   UNL     1      21.444  50.224  48.778  1.00  0.00     0.221 C 
HETATM    9  C   UNL     1      20.235  46.868  48.316  1.00  0.00     0.115 A 
HETATM   10 CL   UNL     1      19.312  45.489  48.672  1.00  0.00    -0.077 Cl
HETATM   11  H   UNL     1      18.842  47.912  50.510  1.00  0.00     0.162 HD
ENDROOT
BRANCH   6  12
HETATM   12  C   UNL     1      18.462  50.635  49.771  1.00  0.00    -0.035 A 
HETATM   13  C   UNL     1      17.453  49.998  49.033  1.00  0.00     0.012 A 
HETATM   14  C   UNL     1      16.459  50.738  48.385  1.00  0.00     0.037 A 
HETATM   15  C   UNL     1      16.437  52.129  48.462  1.00  0.00     0.068 A 
HETATM   16  C   UNL     1      17.421  52.778  49.204  1.00  0.00     0.037 A 
HETATM   17  C   UNL     1      18.417  52.038  49.854  1.00  0.00     0.012 A 
BRANCH  15  18
HETATM   18  O   UNL     1      15.414  52.723  47.780  1.00  0.00    -0.356 OA
HETATM   19  C   UNL     1      15.444  52.629  46.362  1.00  0.00     0.210 C 
ENDBRANCH  15  18
ENDBRANCH   6  12
BRANCH   8  20
HETATM   20  C   UNL     1      22.917  50.546  48.661  1.00  0.00     0.409 C 
HETATM   21  F   UNL     1      23.310  51.557  49.464  1.00  0.00    -0.169 F 
HETATM   22  F   UNL     1      23.653  49.463  49.030  1.00  0.00    -0.169 F 
HETATM   23  F   UNL     1      23.282  50.846  47.395  1.00  0.00    -0.169 F 
ENDBRANCH   8  20
BRANCH   1  24
HETATM   24  C   UNL     1      21.302  46.218  46.030  1.00  0.00     0.273 C 
HETATM   25  N   UNL     1      20.165  45.973  45.287  1.00  0.00    -0.356 N 
HETATM   26  H   UNL     1      19.310  46.389  45.651  1.00  0.00     0.162 HD
HETATM   27  O   UNL     1      22.394  45.722  45.772  1.00  0.00    -0.266 OA
BRANCH  25  28
HETATM   28  C   UNL     1      20.113  45.000  44.223  1.00  0.00     0.122 C 
BRANCH  28  29
HETATM   29  C   UNL     1      19.237  43.798  44.574  1.00  0.00     0.015 C 
HETATM   30  C   UNL     1      19.833  42.939  45.680  1.00  0.00     0.006 C 
ENDBRANCH  28  29
ENDBRANCH  25  28
ENDBRANCH   1  24
TORSDOF 6
ENDMDL
MODEL 8
REMARK VINA RESULT:      -7.1     13.426     15.683
REMARK  6 active torsions:
REMARK  status: ('A' for Active; 'I' for Inactive)
REMARK    1  A    between atoms: C_2  and  C_3 
REMARK    2  A    between atoms: C_3  and  N_4 
REMARK       I    between atoms: N_4  and  C_5 
REMARK    3  A    between atoms: C_5  and  C_6 
REMARK    4  A    between atoms: C_11  and  C_12 
REMARK    5  A    between atoms: C_15  and  O_16 
REMARK    6  A    between atoms: C_21  and  C_22 
ROOT
HETATM    1  C   UNL     1      30.215  51.373  39.458  1.00  0.00     0.170 A 
HETATM    2  N   UNL     1      30.866  50.186  39.538  1.00  0.00    -0.163 NA
HETATM    3  N   UNL     1      31.841  50.410  40.435  1.00  0.00    -0.238 N 
HETATM    4  C   UNL     1      31.912  51.712  40.856  1.00  0.00     0.145 A 
HETATM    5  N   UNL     1      32.934  52.141  41.643  1.00  0.00    -0.365 N 
HETATM    6  C   UNL     1      34.148  51.335  41.773  1.00  0.00     0.118 C 
HETATM    7  C   UNL     1      33.729  49.862  41.919  1.00  0.00     0.066 C 
HETATM    8  C   UNL     1      32.842  49.402  40.745  1.00  0.00     0.221 C 
HETATM    9  C   UNL     1      30.835  52.351  40.284  1.00  0.00     0.115 A 
HETATM   10 CL   UNL     1      30.414  53.984  40.467  1.00  0.00    -0.077 Cl
HETATM   11  H   UNL     1      33.071  53.144  41.772  1.00  0.00     0.162 HD
ENDROOT
BRANCH   6  12
HETATM   12  C   UNL     1      35.158  51.564  40.655  1.00  0.00    -0.035 A 
HETATM   13  C   UNL     1      35.268  52.771  39.949  1.00  0.00     0.012 A 
HETATM   14  C   UNL     1      36.204  52.921  38.920  1.00  0.00     0.037 A 
HETATM   15  C   UNL     1      37.060  51.878  38.574  1.00  0.00     0.068 A 
HETATM   16  C   UNL     1      36.978  50.677  39.275  1.00  0.00     0.037 A 
HETATM   17  C   UNL     1      36.041  50.526  40.306  1.00  0.00     0.012 A 
BRANCH  15  18
HETATM   18  O   UNL     1      37.920  52.160  37.551  1.00  0.00    -0.356 OA
HETATM   19  C   UNL     1      38.880  51.165  37.222  1.00  0.00     0.210 C 
ENDBRANCH  15  18
ENDBRANCH   6  12
BRANCH   8  20
HETATM   20  C   UNL     1      32.208  48.071  41.083  1.00  0.00     0.409 C 
HETATM   21  F   UNL     1      31.769  47.395  40.000  1.00  0.00    -0.169 F 
HETATM   22  F   UNL     1      33.124  47.266  41.684  1.00  0.00    -0.169 F 
HETATM   23  F   UNL     1      31.177  48.196  41.948  1.00  0.00    -0.169 F 
ENDBRANCH   8  20
BRANCH   1  24
HETATM   24  C   UNL     1      29.061  51.535  38.560  1.00  0.00     0.273 C 
HETATM   25  N   UNL     1      27.971  50.782  38.949  1.00  0.00    -0.356 N 
HETATM   26  H   UNL     1      28.120  50.187  39.761  1.00  0.00     0.162 HD
HETATM   27  O   UNL     1      29.069  52.238  37.556  1.00  0.00    -0.266 OA
BRANCH  25  28
HETATM   28  C   UNL     1      26.786  50.634  38.139  1.00  0.00     0.122 C 
BRANCH  28  29
HETATM   29  C   UNL     1      26.573  49.194  37.674  1.00  0.00     0.015 C 
HETATM   30  C   UNL     1      27.524  48.213  38.345  1.00  0.00     0.006 C 
ENDBRANCH  28  29
ENDBRANCH  25  28
ENDBRANCH   1  24
TORSDOF 6
ENDMDL
MODEL 9
REMARK VINA RESULT:      -7.1      2.053      3.021
REMARK  6 active torsions:
REMARK  status: ('A' for Active; 'I' for Inactive)
REMARK    1  A    between atoms: C_2  and  C_3 
REMARK    2  A    between atoms: C_3  and  N_4 
REMARK       I    between atoms: N_4  and  C_5 
REMARK    3  A    between atoms: C_5  and  C_6 
REMARK    4  A    between atoms: C_11  and  C_12 
REMARK    5  A    between atoms: C_15  and  O_16 
REMARK    6  A    between atoms: C_21  and  C_22 
ROOT
HETATM    1  C   UNL     1      27.331  41.203  49.201  1.00  0.00     0.170 A 
HETATM    2  N   UNL     1      28.098  41.872  50.098  1.00  0.00    -0.163 NA
HETATM    3  N   UNL     1      27.209  42.383  50.966  1.00  0.00    -0.238 N 
HETATM    4  C   UNL     1      25.904  42.163  50.611  1.00  0.00     0.145 A 
HETATM    5  N   UNL     1      24.882  42.744  51.295  1.00  0.00    -0.365 N 
HETATM    6  C   UNL     1      25.145  43.871  52.189  1.00  0.00     0.118 C 
HETATM    7  C   UNL     1      26.426  43.563  52.982  1.00  0.00     0.066 C 
HETATM    8  C   UNL     1      27.617  43.263  52.049  1.00  0.00     0.221 C 
HETATM    9  C   UNL     1      25.949  41.352  49.500  1.00  0.00     0.115 A 
HETATM   10 CL   UNL     1      24.620  40.749  48.634  1.00  0.00    -0.077 Cl
HETATM   11  H   UNL     1      23.945  42.728  50.891  1.00  0.00     0.162 HD
ENDROOT
BRANCH   6  12
HETATM   12  C   UNL     1      25.189  45.219  51.479  1.00  0.00    -0.035 A 
HETATM   13  C   UNL     1      24.383  45.537  50.375  1.00  0.00     0.012 A 
HETATM   14  C   UNL     1      24.477  46.786  49.751  1.00  0.00     0.037 A 
HETATM   15  C   UNL     1      25.366  47.753  50.214  1.00  0.00     0.068 A 
HETATM   16  C   UNL     1      26.163  47.461  51.319  1.00  0.00     0.037 A 
HETATM   17  C   UNL     1      26.070  46.212  51.946  1.00  0.00     0.012 A 
BRANCH  15  18
HETATM   18  O   UNL     1      25.356  48.923  49.510  1.00  0.00    -0.356 OA
HETATM   19  C   UNL     1      24.156  49.250  48.822  1.00  0.00     0.210 C 
ENDBRANCH  15  18
ENDBRANCH   6  12
BRANCH   8  20
HETATM   20  C   UNL     1      28.751  42.668  52.854  1.00  0.00     0.409 C 
HETATM   21  F   UNL     1      28.759  41.318  52.853  1.00  0.00    -0.169 F 
HETATM   22  F   UNL     1      29.942  43.054  52.323  1.00  0.00    -0.169 F 
HETATM   23  F   UNL     1      28.748  43.088  54.139  1.00  0.00    -0.169 F 
ENDBRANCH   8  20
BRANCH   1  24
HETATM   24  C   UNL     1      27.950  40.494  48.070  1.00  0.00     0.273 C 
HETATM   25  N   UNL     1      27.779  41.150  46.868  1.00  0.00    -0.356 N 
HETATM   26  H   UNL     1      27.216  41.998  46.912  1.00  0.00     0.162 HD
HETATM   27  O   UNL     1      28.531  39.419  48.172  1.00  0.00    -0.266 OA
BRANCH  25  28
HETATM   28  C   UNL     1      28.138  40.573  45.596  1.00  0.00     0.122 C 
BRANCH  28  29
HETATM   29  C   UNL     1      26.928  40.021  44.843  1.00  0.00     0.015 C 
HETATM   30  C   UNL     1      25.760  40.996  44.812  1.00  0.00     0.006 C 
ENDBRANCH  28  29
ENDBRANCH  25  28
ENDBRANCH   1  24
TORSDOF 6
ENDMDL
MODEL 10
REMARK VINA RESULT:      -7.1     12.246     14.582
REMARK  6 active torsions:
REMARK  status: ('A' for Active; 'I' for Inactive)
REMARK    1  A    between atoms: C_2  and  C_3 
REMARK    2  A    between atoms: C_3  and  N_4 
REMARK       I    between atoms: N_4  and  C_5 
REMARK    3  A    between atoms: C_5  and  C_6 
REMARK    4  A    between atoms: C_11  and  C_12 
REMARK    5  A    between atoms: C_15  and  O_16 
REMARK    6  A    between atoms: C_21  and  C_22 
ROOT
HETATM    1  C   UNL     1      32.416  51.196  40.383  1.00  0.00     0.170 A 
HETATM    2  N   UNL     1      31.150  51.640  40.181  1.00  0.00    -0.163 NA
HETATM    3  N   UNL     1      30.383  50.726  40.799  1.00  0.00    -0.238 N 
HETATM    4  C   UNL     1      31.089  49.662  41.296  1.00  0.00     0.145 A 
HETATM    5  N   UNL     1      30.452  48.578  41.814  1.00  0.00    -0.365 N 
HETATM    6  C   UNL     1      29.031  48.362  41.542  1.00  0.00     0.118 C 
HETATM    7  C   UNL     1      28.311  49.715  41.666  1.00  0.00     0.066 C 
HETATM    8  C   UNL     1      28.931  50.780  40.739  1.00  0.00     0.221 C 
HETATM    9  C   UNL     1      32.416  49.963  41.093  1.00  0.00     0.115 A 
HETATM   10 CL   UNL     1      33.748  49.005  41.524  1.00  0.00    -0.077 Cl
HETATM   11  H   UNL     1      30.988  47.726  41.987  1.00  0.00     0.162 HD
ENDROOT
BRANCH   6  12
HETATM   12  C   UNL     1      28.760  47.658  40.218  1.00  0.00    -0.035 A 
HETATM   13  C   UNL     1      27.592  47.853  39.464  1.00  0.00     0.012 A 
HETATM   14  C   UNL     1      27.388  47.168  38.262  1.00  0.00     0.037 A 
HETATM   15  C   UNL     1      28.343  46.279  37.773  1.00  0.00     0.068 A 
HETATM   16  C   UNL     1      29.516  46.086  38.499  1.00  0.00     0.037 A 
HETATM   17  C   UNL     1      29.722  46.771  39.703  1.00  0.00     0.012 A 
BRANCH  15  18
HETATM   18  O   UNL     1      28.012  45.678  36.593  1.00  0.00    -0.356 OA
HETATM   19  C   UNL     1      28.785  44.550  36.205  1.00  0.00     0.210 C 
ENDBRANCH  15  18
ENDBRANCH   6  12
BRANCH   8  20
HETATM   20  C   UNL     1      28.408  52.147  41.119  1.00  0.00     0.409 C 
HETATM   21  F   UNL     1      28.454  53.039  40.107  1.00  0.00    -0.169 F 
HETATM   22  F   UNL     1      27.100  52.053  41.479  1.00  0.00    -0.169 F 
HETATM   23  F   UNL     1      29.062  52.675  42.177  1.00  0.00    -0.169 F 
ENDBRANCH   8  20
BRANCH   1  24
HETATM   24  C   UNL     1      33.565  51.941  39.846  1.00  0.00     0.273 C 
HETATM   25  N   UNL     1      34.602  51.118  39.457  1.00  0.00    -0.356 N 
HETATM   26  H   UNL     1      34.460  50.126  39.633  1.00  0.00     0.162 HD
HETATM   27  O   UNL     1      33.615  53.164  39.777  1.00  0.00    -0.266 OA
BRANCH  25  28
HETATM   28  C   UNL     1      35.899  51.614  39.065  1.00  0.00     0.122 C 
BRANCH  28  29
HETATM   29  C   UNL     1      36.805  51.890  40.264  1.00  0.00     0.015 C 
HETATM   30  C   UNL     1      36.856  50.725  41.243  1.00  0.00     0.006 C 
ENDBRANCH  28  29
ENDBRANCH  25  28
ENDBRANCH   1  24
TORSDOF 6
ENDMDL
