MODEL 1
REMARK VINA RESULT:      -9.4      0.000      0.000
REMARK  7 active torsions:
REMARK  status: ('A' for Active; 'I' for Inactive)
REMARK    1  A    between atoms: C_2  and  N_3 
REMARK    2  A    between atoms: C_2  and  C_19 
REMARK       I    between atoms: N_3  and  C_4 
REMARK       I    between atoms: C_4  and  N_5 
REMARK    3  A    between atoms: N_5  and  C_6 
REMARK    4  A    between atoms: N_8  and  C_9 
REMARK    5  A    between atoms: C_9  and  C_10 
REMARK    6  A    between atoms: C_19  and  C_20 
REMARK    7  A    between atoms: C_23  and  O_24 
ROOT
HETATM    1  N   UNL     1      27.158  43.422  53.833  1.00  0.00    -0.338 N 
HETATM    2  C   UNL     1      26.104  43.557  54.680  1.00  0.00     0.322 C 
HETATM    3  N   UNL     1      25.234  44.574  54.418  1.00  0.00    -0.292 N 
HETATM    4  O   UNL     1      25.906  42.823  55.646  1.00  0.00    -0.247 OA
HETATM    5  H   UNL     1      27.199  44.113  53.087  1.00  0.00     0.164 HD
HETATM    6  H   UNL     1      24.481  44.644  55.085  1.00  0.00     0.172 HD
ENDROOT
BRANCH   1   7
HETATM    7  C   UNL     1      28.283  42.530  54.062  1.00  0.00     0.086 C 
HETATM    8  C   UNL     1      28.237  41.393  53.043  1.00  0.00     0.032 C 
BRANCH   7   9
HETATM    9  C   UNL     1      29.620  43.293  53.956  1.00  0.00     0.063 C 
BRANCH   9  10
HETATM   10  C   UNL     1      30.101  43.855  55.275  1.00  0.00    -0.056 A 
HETATM   11  C   UNL     1      30.976  43.116  56.085  1.00  0.00     0.010 A 
HETATM   12  C   UNL     1      31.411  43.627  57.310  1.00  0.00     0.037 A 
HETATM   13  C   UNL     1      30.968  44.878  57.726  1.00  0.00     0.065 A 
HETATM   14  C   UNL     1      30.096  45.622  56.941  1.00  0.00     0.037 A 
HETATM   15  C   UNL     1      29.661  45.110  55.718  1.00  0.00     0.010 A 
BRANCH  13  16
HETATM   16  O   UNL     1      31.366  45.412  58.916  1.00  0.00    -0.361 OA
HETATM   17  H   UNL     1      31.882  44.743  59.393  1.00  0.00     0.217 HD
ENDBRANCH  13  16
ENDBRANCH   9  10
ENDBRANCH   7   9
ENDBRANCH   1   7
BRANCH   3  18
HETATM   18  C   UNL     1      25.291  45.521  53.421  1.00  0.00     0.153 A 
HETATM   19  N   UNL     1      24.862  45.337  52.166  1.00  0.00    -0.154 NA
HETATM   20  N   UNL     1      25.123  46.509  51.547  1.00  0.00    -0.275 N 
HETATM   21  C   UNL     1      25.688  47.438  52.374  1.00  0.00     0.116 A 
HETATM   22  C   UNL     1      25.813  46.824  53.597  1.00  0.00     0.071 A 
BRANCH  20  23
HETATM   23  C   UNL     1      24.740  46.705  50.155  1.00  0.00     0.189 C 
BRANCH  23  24
HETATM   24  C   UNL     1      25.469  47.868  49.533  1.00  0.00    -0.038 A 
HETATM   25  C   UNL     1      24.751  48.923  48.946  1.00  0.00     0.009 A 
HETATM   26  C   UNL     1      25.422  49.999  48.364  1.00  0.00     0.001 A 
HETATM   27  C   UNL     1      26.814  50.037  48.367  1.00  0.00     0.000 A 
HETATM   28  C   UNL     1      27.538  48.998  48.948  1.00  0.00     0.001 A 
HETATM   29  C   UNL     1      26.870  47.917  49.527  1.00  0.00     0.009 A 
ENDBRANCH  23  24
ENDBRANCH  20  23
ENDBRANCH   3  18
TORSDOF 7
ENDMDL
MODEL 2
REMARK VINA RESULT:      -9.3      1.109      1.891
REMARK  7 active torsions:
REMARK  status: ('A' for Active; 'I' for Inactive)
REMARK    1  A    between atoms: C_2  and  N_3 
REMARK    2  A    between atoms: C_2  and  C_19 
REMARK       I    between atoms: N_3  and  C_4 
REMARK       I    between atoms: C_4  and  N_5 
REMARK    3  A    between atoms: N_5  and  C_6 
REMARK    4  A    between atoms: N_8  and  C_9 
REMARK    5  A    between atoms: C_9  and  C_10 
REMARK    6  A    between atoms: C_19  and  C_20 
REMARK    7  A    between atoms: C_23  and  O_24 
ROOT
HETATM    1  N   UNL     1      27.234  43.479  53.354  1.00  0.00    -0.338 N 
HETATM    2  C   UNL     1      26.128  43.950  53.987  1.00  0.00     0.322 C 
HETATM    3  N   UNL     1      25.354  44.832  53.295  1.00  0.00    -0.292 N 
HETATM    4  O   UNL     1      25.805  43.625  55.128  1.00  0.00    -0.247 OA
HETATM    5  H   UNL     1      27.381  43.849  52.418  1.00  0.00     0.164 HD
HETATM    6  H   UNL     1      24.557  45.166  53.814  1.00  0.00     0.172 HD
ENDROOT
BRANCH   1   7
HETATM    7  C   UNL     1      28.274  42.692  53.997  1.00  0.00     0.086 C 
HETATM    8  C   UNL     1      28.361  41.326  53.318  1.00  0.00     0.032 C 
BRANCH   7   9
HETATM    9  C   UNL     1      29.634  43.415  53.927  1.00  0.00     0.063 C 
BRANCH   9  10
HETATM   10  C   UNL     1      30.143  43.878  55.274  1.00  0.00    -0.056 A 
HETATM   11  C   UNL     1      31.049  43.090  56.000  1.00  0.00     0.010 A 
HETATM   12  C   UNL     1      31.509  43.508  57.250  1.00  0.00     0.037 A 
HETATM   13  C   UNL     1      31.060  44.714  57.778  1.00  0.00     0.065 A 
HETATM   14  C   UNL     1      30.157  45.505  57.077  1.00  0.00     0.037 A 
HETATM   15  C   UNL     1      29.696  45.086  55.829  1.00  0.00     0.010 A 
BRANCH  13  16
HETATM   16  O   UNL     1      31.482  45.158  58.996  1.00  0.00    -0.361 OA
HETATM   17  H   UNL     1      31.638  46.115  58.934  1.00  0.00     0.217 HD
ENDBRANCH  13  16
ENDBRANCH   9  10
ENDBRANCH   7   9
ENDBRANCH   1   7
BRANCH   3  18
HETATM   18  C   UNL     1      25.554  45.349  52.034  1.00  0.00     0.153 A 
HETATM   19  N   UNL     1      25.797  46.639  51.767  1.00  0.00    -0.154 NA
HETATM   20  N   UNL     1      25.913  46.686  50.423  1.00  0.00    -0.275 N 
HETATM   21  C   UNL     1      25.771  45.464  49.828  1.00  0.00     0.116 A 
HETATM   22  C   UNL     1      25.533  44.577  50.850  1.00  0.00     0.071 A 
BRANCH  20  23
HETATM   23  C   UNL     1      26.234  47.942  49.758  1.00  0.00     0.189 C 
BRANCH  23  24
HETATM   24  C   UNL     1      25.001  48.619  49.216  1.00  0.00    -0.038 A 
HETATM   25  C   UNL     1      25.115  49.771  48.421  1.00  0.00     0.009 A 
HETATM   26  C   UNL     1      23.976  50.404  47.923  1.00  0.00     0.001 A 
HETATM   27  C   UNL     1      22.712  49.891  48.207  1.00  0.00     0.000 A 
HETATM   28  C   UNL     1      22.586  48.748  48.994  1.00  0.00     0.001 A 
HETATM   29  C   UNL     1      23.723  48.115  49.498  1.00  0.00     0.009 A 
ENDBRANCH  23  24
ENDBRANCH  20  23
ENDBRANCH   3  18
TORSDOF 7
ENDMDL
MODEL 3
REMARK VINA RESULT:      -8.9      1.815      2.556
REMARK  7 active torsions:
REMARK  status: ('A' for Active; 'I' for Inactive)
REMARK    1  A    between atoms: C_2  and  N_3 
REMARK    2  A    between atoms: C_2  and  C_19 
REMARK       I    between atoms: N_3  and  C_4 
REMARK       I    between atoms: C_4  and  N_5 
REMARK    3  A    between atoms: N_5  and  C_6 
REMARK    4  A    between atoms: N_8  and  C_9 
REMARK    5  A    between atoms: C_9  and  C_10 
REMARK    6  A    between atoms: C_19  and  C_20 
REMARK    7  A    between atoms: C_23  and  O_24 
ROOT
HETATM    1  N   UNL     1      27.665  43.081  52.286  1.00  0.00    -0.338 N 
HETATM    2  C   UNL     1      27.780  42.338  51.154  1.00  0.00     0.322 C 
HETATM    3  N   UNL     1      27.050  42.744  50.077  1.00  0.00    -0.292 N 
HETATM    4  O   UNL     1      28.494  41.342  51.062  1.00  0.00    -0.247 OA
HETATM    5  H   UNL     1      27.024  43.869  52.217  1.00  0.00     0.164 HD
HETATM    6  H   UNL     1      27.156  42.150  49.269  1.00  0.00     0.172 HD
ENDROOT
BRANCH   1   7
HETATM    7  C   UNL     1      28.206  42.695  53.579  1.00  0.00     0.086 C 
HETATM    8  C   UNL     1      28.024  41.191  53.770  1.00  0.00     0.032 C 
BRANCH   7   9
HETATM    9  C   UNL     1      29.698  43.074  53.686  1.00  0.00     0.063 C 
BRANCH   9  10
HETATM   10  C   UNL     1      30.065  43.721  55.003  1.00  0.00    -0.056 A 
HETATM   11  C   UNL     1      30.984  43.105  55.865  1.00  0.00     0.010 A 
HETATM   12  C   UNL     1      31.314  43.693  57.088  1.00  0.00     0.037 A 
HETATM   13  C   UNL     1      30.720  44.897  57.451  1.00  0.00     0.065 A 
HETATM   14  C   UNL     1      29.802  45.518  56.614  1.00  0.00     0.037 A 
HETATM   15  C   UNL     1      29.472  44.930  55.394  1.00  0.00     0.010 A 
BRANCH  13  16
HETATM   16  O   UNL     1      31.012  45.503  58.637  1.00  0.00    -0.361 OA
HETATM   17  H   UNL     1      31.425  44.846  59.221  1.00  0.00     0.217 HD
ENDBRANCH  13  16
ENDBRANCH   9  10
ENDBRANCH   7   9
ENDBRANCH   1   7
BRANCH   3  18
HETATM   18  C   UNL     1      26.170  43.799  49.981  1.00  0.00     0.153 A 
HETATM   19  N   UNL     1      26.252  44.930  50.692  1.00  0.00    -0.154 NA
HETATM   20  N   UNL     1      25.192  45.660  50.283  1.00  0.00    -0.275 N 
HETATM   21  C   UNL     1      24.449  45.036  49.322  1.00  0.00     0.116 A 
HETATM   22  C   UNL     1      25.058  43.823  49.107  1.00  0.00     0.071 A 
BRANCH  20  23
HETATM   23  C   UNL     1      24.977  47.001  50.812  1.00  0.00     0.189 C 
BRANCH  23  24
HETATM   24  C   UNL     1      25.461  48.062  49.858  1.00  0.00    -0.038 A 
HETATM   25  C   UNL     1      26.836  48.303  49.703  1.00  0.00     0.009 A 
HETATM   26  C   UNL     1      27.288  49.289  48.825  1.00  0.00     0.001 A 
HETATM   27  C   UNL     1      26.375  50.039  48.089  1.00  0.00     0.000 A 
HETATM   28  C   UNL     1      25.008  49.809  48.232  1.00  0.00     0.001 A 
HETATM   29  C   UNL     1      24.552  48.827  49.113  1.00  0.00     0.009 A 
ENDBRANCH  23  24
ENDBRANCH  20  23
ENDBRANCH   3  18
TORSDOF 7
ENDMDL
MODEL 4
REMARK VINA RESULT:      -8.9      5.050     10.373
REMARK  7 active torsions:
REMARK  status: ('A' for Active; 'I' for Inactive)
REMARK    1  A    between atoms: C_2  and  N_3 
REMARK    2  A    between atoms: C_2  and  C_19 
REMARK       I    between atoms: N_3  and  C_4 
REMARK       I    between atoms: C_4  and  N_5 
REMARK    3  A    between atoms: N_5  and  C_6 
REMARK    4  A    between atoms: N_8  and  C_9 
REMARK    5  A    between atoms: C_9  and  C_10 
REMARK    6  A    between atoms: C_19  and  C_20 
REMARK    7  A    between atoms: C_23  and  O_24 
ROOT
HETATM    1  N   UNL     1      23.610  48.764  48.898  1.00  0.00    -0.338 N 
HETATM    2  C   UNL     1      24.805  49.312  48.559  1.00  0.00     0.322 C 
HETATM    3  N   UNL     1      25.919  48.731  49.086  1.00  0.00    -0.292 N 
HETATM    4  O   UNL     1      24.923  50.286  47.817  1.00  0.00    -0.247 OA
HETATM    5  H   UNL     1      23.669  47.970  49.534  1.00  0.00     0.164 HD
HETATM    6  H   UNL     1      26.779  49.186  48.819  1.00  0.00     0.172 HD
ENDROOT
BRANCH   1   7
HETATM    7  C   UNL     1      22.319  49.359  48.596  1.00  0.00     0.086 C 
HETATM    8  C   UNL     1      21.288  48.249  48.398  1.00  0.00     0.032 C 
BRANCH   7   9
HETATM    9  C   UNL     1      21.873  50.311  49.725  1.00  0.00     0.063 C 
BRANCH   9  10
HETATM   10  C   UNL     1      20.547  50.987  49.458  1.00  0.00    -0.056 A 
HETATM   11  C   UNL     1      19.448  50.751  50.297  1.00  0.00     0.010 A 
HETATM   12  C   UNL     1      18.218  51.363  50.045  1.00  0.00     0.037 A 
HETATM   13  C   UNL     1      18.086  52.209  48.949  1.00  0.00     0.065 A 
HETATM   14  C   UNL     1      19.161  52.450  48.103  1.00  0.00     0.037 A 
HETATM   15  C   UNL     1      20.388  51.837  48.354  1.00  0.00     0.010 A 
BRANCH  13  16
HETATM   16  O   UNL     1      16.903  52.824  48.666  1.00  0.00    -0.361 OA
HETATM   17  H   UNL     1      16.637  53.344  49.441  1.00  0.00     0.217 HD
ENDBRANCH  13  16
ENDBRANCH   9  10
ENDBRANCH   7   9
ENDBRANCH   1   7
BRANCH   3  18
HETATM   18  C   UNL     1      26.006  47.668  49.957  1.00  0.00     0.153 A 
HETATM   19  N   UNL     1      25.639  47.704  51.245  1.00  0.00    -0.154 NA
HETATM   20  N   UNL     1      25.908  46.462  51.703  1.00  0.00    -0.275 N 
HETATM   21  C   UNL     1      26.417  45.633  50.744  1.00  0.00     0.116 A 
HETATM   22  C   UNL     1      26.495  46.390  49.599  1.00  0.00     0.071 A 
BRANCH  20  23
HETATM   23  C   UNL     1      25.587  46.103  53.079  1.00  0.00     0.189 C 
BRANCH  23  24
HETATM   24  C   UNL     1      26.830  45.902  53.909  1.00  0.00    -0.038 A 
HETATM   25  C   UNL     1      27.427  46.989  54.566  1.00  0.00     0.009 A 
HETATM   26  C   UNL     1      28.580  46.808  55.331  1.00  0.00     0.001 A 
HETATM   27  C   UNL     1      29.145  45.541  55.452  1.00  0.00     0.000 A 
HETATM   28  C   UNL     1      28.561  44.453  54.805  1.00  0.00     0.001 A 
HETATM   29  C   UNL     1      27.410  44.632  54.035  1.00  0.00     0.009 A 
ENDBRANCH  23  24
ENDBRANCH  20  23
ENDBRANCH   3  18
TORSDOF 7
ENDMDL
MODEL 5
REMARK VINA RESULT:      -8.9      3.019      8.197
REMARK  7 active torsions:
REMARK  status: ('A' for Active; 'I' for Inactive)
REMARK    1  A    between atoms: C_2  and  N_3 
REMARK    2  A    between atoms: C_2  and  C_19 
REMARK       I    between atoms: N_3  and  C_4 
REMARK       I    between atoms: C_4  and  N_5 
REMARK    3  A    between atoms: N_5  and  C_6 
REMARK    4  A    between atoms: N_8  and  C_9 
REMARK    5  A    between atoms: C_9  and  C_10 
REMARK    6  A    between atoms: C_19  and  C_20 
REMARK    7  A    between atoms: C_23  and  O_24 
ROOT
HETATM    1  N   UNL     1      25.835  44.257  50.594  1.00  0.00    -0.338 N 
HETATM    2  C   UNL     1      26.747  43.364  50.131  1.00  0.00     0.322 C 
HETATM    3  N   UNL     1      27.675  42.917  51.024  1.00  0.00    -0.292 N 
HETATM    4  O   UNL     1      26.771  42.952  48.973  1.00  0.00    -0.247 OA
HETATM    5  H   UNL     1      25.949  44.518  51.572  1.00  0.00     0.164 HD
HETATM    6  H   UNL     1      28.340  42.271  50.627  1.00  0.00     0.172 HD
ENDROOT
BRANCH   1   7
HETATM    7  C   UNL     1      24.900  44.986  49.752  1.00  0.00     0.086 C 
HETATM    8  C   UNL     1      23.646  44.139  49.544  1.00  0.00     0.032 C 
BRANCH   7   9
HETATM    9  C   UNL     1      24.532  46.344  50.384  1.00  0.00     0.063 C 
BRANCH   9  10
HETATM   10  C   UNL     1      25.241  47.519  49.747  1.00  0.00    -0.056 A 
HETATM   11  C   UNL     1      26.641  47.604  49.776  1.00  0.00     0.010 A 
HETATM   12  C   UNL     1      27.297  48.695  49.201  1.00  0.00     0.037 A 
HETATM   13  C   UNL     1      26.552  49.705  48.601  1.00  0.00     0.065 A 
HETATM   14  C   UNL     1      25.164  49.641  48.570  1.00  0.00     0.037 A 
HETATM   15  C   UNL     1      24.509  48.552  49.145  1.00  0.00     0.010 A 
BRANCH  13  16
HETATM   16  O   UNL     1      27.152  50.788  48.032  1.00  0.00    -0.361 OA
HETATM   17  H   UNL     1      27.166  51.507  48.685  1.00  0.00     0.217 HD
ENDBRANCH  13  16
ENDBRANCH   9  10
ENDBRANCH   7   9
ENDBRANCH   1   7
BRANCH   3  18
HETATM   18  C   UNL     1      27.845  43.276  52.342  1.00  0.00     0.153 A 
HETATM   19  N   UNL     1      28.301  44.464  52.759  1.00  0.00    -0.154 NA
HETATM   20  N   UNL     1      28.313  44.364  54.106  1.00  0.00    -0.275 N 
HETATM   21  C   UNL     1      27.862  43.157  54.559  1.00  0.00     0.116 A 
HETATM   22  C   UNL     1      27.554  42.427  53.436  1.00  0.00     0.071 A 
BRANCH  20  23
HETATM   23  C   UNL     1      28.711  45.504  54.922  1.00  0.00     0.189 C 
BRANCH  23  24
HETATM   24  C   UNL     1      29.684  45.107  56.001  1.00  0.00    -0.038 A 
HETATM   25  C   UNL     1      30.632  44.097  55.766  1.00  0.00     0.009 A 
HETATM   26  C   UNL     1      31.531  43.723  56.764  1.00  0.00     0.001 A 
HETATM   27  C   UNL     1      31.499  44.354  58.005  1.00  0.00     0.000 A 
HETATM   28  C   UNL     1      30.564  45.359  58.251  1.00  0.00     0.001 A 
HETATM   29  C   UNL     1      29.660  45.733  57.256  1.00  0.00     0.009 A 
ENDBRANCH  23  24
ENDBRANCH  20  23
ENDBRANCH   3  18
TORSDOF 7
ENDMDL
MODEL 6
REMARK VINA RESULT:      -8.8      2.853      4.800
REMARK  7 active torsions:
REMARK  status: ('A' for Active; 'I' for Inactive)
REMARK    1  A    between atoms: C_2  and  N_3 
REMARK    2  A    between atoms: C_2  and  C_19 
REMARK       I    between atoms: N_3  and  C_4 
REMARK       I    between atoms: C_4  and  N_5 
REMARK    3  A    between atoms: N_5  and  C_6 
REMARK    4  A    between atoms: N_8  and  C_9 
REMARK    5  A    between atoms: C_9  and  C_10 
REMARK    6  A    between atoms: C_19  and  C_20 
REMARK    7  A    between atoms: C_23  and  O_24 
ROOT
HETATM    1  N   UNL     1      26.823  43.081  53.185  1.00  0.00    -0.338 N 
HETATM    2  C   UNL     1      25.979  44.083  53.546  1.00  0.00     0.322 C 
HETATM    3  N   UNL     1      25.056  44.470  52.621  1.00  0.00    -0.292 N 
HETATM    4  O   UNL     1      26.012  44.641  54.641  1.00  0.00    -0.247 OA
HETATM    5  H   UNL     1      26.687  42.726  52.241  1.00  0.00     0.164 HD
HETATM    6  H   UNL     1      24.467  45.228  52.929  1.00  0.00     0.172 HD
ENDROOT
BRANCH   1   7
HETATM    7  C   UNL     1      27.987  42.672  53.956  1.00  0.00     0.086 C 
HETATM    8  C   UNL     1      28.446  41.296  53.477  1.00  0.00     0.032 C 
BRANCH   7   9
HETATM    9  C   UNL     1      29.129  43.699  53.816  1.00  0.00     0.063 C 
BRANCH   9  10
HETATM   10  C   UNL     1      29.802  44.038  55.127  1.00  0.00    -0.056 A 
HETATM   11  C   UNL     1      30.774  43.183  55.668  1.00  0.00     0.010 A 
HETATM   12  C   UNL     1      31.387  43.486  56.885  1.00  0.00     0.037 A 
HETATM   13  C   UNL     1      31.025  44.644  57.565  1.00  0.00     0.065 A 
HETATM   14  C   UNL     1      30.059  45.500  57.049  1.00  0.00     0.037 A 
HETATM   15  C   UNL     1      29.446  45.195  55.834  1.00  0.00     0.010 A 
BRANCH  13  16
HETATM   16  O   UNL     1      31.596  44.976  58.758  1.00  0.00    -0.361 OA
HETATM   17  H   UNL     1      30.896  45.285  59.356  1.00  0.00     0.217 HD
ENDBRANCH  13  16
ENDBRANCH   9  10
ENDBRANCH   7   9
ENDBRANCH   1   7
BRANCH   3  18
HETATM   18  C   UNL     1      24.876  44.005  51.337  1.00  0.00     0.153 A 
HETATM   19  N   UNL     1      24.980  42.723  50.967  1.00  0.00    -0.154 NA
HETATM   20  N   UNL     1      24.739  42.738  49.638  1.00  0.00    -0.275 N 
HETATM   21  C   UNL     1      24.466  43.986  49.155  1.00  0.00     0.116 A 
HETATM   22  C   UNL     1      24.552  44.832  50.236  1.00  0.00     0.071 A 
BRANCH  20  23
HETATM   23  C   UNL     1      24.716  41.492  48.882  1.00  0.00     0.189 C 
BRANCH  23  24
HETATM   24  C   UNL     1      26.075  40.841  48.836  1.00  0.00    -0.038 A 
HETATM   25  C   UNL     1      27.006  41.211  47.852  1.00  0.00     0.009 A 
HETATM   26  C   UNL     1      28.263  40.607  47.802  1.00  0.00     0.001 A 
HETATM   27  C   UNL     1      28.606  39.633  48.737  1.00  0.00     0.000 A 
HETATM   28  C   UNL     1      27.691  39.258  49.719  1.00  0.00     0.001 A 
HETATM   29  C   UNL     1      26.432  39.856  49.769  1.00  0.00     0.009 A 
ENDBRANCH  23  24
ENDBRANCH  20  23
ENDBRANCH   3  18
TORSDOF 7
ENDMDL
MODEL 7
REMARK VINA RESULT:      -8.8      1.445      2.237
REMARK  7 active torsions:
REMARK  status: ('A' for Active; 'I' for Inactive)
REMARK    1  A    between atoms: C_2  and  N_3 
REMARK    2  A    between atoms: C_2  and  C_19 
REMARK       I    between atoms: N_3  and  C_4 
REMARK       I    between atoms: C_4  and  N_5 
REMARK    3  A    between atoms: N_5  and  C_6 
REMARK    4  A    between atoms: N_8  and  C_9 
REMARK    5  A    between atoms: C_9  and  C_10 
REMARK    6  A    between atoms: C_19  and  C_20 
REMARK    7  A    between atoms: C_23  and  O_24 
ROOT
HETATM    1  N   UNL     1      27.130  43.477  53.650  1.00  0.00    -0.338 N 
HETATM    2  C   UNL     1      26.071  43.790  54.441  1.00  0.00     0.322 C 
HETATM    3  N   UNL     1      25.234  44.766  53.987  1.00  0.00    -0.292 N 
HETATM    4  O   UNL     1      25.840  43.247  55.520  1.00  0.00    -0.247 OA
HETATM    5  H   UNL     1      27.200  44.021  52.793  1.00  0.00     0.164 HD
HETATM    6  H   UNL     1      24.475  44.975  54.618  1.00  0.00     0.172 HD
ENDROOT
BRANCH   1   7
HETATM    7  C   UNL     1      28.226  42.611  54.054  1.00  0.00     0.086 C 
HETATM    8  C   UNL     1      28.230  41.364  53.172  1.00  0.00     0.032 C 
BRANCH   7   9
HETATM    9  C   UNL     1      29.577  43.348  53.950  1.00  0.00     0.063 C 
BRANCH   9  10
HETATM   10  C   UNL     1      30.072  43.893  55.271  1.00  0.00    -0.056 A 
HETATM   11  C   UNL     1      31.012  43.177  56.027  1.00  0.00     0.010 A 
HETATM   12  C   UNL     1      31.460  43.671  57.254  1.00  0.00     0.037 A 
HETATM   13  C   UNL     1      30.965  44.882  57.727  1.00  0.00     0.065 A 
HETATM   14  C   UNL     1      30.028  45.602  56.996  1.00  0.00     0.037 A 
HETATM   15  C   UNL     1      29.580  45.107  55.771  1.00  0.00     0.010 A 
BRANCH  13  16
HETATM   16  O   UNL     1      31.374  45.398  58.920  1.00  0.00    -0.361 OA
HETATM   17  H   UNL     1      30.658  45.278  59.566  1.00  0.00     0.217 HD
ENDBRANCH  13  16
ENDBRANCH   9  10
ENDBRANCH   7   9
ENDBRANCH   1   7
BRANCH   3  18
HETATM   18  C   UNL     1      25.331  45.517  52.837  1.00  0.00     0.153 A 
HETATM   19  N   UNL     1      24.922  45.117  51.626  1.00  0.00    -0.154 NA
HETATM   20  N   UNL     1      25.220  46.154  50.813  1.00  0.00    -0.275 N 
HETATM   21  C   UNL     1      25.788  47.207  51.472  1.00  0.00     0.116 A 
HETATM   22  C   UNL     1      25.876  46.821  52.788  1.00  0.00     0.071 A 
BRANCH  20  23
HETATM   23  C   UNL     1      24.868  46.102  49.400  1.00  0.00     0.189 C 
BRANCH  23  24
HETATM   24  C   UNL     1      23.548  46.776  49.128  1.00  0.00    -0.038 A 
HETATM   25  C   UNL     1      22.474  46.044  48.597  1.00  0.00     0.009 A 
HETATM   26  C   UNL     1      21.251  46.666  48.338  1.00  0.00     0.001 A 
HETATM   27  C   UNL     1      21.087  48.021  48.611  1.00  0.00     0.000 A 
HETATM   28  C   UNL     1      22.145  48.759  49.140  1.00  0.00     0.001 A 
HETATM   29  C   UNL     1      23.370  48.141  49.395  1.00  0.00     0.009 A 
ENDBRANCH  23  24
ENDBRANCH  20  23
ENDBRANCH   3  18
TORSDOF 7
ENDMDL
MODEL 8
REMARK VINA RESULT:      -8.7      1.968      2.823
REMARK  7 active torsions:
REMARK  status: ('A' for Active; 'I' for Inactive)
REMARK    1  A    between atoms: C_2  and  N_3 
REMARK    2  A    between atoms: C_2  and  C_19 
REMARK       I    between atoms: N_3  and  C_4 
REMARK       I    between atoms: C_4  and  N_5 
REMARK    3  A    between atoms: N_5  and  C_6 
REMARK    4  A    between atoms: N_8  and  C_9 
REMARK    5  A    between atoms: C_9  and  C_10 
REMARK    6  A    between atoms: C_19  and  C_20 
REMARK    7  A    between atoms: C_23  and  O_24 
ROOT
HETATM    1  N   UNL     1      26.577  45.479  53.530  1.00  0.00    -0.338 N 
HETATM    2  C   UNL     1      26.703  46.831  53.571  1.00  0.00     0.322 C 
HETATM    3  N   UNL     1      26.221  47.524  52.501  1.00  0.00    -0.292 N 
HETATM    4  O   UNL     1      27.219  47.440  54.506  1.00  0.00    -0.247 OA
HETATM    5  H   UNL     1      26.142  45.115  52.685  1.00  0.00     0.164 HD
HETATM    6  H   UNL     1      26.355  48.521  52.570  1.00  0.00     0.172 HD
ENDROOT
BRANCH   1   7
HETATM    7  C   UNL     1      27.200  44.569  54.478  1.00  0.00     0.086 C 
HETATM    8  C   UNL     1      26.489  43.218  54.418  1.00  0.00     0.032 C 
BRANCH   7   9
HETATM    9  C   UNL     1      28.702  44.399  54.172  1.00  0.00     0.063 C 
BRANCH   9  10
HETATM   10  C   UNL     1      29.584  44.498  55.398  1.00  0.00    -0.056 A 
HETATM   11  C   UNL     1      30.564  43.525  55.647  1.00  0.00     0.010 A 
HETATM   12  C   UNL     1      31.370  43.606  56.784  1.00  0.00     0.037 A 
HETATM   13  C   UNL     1      31.192  44.658  57.677  1.00  0.00     0.065 A 
HETATM   14  C   UNL     1      30.222  45.627  57.450  1.00  0.00     0.037 A 
HETATM   15  C   UNL     1      29.416  45.545  56.315  1.00  0.00     0.010 A 
BRANCH  13  16
HETATM   16  O   UNL     1      31.955  44.773  58.800  1.00  0.00    -0.361 OA
HETATM   17  H   UNL     1      32.284  45.685  58.854  1.00  0.00     0.217 HD
ENDBRANCH  13  16
ENDBRANCH   9  10
ENDBRANCH   7   9
ENDBRANCH   1   7
BRANCH   3  18
HETATM   18  C   UNL     1      25.646  47.038  51.348  1.00  0.00     0.153 A 
HETATM   19  N   UNL     1      24.498  47.482  50.820  1.00  0.00    -0.154 NA
HETATM   20  N   UNL     1      24.320  46.721  49.719  1.00  0.00    -0.275 N 
HETATM   21  C   UNL     1      25.327  45.820  49.520  1.00  0.00     0.116 A 
HETATM   22  C   UNL     1      26.202  46.000  50.565  1.00  0.00     0.071 A 
BRANCH  20  23
HETATM   23  C   UNL     1      23.178  46.954  48.844  1.00  0.00     0.189 C 
BRANCH  23  24
HETATM   24  C   UNL     1      22.852  48.421  48.729  1.00  0.00    -0.038 A 
HETATM   25  C   UNL     1      21.607  48.908  49.158  1.00  0.00     0.009 A 
HETATM   26  C   UNL     1      21.299  50.264  49.048  1.00  0.00     0.001 A 
HETATM   27  C   UNL     1      22.233  51.150  48.514  1.00  0.00     0.000 A 
HETATM   28  C   UNL     1      23.473  50.680  48.086  1.00  0.00     0.001 A 
HETATM   29  C   UNL     1      23.782  49.323  48.190  1.00  0.00     0.009 A 
ENDBRANCH  23  24
ENDBRANCH  20  23
ENDBRANCH   3  18
TORSDOF 7
ENDMDL
MODEL 9
REMARK VINA RESULT:      -8.6      3.260      6.057
REMARK  7 active torsions:
REMARK  status: ('A' for Active; 'I' for Inactive)
REMARK    1  A    between atoms: C_2  and  N_3 
REMARK    2  A    between atoms: C_2  and  C_19 
REMARK       I    between atoms: N_3  and  C_4 
REMARK       I    between atoms: C_4  and  N_5 
REMARK    3  A    between atoms: N_5  and  C_6 
REMARK    4  A    between atoms: N_8  and  C_9 
REMARK    5  A    between atoms: C_9  and  C_10 
REMARK    6  A    between atoms: C_19  and  C_20 
REMARK    7  A    between atoms: C_23  and  O_24 
ROOT
HETATM    1  N   UNL     1      26.880  43.963  52.427  1.00  0.00    -0.338 N 
HETATM    2  C   UNL     1      26.397  44.959  51.640  1.00  0.00     0.322 C 
HETATM    3  N   UNL     1      26.029  44.616  50.373  1.00  0.00    -0.292 N 
HETATM    4  O   UNL     1      26.283  46.126  52.009  1.00  0.00    -0.247 OA
HETATM    5  H   UNL     1      26.931  43.050  51.979  1.00  0.00     0.164 HD
HETATM    6  H   UNL     1      25.696  45.393  49.823  1.00  0.00     0.172 HD
ENDROOT
BRANCH   1   7
HETATM    7  C   UNL     1      27.499  44.171  53.726  1.00  0.00     0.086 C 
HETATM    8  C   UNL     1      26.843  43.245  54.749  1.00  0.00     0.032 C 
BRANCH   7   9
HETATM    9  C   UNL     1      29.017  43.911  53.661  1.00  0.00     0.063 C 
BRANCH   9  10
HETATM   10  C   UNL     1      29.728  44.140  54.976  1.00  0.00    -0.056 A 
HETATM   11  C   UNL     1      30.589  43.163  55.498  1.00  0.00     0.010 A 
HETATM   12  C   UNL     1      31.236  43.366  56.719  1.00  0.00     0.037 A 
HETATM   13  C   UNL     1      31.017  44.547  57.421  1.00  0.00     0.065 A 
HETATM   14  C   UNL     1      30.163  45.523  56.924  1.00  0.00     0.037 A 
HETATM   15  C   UNL     1      29.516  45.318  55.705  1.00  0.00     0.010 A 
BRANCH  13  16
HETATM   16  O   UNL     1      31.626  44.784  58.618  1.00  0.00    -0.361 OA
HETATM   17  H   UNL     1      32.570  44.574  58.526  1.00  0.00     0.217 HD
ENDBRANCH  13  16
ENDBRANCH   9  10
ENDBRANCH   7   9
ENDBRANCH   1   7
BRANCH   3  18
HETATM   18  C   UNL     1      26.110  43.388  49.755  1.00  0.00     0.153 A 
HETATM   19  N   UNL     1      27.222  42.878  49.209  1.00  0.00    -0.154 NA
HETATM   20  N   UNL     1      26.835  41.681  48.719  1.00  0.00    -0.275 N 
HETATM   21  C   UNL     1      25.518  41.405  48.952  1.00  0.00     0.116 A 
HETATM   22  C   UNL     1      25.019  42.497  49.621  1.00  0.00     0.071 A 
BRANCH  20  23
HETATM   23  C   UNL     1      27.807  40.800  48.084  1.00  0.00     0.189 C 
BRANCH  23  24
HETATM   24  C   UNL     1      28.503  39.919  49.090  1.00  0.00    -0.038 A 
HETATM   25  C   UNL     1      29.263  38.818  48.663  1.00  0.00     0.009 A 
HETATM   26  C   UNL     1      29.904  37.997  49.591  1.00  0.00     0.001 A 
HETATM   27  C   UNL     1      29.799  38.269  50.953  1.00  0.00     0.000 A 
HETATM   28  C   UNL     1      29.049  39.360  51.389  1.00  0.00     0.001 A 
HETATM   29  C   UNL     1      28.402  40.180  50.464  1.00  0.00     0.009 A 
ENDBRANCH  23  24
ENDBRANCH  20  23
ENDBRANCH   3  18
TORSDOF 7
ENDMDL
MODEL 10
REMARK VINA RESULT:      -8.6      3.242      7.284
REMARK  7 active torsions:
REMARK  status: ('A' for Active; 'I' for Inactive)
REMARK    1  A    between atoms: C_2  and  N_3 
REMARK    2  A    between atoms: C_2  and  C_19 
REMARK       I    between atoms: N_3  and  C_4 
REMARK       I    between atoms: C_4  and  N_5 
REMARK    3  A    between atoms: N_5  and  C_6 
REMARK    4  A    between atoms: N_8  and  C_9 
REMARK    5  A    between atoms: C_9  and  C_10 
REMARK    6  A    between atoms: C_19  and  C_20 
REMARK    7  A    between atoms: C_23  and  O_24 
ROOT
HETATM    1  N   UNL     1      26.056  43.807  50.617  1.00  0.00    -0.338 N 
HETATM    2  C   UNL     1      26.852  42.957  49.917  1.00  0.00     0.322 C 
HETATM    3  N   UNL     1      27.845  42.333  50.612  1.00  0.00    -0.292 N 
HETATM    4  O   UNL     1      26.720  42.733  48.715  1.00  0.00    -0.247 OA
HETATM    5  H   UNL     1      26.296  43.903  51.602  1.00  0.00     0.164 HD
HETATM    6  H   UNL     1      28.419  41.729  50.044  1.00  0.00     0.172 HD
ENDROOT
BRANCH   1   7
HETATM    7  C   UNL     1      25.081  44.701  50.014  1.00  0.00     0.086 C 
HETATM    8  C   UNL     1      23.721  44.008  49.977  1.00  0.00     0.032 C 
BRANCH   7   9
HETATM    9  C   UNL     1      24.989  46.025  50.800  1.00  0.00     0.063 C 
BRANCH   9  10
HETATM   10  C   UNL     1      25.493  47.224  50.028  1.00  0.00    -0.056 A 
HETATM   11  C   UNL     1      26.869  47.428  49.852  1.00  0.00     0.010 A 
HETATM   12  C   UNL     1      27.338  48.541  49.151  1.00  0.00     0.037 A 
HETATM   13  C   UNL     1      26.428  49.454  48.629  1.00  0.00     0.065 A 
HETATM   14  C   UNL     1      25.061  49.273  48.798  1.00  0.00     0.037 A 
HETATM   15  C   UNL     1      24.594  48.161  49.500  1.00  0.00     0.010 A 
BRANCH  13  16
HETATM   16  O   UNL     1      26.843  50.556  47.941  1.00  0.00    -0.361 OA
HETATM   17  H   UNL     1      27.793  50.677  48.104  1.00  0.00     0.217 HD
ENDBRANCH  13  16
ENDBRANCH   9  10
ENDBRANCH   7   9
ENDBRANCH   1   7
BRANCH   3  18
HETATM   18  C   UNL     1      28.184  42.470  51.939  1.00  0.00     0.153 A 
HETATM   19  N   UNL     1      28.480  43.632  52.537  1.00  0.00    -0.154 NA
HETATM   20  N   UNL     1      28.757  43.290  53.814  1.00  0.00    -0.275 N 
HETATM   21  C   UNL     1      28.628  41.951  54.051  1.00  0.00     0.116 A 
HETATM   22  C   UNL     1      28.261  41.392  52.851  1.00  0.00     0.071 A 
BRANCH  20  23
HETATM   23  C   UNL     1      29.079  44.318  54.795  1.00  0.00     0.189 C 
BRANCH  23  24
HETATM   24  C   UNL     1      28.122  45.480  54.722  1.00  0.00    -0.038 A 
HETATM   25  C   UNL     1      28.568  46.784  54.987  1.00  0.00     0.009 A 
HETATM   26  C   UNL     1      27.683  47.862  54.926  1.00  0.00     0.001 A 
HETATM   27  C   UNL     1      26.347  47.649  54.595  1.00  0.00     0.000 A 
HETATM   28  C   UNL     1      25.893  46.359  54.328  1.00  0.00     0.001 A 
HETATM   29  C   UNL     1      26.773  45.279  54.393  1.00  0.00     0.009 A 
ENDBRANCH  23  24
ENDBRANCH  20  23
ENDBRANCH   3  18
TORSDOF 7
ENDMDL
