MODEL 1
REMARK VINA RESULT:      -8.6      0.000      0.000
REMARK  3 active torsions:
REMARK  status: ('A' for Active; 'I' for Inactive)
REMARK    1  A    between atoms: C_2  and  N_3 
REMARK       I    between atoms: N_3  and  C_4 
REMARK    2  A    between atoms: C_4  and  C_5 
REMARK    3  A    between atoms: C_5  and  C_6 
ROOT
HETATM    1  C   UNL     1      26.649  42.768  51.220  1.00  0.00     0.286 C 
HETATM    2  N   UNL     1      25.480  43.289  52.054  1.00  0.00    -0.056 N 
HETATM    3  H   UNL     1      24.719  42.604  51.959  1.00  0.00     0.278 HD
HETATM    4  H   UNL     1      25.749  43.217  53.059  1.00  0.00     0.278 HD
HETATM    5  C   UNL     1      24.930  44.646  51.728  1.00  0.00     0.209 C 
HETATM    6  C   UNL     1      24.710  44.761  50.200  1.00  0.00     0.115 C 
HETATM    7  N   UNL     1      25.862  44.309  49.426  1.00  0.00    -0.353 N 
HETATM    8  C   UNL     1      26.583  43.186  49.744  1.00  0.00     0.249 C 
HETATM    9  O   UNL     1      27.238  42.612  48.879  1.00  0.00    -0.271 OA
HETATM   10  C   UNL     1      25.817  45.746  52.311  1.00  0.00     0.035 C 
HETATM   11  C   UNL     1      25.319  47.130  51.905  1.00  0.00     0.002 C 
HETATM   12  C   UNL     1      25.221  47.252  50.387  1.00  0.00     0.002 C 
HETATM   13  C   UNL     1      24.300  46.182  49.799  1.00  0.00     0.027 C 
HETATM   14  H   UNL     1      25.853  44.483  48.421  1.00  0.00     0.163 HD
ENDROOT
BRANCH   1  15
HETATM   15  C   UNL     1      28.032  43.169  51.758  1.00  0.00     0.146 C 
BRANCH  15  16
HETATM   16  C   UNL     1      28.783  42.030  52.386  1.00  0.00     0.224 C 
HETATM   17  N   UNL     1      29.456  42.156  53.559  1.00  0.00    -0.327 N 
HETATM   18  H   UNL     1      29.927  41.289  53.804  1.00  0.00     0.169 HD
HETATM   19  O   UNL     1      28.754  40.920  51.836  1.00  0.00    -0.273 OA
BRANCH  17  20
HETATM   20  C   UNL     1      29.618  43.195  54.498  1.00  0.00     0.034 A 
HETATM   21  C   UNL     1      28.784  44.304  54.655  1.00  0.00     0.031 A 
HETATM   22  C   UNL     1      29.043  45.261  55.648  1.00  0.00     0.026 A 
HETATM   23  C   UNL     1      30.139  45.118  56.491  1.00  0.00     0.034 A 
HETATM   24  C   UNL     1      30.982  44.025  56.350  1.00  0.00     0.026 A 
HETATM   25 CL   UNL     1      30.445  46.293  57.707  1.00  0.00    -0.084 Cl
HETATM   26  C   UNL     1      30.721  43.070  55.361  1.00  0.00     0.031 A 
ENDBRANCH  17  20
ENDBRANCH  15  16
ENDBRANCH   1  15
TORSDOF 3
ENDMDL
MODEL 2
REMARK VINA RESULT:      -8.5      2.617      4.507
REMARK  3 active torsions:
REMARK  status: ('A' for Active; 'I' for Inactive)
REMARK    1  A    between atoms: C_2  and  N_3 
REMARK       I    between atoms: N_3  and  C_4 
REMARK    2  A    between atoms: C_4  and  C_5 
REMARK    3  A    between atoms: C_5  and  C_6 
ROOT
HETATM    1  C   UNL     1      26.235  45.200  52.429  1.00  0.00     0.286 C 
HETATM    2  N   UNL     1      27.708  45.020  52.066  1.00  0.00    -0.056 N 
HETATM    3  H   UNL     1      27.806  45.301  51.082  1.00  0.00     0.278 HD
HETATM    4  H   UNL     1      28.253  45.744  52.582  1.00  0.00     0.278 HD
HETATM    5  C   UNL     1      28.313  43.657  52.226  1.00  0.00     0.209 C 
HETATM    6  C   UNL     1      27.379  42.599  51.592  1.00  0.00     0.115 C 
HETATM    7  N   UNL     1      25.985  42.758  51.998  1.00  0.00    -0.353 N 
HETATM    8  C   UNL     1      25.367  43.979  52.090  1.00  0.00     0.249 C 
HETATM    9  O   UNL     1      24.145  44.056  52.012  1.00  0.00    -0.271 OA
HETATM   10  C   UNL     1      28.656  43.384  53.691  1.00  0.00     0.035 C 
HETATM   11  C   UNL     1      29.184  41.965  53.878  1.00  0.00     0.002 C 
HETATM   12  C   UNL     1      28.190  40.936  53.347  1.00  0.00     0.002 C 
HETATM   13  C   UNL     1      27.875  41.176  51.870  1.00  0.00     0.027 C 
HETATM   14  H   UNL     1      25.331  42.020  51.738  1.00  0.00     0.163 HD
ENDROOT
BRANCH   1  15
HETATM   15  C   UNL     1      25.990  45.553  53.905  1.00  0.00     0.146 C 
BRANCH  15  16
HETATM   16  C   UNL     1      26.169  47.012  54.210  1.00  0.00     0.224 C 
HETATM   17  N   UNL     1      27.059  47.463  55.131  1.00  0.00    -0.327 N 
HETATM   18  H   UNL     1      27.011  48.475  55.220  1.00  0.00     0.169 HD
HETATM   19  O   UNL     1      25.510  47.841  53.567  1.00  0.00    -0.273 OA
BRANCH  17  20
HETATM   20  C   UNL     1      28.027  46.849  55.952  1.00  0.00     0.034 A 
HETATM   21  C   UNL     1      27.929  46.639  57.329  1.00  0.00     0.031 A 
HETATM   22  C   UNL     1      28.958  45.992  58.030  1.00  0.00     0.026 A 
HETATM   23  C   UNL     1      30.093  45.551  57.360  1.00  0.00     0.034 A 
HETATM   24  C   UNL     1      30.212  45.751  55.993  1.00  0.00     0.026 A 
HETATM   25 CL   UNL     1      31.345  44.755  58.228  1.00  0.00    -0.084 Cl
HETATM   26  C   UNL     1      29.184  46.394  55.295  1.00  0.00     0.031 A 
ENDBRANCH  17  20
ENDBRANCH  15  16
ENDBRANCH   1  15
TORSDOF 3
ENDMDL
MODEL 3
REMARK VINA RESULT:      -8.1      3.607      7.314
REMARK  3 active torsions:
REMARK  status: ('A' for Active; 'I' for Inactive)
REMARK    1  A    between atoms: C_2  and  N_3 
REMARK       I    between atoms: N_3  and  C_4 
REMARK    2  A    between atoms: C_4  and  C_5 
REMARK    3  A    between atoms: C_5  and  C_6 
ROOT
HETATM    1  C   UNL     1      25.995  45.104  53.561  1.00  0.00     0.286 C 
HETATM    2  N   UNL     1      26.025  43.621  53.924  1.00  0.00    -0.056 N 
HETATM    3  H   UNL     1      25.571  43.532  54.843  1.00  0.00     0.278 HD
HETATM    4  H   UNL     1      25.373  43.123  53.281  1.00  0.00     0.278 HD
HETATM    5  C   UNL     1      27.358  42.938  53.993  1.00  0.00     0.209 C 
HETATM    6  C   UNL     1      28.340  43.804  54.818  1.00  0.00     0.115 C 
HETATM    7  N   UNL     1      28.334  45.208  54.415  1.00  0.00    -0.353 N 
HETATM    8  C   UNL     1      27.185  45.897  54.122  1.00  0.00     0.249 C 
HETATM    9  O   UNL     1      27.165  47.121  54.206  1.00  0.00    -0.271 OA
HETATM   10  C   UNL     1      27.863  42.590  52.593  1.00  0.00     0.035 C 
HETATM   11  C   UNL     1      29.261  41.981  52.647  1.00  0.00     0.002 C 
HETATM   12  C   UNL     1      30.236  42.910  53.366  1.00  0.00     0.002 C 
HETATM   13  C   UNL     1      29.760  43.228  54.783  1.00  0.00     0.027 C 
HETATM   14  H   UNL     1      29.051  45.815  54.810  1.00  0.00     0.163 HD
ENDROOT
BRANCH   1  15
HETATM   15  C   UNL     1      25.920  45.380  52.050  1.00  0.00     0.146 C 
BRANCH  15  16
HETATM   16  C   UNL     1      24.703  44.794  51.394  1.00  0.00     0.224 C 
HETATM   17  N   UNL     1      23.964  45.477  50.482  1.00  0.00    -0.327 N 
HETATM   18  H   UNL     1      23.163  44.929  50.178  1.00  0.00     0.169 HD
HETATM   19  O   UNL     1      24.383  43.628  51.663  1.00  0.00    -0.273 OA
BRANCH  17  20
HETATM   20  C   UNL     1      24.078  46.739  49.864  1.00  0.00     0.034 A 
HETATM   21  C   UNL     1      25.209  47.558  49.861  1.00  0.00     0.031 A 
HETATM   22  C   UNL     1      25.201  48.787  49.185  1.00  0.00     0.026 A 
HETATM   23  C   UNL     1      24.062  49.209  48.507  1.00  0.00     0.034 A 
HETATM   24  C   UNL     1      22.927  48.411  48.499  1.00  0.00     0.026 A 
HETATM   25 CL   UNL     1      24.066  50.714  47.678  1.00  0.00    -0.084 Cl
HETATM   26  C   UNL     1      22.938  47.184  49.172  1.00  0.00     0.031 A 
ENDBRANCH  17  20
ENDBRANCH  15  16
ENDBRANCH   1  15
TORSDOF 3
ENDMDL
MODEL 4
REMARK VINA RESULT:      -8.1      1.815      2.617
REMARK  3 active torsions:
REMARK  status: ('A' for Active; 'I' for Inactive)
REMARK    1  A    between atoms: C_2  and  N_3 
REMARK       I    between atoms: N_3  and  C_4 
REMARK    2  A    between atoms: C_4  and  C_5 
REMARK    3  A    between atoms: C_5  and  C_6 
ROOT
HETATM    1  C   UNL     1      26.836  44.761  51.663  1.00  0.00     0.286 C 
HETATM    2  N   UNL     1      26.850  44.362  50.189  1.00  0.00    -0.056 N 
HETATM    3  H   UNL     1      27.271  45.146  49.674  1.00  0.00     0.278 HD
HETATM    4  H   UNL     1      27.544  43.593  50.074  1.00  0.00     0.278 HD
HETATM    5  C   UNL     1      25.541  44.023  49.539  1.00  0.00     0.209 C 
HETATM    6  C   UNL     1      24.496  45.110  49.883  1.00  0.00     0.115 C 
HETATM    7  N   UNL     1      24.464  45.435  51.306  1.00  0.00    -0.353 N 
HETATM    8  C   UNL     1      25.596  45.572  52.068  1.00  0.00     0.249 C 
HETATM    9  O   UNL     1      25.566  46.237  53.098  1.00  0.00    -0.271 OA
HETATM   10  C   UNL     1      25.105  42.604  49.903  1.00  0.00     0.035 C 
HETATM   11  C   UNL     1      23.730  42.283  49.324  1.00  0.00     0.002 C 
HETATM   12  C   UNL     1      22.694  43.309  49.775  1.00  0.00     0.002 C 
HETATM   13  C   UNL     1      23.101  44.727  49.374  1.00  0.00     0.027 C 
HETATM   14  H   UNL     1      23.709  46.036  51.636  1.00  0.00     0.163 HD
ENDROOT
BRANCH   1  15
HETATM   15  C   UNL     1      26.960  43.577  52.637  1.00  0.00     0.146 C 
BRANCH  15  16
HETATM   16  C   UNL     1      28.238  42.806  52.482  1.00  0.00     0.224 C 
HETATM   17  N   UNL     1      29.310  42.996  53.295  1.00  0.00    -0.327 N 
HETATM   18  H   UNL     1      30.090  42.408  53.013  1.00  0.00     0.169 HD
HETATM   19  O   UNL     1      28.306  41.932  51.606  1.00  0.00    -0.273 OA
BRANCH  17  20
HETATM   20  C   UNL     1      29.559  43.794  54.430  1.00  0.00     0.034 A 
HETATM   21  C   UNL     1      28.828  44.915  54.828  1.00  0.00     0.031 A 
HETATM   22  C   UNL     1      29.166  45.612  55.997  1.00  0.00     0.026 A 
HETATM   23  C   UNL     1      30.237  45.195  56.779  1.00  0.00     0.034 A 
HETATM   24  C   UNL     1      30.977  44.084  56.401  1.00  0.00     0.026 A 
HETATM   25 CL   UNL     1      30.639  46.053  58.213  1.00  0.00    -0.084 Cl
HETATM   26  C   UNL     1      30.637  43.388  55.235  1.00  0.00     0.031 A 
ENDBRANCH  17  20
ENDBRANCH  15  16
ENDBRANCH   1  15
TORSDOF 3
ENDMDL
MODEL 5
REMARK VINA RESULT:      -8.1      1.635      2.017
REMARK  3 active torsions:
REMARK  status: ('A' for Active; 'I' for Inactive)
REMARK    1  A    between atoms: C_2  and  N_3 
REMARK       I    between atoms: N_3  and  C_4 
REMARK    2  A    between atoms: C_4  and  C_5 
REMARK    3  A    between atoms: C_5  and  C_6 
ROOT
HETATM    1  C   UNL     1      24.964  42.643  50.459  1.00  0.00     0.286 C 
HETATM    2  N   UNL     1      24.564  43.499  51.659  1.00  0.00    -0.056 N 
HETATM    3  H   UNL     1      23.585  43.269  51.874  1.00  0.00     0.278 HD
HETATM    4  H   UNL     1      25.086  43.146  52.489  1.00  0.00     0.278 HD
HETATM    5  C   UNL     1      24.678  44.990  51.531  1.00  0.00     0.209 C 
HETATM    6  C   UNL     1      24.038  45.444  50.198  1.00  0.00     0.115 C 
HETATM    7  N   UNL     1      24.479  44.646  49.057  1.00  0.00    -0.353 N 
HETATM    8  C   UNL     1      24.614  43.282  49.106  1.00  0.00     0.249 C 
HETATM    9  O   UNL     1      24.565  42.623  48.073  1.00  0.00    -0.271 OA
HETATM   10  C   UNL     1      26.127  45.441  51.711  1.00  0.00     0.035 C 
HETATM   11  C   UNL     1      26.268  46.945  51.489  1.00  0.00     0.002 C 
HETATM   12  C   UNL     1      25.734  47.347  50.118  1.00  0.00     0.002 C 
HETATM   13  C   UNL     1      24.271  46.939  49.947  1.00  0.00     0.027 C 
HETATM   14  H   UNL     1      24.216  44.968  48.126  1.00  0.00     0.163 HD
ENDROOT
BRANCH   1  15
HETATM   15  C   UNL     1      26.453  42.263  50.425  1.00  0.00     0.146 C 
BRANCH  15  16
HETATM   16  C   UNL     1      26.765  40.997  51.170  1.00  0.00     0.224 C 
HETATM   17  N   UNL     1      27.488  40.984  52.319  1.00  0.00    -0.327 N 
HETATM   18  H   UNL     1      27.622  40.033  52.655  1.00  0.00     0.169 HD
HETATM   19  O   UNL     1      26.310  39.927  50.743  1.00  0.00    -0.273 OA
BRANCH  17  20
HETATM   20  C   UNL     1      28.057  41.979  53.140  1.00  0.00     0.034 A 
HETATM   21  C   UNL     1      27.361  42.881  53.947  1.00  0.00     0.031 A 
HETATM   22  C   UNL     1      28.050  43.813  54.738  1.00  0.00     0.026 A 
HETATM   23  C   UNL     1      29.440  43.851  54.729  1.00  0.00     0.034 A 
HETATM   24  C   UNL     1      30.150  42.964  53.932  1.00  0.00     0.026 A 
HETATM   25 CL   UNL     1      30.273  44.992  55.706  1.00  0.00    -0.084 Cl
HETATM   26  C   UNL     1      29.462  42.034  53.145  1.00  0.00     0.031 A 
ENDBRANCH  17  20
ENDBRANCH  15  16
ENDBRANCH   1  15
TORSDOF 3
ENDMDL
MODEL 6
REMARK VINA RESULT:      -8.1     13.211     15.326
REMARK  3 active torsions:
REMARK  status: ('A' for Active; 'I' for Inactive)
REMARK    1  A    between atoms: C_2  and  N_3 
REMARK       I    between atoms: N_3  and  C_4 
REMARK    2  A    between atoms: C_4  and  C_5 
REMARK    3  A    between atoms: C_5  and  C_6 
ROOT
HETATM    1  C   UNL     1      31.982  52.052  41.995  1.00  0.00     0.286 C 
HETATM    2  N   UNL     1      30.811  51.184  42.448  1.00  0.00    -0.056 N 
HETATM    3  H   UNL     1      30.754  51.274  43.471  1.00  0.00     0.278 HD
HETATM    4  H   UNL     1      29.932  51.635  42.114  1.00  0.00     0.278 HD
HETATM    5  C   UNL     1      30.843  49.723  42.108  1.00  0.00     0.209 C 
HETATM    6  C   UNL     1      32.230  49.139  42.466  1.00  0.00     0.115 C 
HETATM    7  N   UNL     1      33.334  49.958  41.973  1.00  0.00    -0.353 N 
HETATM    8  C   UNL     1      33.336  51.329  42.040  1.00  0.00     0.249 C 
HETATM    9  O   UNL     1      34.399  51.942  42.023  1.00  0.00    -0.271 OA
HETATM   10  C   UNL     1      30.429  49.495  40.654  1.00  0.00     0.035 C 
HETATM   11  C   UNL     1      30.549  48.023  40.271  1.00  0.00     0.002 C 
HETATM   12  C   UNL     1      31.961  47.505  40.527  1.00  0.00     0.002 C 
HETATM   13  C   UNL     1      32.366  47.689  41.990  1.00  0.00     0.027 C 
HETATM   14  H   UNL     1      34.275  49.573  42.043  1.00  0.00     0.163 HD
ENDROOT
BRANCH   1  15
HETATM   15  C   UNL     1      31.816  52.646  40.586  1.00  0.00     0.146 C 
BRANCH  15  16
HETATM   16  C   UNL     1      30.906  53.839  40.542  1.00  0.00     0.224 C 
HETATM   17  N   UNL     1      29.591  53.744  40.214  1.00  0.00    -0.327 N 
HETATM   18  H   UNL     1      29.150  54.660  40.207  1.00  0.00     0.169 HD
HETATM   19  O   UNL     1      31.359  54.948  40.858  1.00  0.00    -0.273 OA
BRANCH  17  20
HETATM   20  C   UNL     1      28.723  52.674  39.913  1.00  0.00     0.034 A 
HETATM   21  C   UNL     1      28.540  52.087  38.660  1.00  0.00     0.031 A 
HETATM   22  C   UNL     1      27.659  51.008  38.496  1.00  0.00     0.026 A 
HETATM   23  C   UNL     1      26.953  50.507  39.584  1.00  0.00     0.034 A 
HETATM   24  C   UNL     1      27.119  51.077  40.838  1.00  0.00     0.026 A 
HETATM   25 CL   UNL     1      25.880  49.181  39.374  1.00  0.00    -0.084 Cl
HETATM   26  C   UNL     1      28.000  52.152  41.000  1.00  0.00     0.031 A 
ENDBRANCH  17  20
ENDBRANCH  15  16
ENDBRANCH   1  15
TORSDOF 3
ENDMDL
MODEL 7
REMARK VINA RESULT:      -8.0      2.903      3.978
REMARK  3 active torsions:
REMARK  status: ('A' for Active; 'I' for Inactive)
REMARK    1  A    between atoms: C_2  and  N_3 
REMARK       I    between atoms: N_3  and  C_4 
REMARK    2  A    between atoms: C_4  and  C_5 
REMARK    3  A    between atoms: C_5  and  C_6 
ROOT
HETATM    1  C   UNL     1      26.174  46.271  51.641  1.00  0.00     0.286 C 
HETATM    2  N   UNL     1      26.883  45.058  51.040  1.00  0.00    -0.056 N 
HETATM    3  H   UNL     1      27.612  45.423  50.413  1.00  0.00     0.278 HD
HETATM    4  H   UNL     1      27.424  44.597  51.802  1.00  0.00     0.278 HD
HETATM    5  C   UNL     1      26.058  44.068  50.274  1.00  0.00     0.209 C 
HETATM    6  C   UNL     1      25.145  44.818  49.274  1.00  0.00     0.115 C 
HETATM    7  N   UNL     1      24.436  45.939  49.886  1.00  0.00    -0.353 N 
HETATM    8  C   UNL     1      25.028  46.805  50.770  1.00  0.00     0.249 C 
HETATM    9  O   UNL     1      24.568  47.932  50.926  1.00  0.00    -0.271 OA
HETATM   10  C   UNL     1      25.305  43.137  51.224  1.00  0.00     0.035 C 
HETATM   11  C   UNL     1      24.389  42.187  50.456  1.00  0.00     0.002 C 
HETATM   12  C   UNL     1      23.422  42.961  49.565  1.00  0.00     0.002 C 
HETATM   13  C   UNL     1      24.169  43.862  48.581  1.00  0.00     0.027 C 
HETATM   14  H   UNL     1      23.711  46.396  49.335  1.00  0.00     0.163 HD
ENDROOT
BRANCH   1  15
HETATM   15  C   UNL     1      25.618  46.036  53.056  1.00  0.00     0.146 C 
BRANCH  15  16
HETATM   16  C   UNL     1      25.982  47.120  54.029  1.00  0.00     0.224 C 
HETATM   17  N   UNL     1      27.024  47.006  54.893  1.00  0.00    -0.327 N 
HETATM   18  H   UNL     1      27.091  47.824  55.493  1.00  0.00     0.169 HD
HETATM   19  O   UNL     1      25.335  48.176  54.017  1.00  0.00    -0.273 OA
BRANCH  17  20
HETATM   20  C   UNL     1      28.020  46.034  55.116  1.00  0.00     0.034 A 
HETATM   21  C   UNL     1      28.225  44.874  54.366  1.00  0.00     0.031 A 
HETATM   22  C   UNL     1      29.273  43.995  54.679  1.00  0.00     0.026 A 
HETATM   23  C   UNL     1      30.124  44.267  55.744  1.00  0.00     0.034 A 
HETATM   24  C   UNL     1      29.937  45.413  56.503  1.00  0.00     0.026 A 
HETATM   25 CL   UNL     1      31.407  43.186  56.114  1.00  0.00    -0.084 Cl
HETATM   26  C   UNL     1      28.893  46.290  56.188  1.00  0.00     0.031 A 
ENDBRANCH  17  20
ENDBRANCH  15  16
ENDBRANCH   1  15
TORSDOF 3
ENDMDL
MODEL 8
REMARK VINA RESULT:      -7.9      3.875      6.795
REMARK  3 active torsions:
REMARK  status: ('A' for Active; 'I' for Inactive)
REMARK    1  A    between atoms: C_2  and  N_3 
REMARK       I    between atoms: N_3  and  C_4 
REMARK    2  A    between atoms: C_4  and  C_5 
REMARK    3  A    between atoms: C_5  and  C_6 
ROOT
HETATM    1  C   UNL     1      27.930  45.809  55.808  1.00  0.00     0.286 C 
HETATM    2  N   UNL     1      27.179  44.587  55.282  1.00  0.00    -0.056 N 
HETATM    3  H   UNL     1      26.836  44.075  56.105  1.00  0.00     0.278 HD
HETATM    4  H   UNL     1      26.306  44.925  54.824  1.00  0.00     0.278 HD
HETATM    5  C   UNL     1      27.924  43.624  54.407  1.00  0.00     0.209 C 
HETATM    6  C   UNL     1      29.290  43.289  55.053  1.00  0.00     0.115 C 
HETATM    7  N   UNL     1      30.013  44.477  55.496  1.00  0.00    -0.353 N 
HETATM    8  C   UNL     1      29.405  45.529  56.132  1.00  0.00     0.249 C 
HETATM    9  O   UNL     1      30.064  46.278  56.846  1.00  0.00    -0.271 OA
HETATM   10  C   UNL     1      28.027  44.156  52.978  1.00  0.00     0.035 C 
HETATM   11  C   UNL     1      28.864  43.228  52.102  1.00  0.00     0.002 C 
HETATM   12  C   UNL     1      30.248  43.008  52.706  1.00  0.00     0.002 C 
HETATM   13  C   UNL     1      30.155  42.434  54.120  1.00  0.00     0.027 C 
HETATM   14  H   UNL     1      30.979  44.355  55.802  1.00  0.00     0.163 HD
ENDROOT
BRANCH   1  15
HETATM   15  C   UNL     1      27.880  47.028  54.872  1.00  0.00     0.146 C 
BRANCH  15  16
HETATM   16  C   UNL     1      26.552  47.728  54.871  1.00  0.00     0.224 C 
HETATM   17  N   UNL     1      25.664  47.610  53.851  1.00  0.00    -0.327 N 
HETATM   18  H   UNL     1      24.840  48.183  54.016  1.00  0.00     0.169 HD
HETATM   19  O   UNL     1      26.234  48.406  55.858  1.00  0.00    -0.273 OA
BRANCH  17  20
HETATM   20  C   UNL     1      25.628  46.866  52.654  1.00  0.00     0.034 A 
HETATM   21  C   UNL     1      26.235  47.215  51.445  1.00  0.00     0.031 A 
HETATM   22  C   UNL     1      26.144  46.372  50.328  1.00  0.00     0.026 A 
HETATM   23  C   UNL     1      25.444  45.173  50.409  1.00  0.00     0.034 A 
HETATM   24  C   UNL     1      24.831  44.808  51.599  1.00  0.00     0.026 A 
HETATM   25 CL   UNL     1      25.342  44.145  49.035  1.00  0.00    -0.084 Cl
HETATM   26  C   UNL     1      24.926  45.650  52.713  1.00  0.00     0.031 A 
ENDBRANCH  17  20
ENDBRANCH  15  16
ENDBRANCH   1  15
TORSDOF 3
ENDMDL
MODEL 9
REMARK VINA RESULT:      -7.9      3.476      6.244
REMARK  3 active torsions:
REMARK  status: ('A' for Active; 'I' for Inactive)
REMARK    1  A    between atoms: C_2  and  N_3 
REMARK       I    between atoms: N_3  and  C_4 
REMARK    2  A    between atoms: C_4  and  C_5 
REMARK    3  A    between atoms: C_5  and  C_6 
ROOT
HETATM    1  C   UNL     1      26.003  44.544  52.015  1.00  0.00     0.286 C 
HETATM    2  N   UNL     1      26.124  43.425  53.047  1.00  0.00    -0.056 N 
HETATM    3  H   UNL     1      25.201  43.330  53.491  1.00  0.00     0.278 HD
HETATM    4  H   UNL     1      26.239  42.527  52.529  1.00  0.00     0.278 HD
HETATM    5  C   UNL     1      27.152  43.571  54.129  1.00  0.00     0.209 C 
HETATM    6  C   UNL     1      27.051  44.985  54.749  1.00  0.00     0.115 C 
HETATM    7  N   UNL     1      26.993  46.042  53.743  1.00  0.00    -0.353 N 
HETATM    8  C   UNL     1      26.244  45.944  52.598  1.00  0.00     0.249 C 
HETATM    9  O   UNL     1      25.882  46.960  52.013  1.00  0.00    -0.271 OA
HETATM   10  C   UNL     1      28.545  43.220  53.606  1.00  0.00     0.035 C 
HETATM   11  C   UNL     1      29.610  43.457  54.673  1.00  0.00     0.002 C 
HETATM   12  C   UNL     1      29.562  44.894  55.184  1.00  0.00     0.002 C 
HETATM   13  C   UNL     1      28.185  45.240  55.749  1.00  0.00     0.027 C 
HETATM   14  H   UNL     1      27.068  47.006  54.066  1.00  0.00     0.163 HD
ENDROOT
BRANCH   1  15
HETATM   15  C   UNL     1      26.927  44.379  50.797  1.00  0.00     0.146 C 
BRANCH  15  16
HETATM   16  C   UNL     1      26.197  44.012  49.537  1.00  0.00     0.224 C 
HETATM   17  N   UNL     1      26.416  42.844  48.879  1.00  0.00    -0.327 N 
HETATM   18  H   UNL     1      25.854  42.791  48.033  1.00  0.00     0.169 HD
HETATM   19  O   UNL     1      25.331  44.783  49.102  1.00  0.00    -0.273 OA
BRANCH  17  20
HETATM   20  C   UNL     1      27.215  41.708  49.123  1.00  0.00     0.034 A 
HETATM   21  C   UNL     1      27.491  41.145  50.371  1.00  0.00     0.031 A 
HETATM   22  C   UNL     1      28.286  39.994  50.476  1.00  0.00     0.026 A 
HETATM   23  C   UNL     1      28.812  39.397  49.337  1.00  0.00     0.034 A 
HETATM   24  C   UNL     1      28.551  39.941  48.087  1.00  0.00     0.026 A 
HETATM   25 CL   UNL     1      29.780  37.984  49.477  1.00  0.00    -0.084 Cl
HETATM   26  C   UNL     1      27.756  41.088  47.983  1.00  0.00     0.031 A 
ENDBRANCH  17  20
ENDBRANCH  15  16
ENDBRANCH   1  15
TORSDOF 3
ENDMDL
MODEL 10
REMARK VINA RESULT:      -7.8     12.876     14.609
REMARK  3 active torsions:
REMARK  status: ('A' for Active; 'I' for Inactive)
REMARK    1  A    between atoms: C_2  and  N_3 
REMARK       I    between atoms: N_3  and  C_4 
REMARK    2  A    between atoms: C_4  and  C_5 
REMARK    3  A    between atoms: C_5  and  C_6 
ROOT
HETATM    1  C   UNL     1      32.511  49.955  41.954  1.00  0.00     0.286 C 
HETATM    2  N   UNL     1      32.743  50.482  40.539  1.00  0.00    -0.056 N 
HETATM    3  H   UNL     1      33.717  50.810  40.502  1.00  0.00     0.278 HD
HETATM    4  H   UNL     1      32.735  49.666  39.890  1.00  0.00     0.278 HD
HETATM    5  C   UNL     1      31.858  51.587  40.044  1.00  0.00     0.209 C 
HETATM    6  C   UNL     1      31.766  52.697  41.119  1.00  0.00     0.115 C 
HETATM    7  N   UNL     1      31.488  52.172  42.453  1.00  0.00    -0.353 N 
HETATM    8  C   UNL     1      32.085  51.042  42.951  1.00  0.00     0.249 C 
HETATM    9  O   UNL     1      32.165  50.875  44.164  1.00  0.00    -0.271 OA
HETATM   10  C   UNL     1      30.501  51.039  39.601  1.00  0.00     0.035 C 
HETATM   11  C   UNL     1      29.560  52.166  39.184  1.00  0.00     0.002 C 
HETATM   12  C   UNL     1      29.399  53.187  40.308  1.00  0.00     0.002 C 
HETATM   13  C   UNL     1      30.747  53.773  40.727  1.00  0.00     0.027 C 
HETATM   14  H   UNL     1      31.273  52.845  43.189  1.00  0.00     0.163 HD
ENDROOT
BRANCH   1  15
HETATM   15  C   UNL     1      31.483  48.814  42.039  1.00  0.00     0.146 C 
BRANCH  15  16
HETATM   16  C   UNL     1      31.730  47.711  41.050  1.00  0.00     0.224 C 
HETATM   17  N   UNL     1      30.754  47.219  40.244  1.00  0.00    -0.327 N 
HETATM   18  H   UNL     1      31.105  46.457  39.671  1.00  0.00     0.169 HD
HETATM   19  O   UNL     1      32.878  47.260  40.935  1.00  0.00    -0.273 OA
BRANCH  17  20
HETATM   20  C   UNL     1      29.401  47.546  40.020  1.00  0.00     0.034 A 
HETATM   21  C   UNL     1      28.384  47.556  40.977  1.00  0.00     0.031 A 
HETATM   22  C   UNL     1      27.076  47.924  40.628  1.00  0.00     0.026 A 
HETATM   23  C   UNL     1      26.773  48.284  39.319  1.00  0.00     0.034 A 
HETATM   24  C   UNL     1      27.768  48.278  38.353  1.00  0.00     0.026 A 
HETATM   25 CL   UNL     1      25.169  48.737  38.904  1.00  0.00    -0.084 Cl
HETATM   26  C   UNL     1      29.073  47.913  38.703  1.00  0.00     0.031 A 
ENDBRANCH  17  20
ENDBRANCH  15  16
ENDBRANCH   1  15
TORSDOF 3
ENDMDL
