MODEL 1
REMARK VINA RESULT:      -8.8      0.000      0.000
REMARK  6 active torsions:
REMARK  status: ('A' for Active; 'I' for Inactive)
REMARK    1  A    between atoms: C_2  and  C_3 
REMARK    2  A    between atoms: C_7  and  C_8 
REMARK       I    between atoms: C_8  and  N_9 
REMARK    3  A    between atoms: N_9  and  C_10 
REMARK    4  A    between atoms: C_10  and  C_11 
REMARK    5  A    between atoms: C_11  and  N_12 
REMARK    6  A    between atoms: C_15  and  C_16 
ROOT
HETATM    1  C   UNL     1      26.499  44.914  49.834  1.00  0.00     0.150 C 
ENDROOT
BRANCH   1   2
HETATM    2  N   UNL     1      25.580  46.016  49.673  1.00  0.00    -0.354 N 
HETATM    3  C   UNL     1      25.997  47.314  49.449  1.00  0.00     0.272 C 
HETATM    4  O   UNL     1      27.183  47.601  49.311  1.00  0.00    -0.266 OA
HETATM    5  H   UNL     1      24.580  45.927  49.862  1.00  0.00     0.162 HD
BRANCH   3   6
HETATM    6  C   UNL     1      24.888  48.275  49.352  1.00  0.00     0.152 A 
HETATM    7  N   UNL     1      23.710  48.025  49.960  1.00  0.00    -0.169 NA
HETATM    8  N   UNL     1      22.954  49.093  49.657  1.00  0.00    -0.281 N 
HETATM    9  C   UNL     1      23.582  50.006  48.858  1.00  0.00     0.036 A 
HETATM   10  H   UNL     1      22.007  49.135  50.022  1.00  0.00     0.189 HD
HETATM   11  C   UNL     1      24.854  49.511  48.638  1.00  0.00    -0.002 A 
HETATM   12  C   UNL     1      25.945  50.115  47.832  1.00  0.00     0.053 C 
BRANCH   9  13
HETATM   13  C   UNL     1      22.898  51.246  48.391  1.00  0.00     0.055 C 
HETATM   14  C   UNL     1      21.393  51.162  48.592  1.00  0.00     0.011 C 
ENDBRANCH   9  13
ENDBRANCH   3   6
ENDBRANCH   1   2
BRANCH   1  15
HETATM   15  C   UNL     1      26.987  44.749  51.286  1.00  0.00     0.254 C 
BRANCH  15  16
HETATM   16  N   UNL     1      25.921  45.138  52.295  1.00  0.00    -0.069 N 
HETATM   17  H   UNL     1      25.226  45.716  51.804  1.00  0.00     0.280 HD
HETATM   18  C   UNL     1      26.500  45.990  53.423  1.00  0.00     0.244 C 
HETATM   19  C   UNL     1      26.636  45.039  54.621  1.00  0.00     0.046 C 
HETATM   20  C   UNL     1      25.343  44.233  54.455  1.00  0.00     0.039 C 
HETATM   21  C   UNL     1      25.232  43.966  52.961  1.00  0.00     0.235 C 
BRANCH  19  22
HETATM   22  C   UNL     1      27.962  44.281  54.624  1.00  0.00    -0.046 A 
HETATM   23  C   UNL     1      29.128  44.845  55.201  1.00  0.00    -0.055 A 
HETATM   24  C   UNL     1      29.159  46.178  55.908  1.00  0.00     0.049 C 
HETATM   25  C   UNL     1      30.355  44.159  55.111  1.00  0.00     0.007 A 
HETATM   26  C   UNL     1      30.437  42.904  54.517  1.00  0.00     0.001 A 
HETATM   27  C   UNL     1      29.290  42.312  54.013  1.00  0.00     0.001 A 
HETATM   28  C   UNL     1      28.069  42.987  54.073  1.00  0.00     0.008 A 
ENDBRANCH  19  22
ENDBRANCH  15  16
ENDBRANCH   1  15
TORSDOF 6
ENDMDL
MODEL 2
REMARK VINA RESULT:      -8.4      1.165      2.476
REMARK  6 active torsions:
REMARK  status: ('A' for Active; 'I' for Inactive)
REMARK    1  A    between atoms: C_2  and  C_3 
REMARK    2  A    between atoms: C_7  and  C_8 
REMARK       I    between atoms: C_8  and  N_9 
REMARK    3  A    between atoms: N_9  and  C_10 
REMARK    4  A    between atoms: C_10  and  C_11 
REMARK    5  A    between atoms: C_11  and  N_12 
REMARK    6  A    between atoms: C_15  and  C_16 
ROOT
HETATM    1  C   UNL     1      27.177  44.670  50.970  1.00  0.00     0.150 C 
ENDROOT
BRANCH   1   2
HETATM    2  N   UNL     1      26.168  45.649  50.641  1.00  0.00    -0.354 N 
HETATM    3  C   UNL     1      26.390  46.687  49.756  1.00  0.00     0.272 C 
HETATM    4  O   UNL     1      27.449  46.805  49.145  1.00  0.00    -0.266 OA
HETATM    5  H   UNL     1      25.285  45.719  51.151  1.00  0.00     0.162 HD
BRANCH   3   6
HETATM    6  C   UNL     1      25.232  47.580  49.601  1.00  0.00     0.152 A 
HETATM    7  N   UNL     1      24.004  47.184  49.996  1.00  0.00    -0.169 NA
HETATM    8  N   UNL     1      23.214  48.230  49.703  1.00  0.00    -0.281 N 
HETATM    9  C   UNL     1      23.873  49.270  49.112  1.00  0.00     0.036 A 
HETATM   10  H   UNL     1      22.225  48.167  49.925  1.00  0.00     0.189 HD
HETATM   11  C   UNL     1      25.199  48.888  49.030  1.00  0.00    -0.002 A 
HETATM   12  C   UNL     1      26.340  49.653  48.467  1.00  0.00     0.053 C 
BRANCH   9  13
HETATM   13  C   UNL     1      23.164  50.511  48.687  1.00  0.00     0.055 C 
HETATM   14  C   UNL     1      21.921  50.758  49.527  1.00  0.00     0.011 C 
ENDBRANCH   9  13
ENDBRANCH   3   6
ENDBRANCH   1   2
BRANCH   1  15
HETATM   15  C   UNL     1      26.718  43.682  52.059  1.00  0.00     0.254 C 
BRANCH  15  16
HETATM   16  N   UNL     1      27.724  42.566  52.281  1.00  0.00    -0.069 N 
HETATM   17  H   UNL     1      27.419  41.760  51.720  1.00  0.00     0.280 HD
HETATM   18  C   UNL     1      27.750  42.115  53.740  1.00  0.00     0.244 C 
HETATM   19  C   UNL     1      29.014  42.750  54.338  1.00  0.00     0.046 C 
HETATM   20  C   UNL     1      29.972  42.575  53.155  1.00  0.00     0.039 C 
HETATM   21  C   UNL     1      29.150  42.928  51.924  1.00  0.00     0.235 C 
BRANCH  19  22
HETATM   22  C   UNL     1      28.771  44.163  54.864  1.00  0.00    -0.046 A 
HETATM   23  C   UNL     1      29.744  44.828  55.655  1.00  0.00    -0.055 A 
HETATM   24  C   UNL     1      31.099  44.252  55.987  1.00  0.00     0.049 C 
HETATM   25  C   UNL     1      29.456  46.095  56.198  1.00  0.00     0.007 A 
HETATM   26  C   UNL     1      28.254  46.740  55.926  1.00  0.00     0.001 A 
HETATM   27  C   UNL     1      27.326  46.131  55.096  1.00  0.00     0.001 A 
HETATM   28  C   UNL     1      27.584  44.864  54.567  1.00  0.00     0.008 A 
ENDBRANCH  19  22
ENDBRANCH  15  16
ENDBRANCH   1  15
TORSDOF 6
ENDMDL
MODEL 3
REMARK VINA RESULT:      -8.2     11.724     14.433
REMARK  6 active torsions:
REMARK  status: ('A' for Active; 'I' for Inactive)
REMARK    1  A    between atoms: C_2  and  C_3 
REMARK    2  A    between atoms: C_7  and  C_8 
REMARK       I    between atoms: C_8  and  N_9 
REMARK    3  A    between atoms: N_9  and  C_10 
REMARK    4  A    between atoms: C_10  and  C_11 
REMARK    5  A    between atoms: C_11  and  N_12 
REMARK    6  A    between atoms: C_15  and  C_16 
ROOT
HETATM    1  C   UNL     1      29.242  48.472  40.842  1.00  0.00     0.150 C 
ENDROOT
BRANCH   1   2
HETATM    2  N   UNL     1      30.643  48.821  40.873  1.00  0.00    -0.354 N 
HETATM    3  C   UNL     1      31.334  49.044  42.048  1.00  0.00     0.272 C 
HETATM    4  O   UNL     1      30.809  48.900  43.149  1.00  0.00    -0.266 OA
HETATM    5  H   UNL     1      31.165  49.065  40.030  1.00  0.00     0.162 HD
BRANCH   3   6
HETATM    6  C   UNL     1      32.740  49.419  41.836  1.00  0.00     0.152 A 
HETATM    7  N   UNL     1      33.516  48.714  40.987  1.00  0.00    -0.169 NA
HETATM    8  N   UNL     1      34.709  49.327  41.051  1.00  0.00    -0.281 N 
HETATM    9  C   UNL     1      34.744  50.377  41.924  1.00  0.00     0.036 A 
HETATM   10  H   UNL     1      35.468  48.972  40.475  1.00  0.00     0.189 HD
HETATM   11  C   UNL     1      33.473  50.475  42.457  1.00  0.00    -0.002 A 
HETATM   12  C   UNL     1      32.973  51.449  43.460  1.00  0.00     0.053 C 
BRANCH   9  13
HETATM   13  C   UNL     1      35.988  51.167  42.155  1.00  0.00     0.055 C 
HETATM   14  C   UNL     1      36.784  51.342  40.871  1.00  0.00     0.011 C 
ENDBRANCH   9  13
ENDBRANCH   3   6
ENDBRANCH   1   2
BRANCH   1  15
HETATM   15  C   UNL     1      28.522  49.005  39.588  1.00  0.00     0.254 C 
BRANCH  15  16
HETATM   16  N   UNL     1      27.631  50.195  39.902  1.00  0.00    -0.069 N 
HETATM   17  H   UNL     1      26.657  49.866  39.879  1.00  0.00     0.280 HD
HETATM   18  C   UNL     1      27.762  51.288  38.844  1.00  0.00     0.244 C 
HETATM   19  C   UNL     1      28.647  52.368  39.483  1.00  0.00     0.046 C 
HETATM   20  C   UNL     1      28.099  52.334  40.913  1.00  0.00     0.039 C 
HETATM   21  C   UNL     1      27.917  50.857  41.233  1.00  0.00     0.235 C 
BRANCH  19  22
HETATM   22  C   UNL     1      30.138  52.104  39.277  1.00  0.00    -0.046 A 
HETATM   23  C   UNL     1      31.111  52.716  40.108  1.00  0.00    -0.055 A 
HETATM   24  C   UNL     1      30.781  53.605  41.282  1.00  0.00     0.049 C 
HETATM   25  C   UNL     1      32.480  52.523  39.839  1.00  0.00     0.007 A 
HETATM   26  C   UNL     1      32.902  51.692  38.806  1.00  0.00     0.001 A 
HETATM   27  C   UNL     1      31.960  51.033  38.033  1.00  0.00     0.001 A 
HETATM   28  C   UNL     1      30.597  51.230  38.270  1.00  0.00     0.008 A 
ENDBRANCH  19  22
ENDBRANCH  15  16
ENDBRANCH   1  15
TORSDOF 6
ENDMDL
MODEL 4
REMARK VINA RESULT:      -8.2     11.326     14.229
REMARK  6 active torsions:
REMARK  status: ('A' for Active; 'I' for Inactive)
REMARK    1  A    between atoms: C_2  and  C_3 
REMARK    2  A    between atoms: C_7  and  C_8 
REMARK       I    between atoms: C_8  and  N_9 
REMARK    3  A    between atoms: N_9  and  C_10 
REMARK    4  A    between atoms: C_10  and  C_11 
REMARK    5  A    between atoms: C_11  and  N_12 
REMARK    6  A    between atoms: C_15  and  C_16 
ROOT
HETATM    1  C   UNL     1      29.388  48.834  42.046  1.00  0.00     0.150 C 
ENDROOT
BRANCH   1   2
HETATM    2  N   UNL     1      30.513  49.675  42.378  1.00  0.00    -0.354 N 
HETATM    3  C   UNL     1      31.824  49.248  42.280  1.00  0.00     0.272 C 
HETATM    4  O   UNL     1      32.115  48.138  41.843  1.00  0.00    -0.266 OA
HETATM    5  H   UNL     1      30.404  50.579  42.842  1.00  0.00     0.162 HD
BRANCH   3   6
HETATM    6  C   UNL     1      32.801  50.262  42.703  1.00  0.00     0.152 A 
HETATM    7  N   UNL     1      32.495  51.144  43.677  1.00  0.00    -0.169 NA
HETATM    8  N   UNL     1      33.599  51.901  43.790  1.00  0.00    -0.281 N 
HETATM    9  C   UNL     1      34.591  51.565  42.913  1.00  0.00     0.036 A 
HETATM   10  H   UNL     1      33.608  52.643  44.484  1.00  0.00     0.189 HD
HETATM   11  C   UNL     1      34.111  50.492  42.185  1.00  0.00    -0.002 A 
HETATM   12  C   UNL     1      34.793  49.745  41.097  1.00  0.00     0.053 C 
BRANCH   9  13
HETATM   13  C   UNL     1      35.884  52.307  42.865  1.00  0.00     0.055 C 
HETATM   14  C   UNL     1      36.254  52.870  44.228  1.00  0.00     0.011 C 
ENDBRANCH   9  13
ENDBRANCH   3   6
ENDBRANCH   1   2
BRANCH   1  15
HETATM   15  C   UNL     1      28.140  49.639  41.638  1.00  0.00     0.254 C 
BRANCH  15  16
HETATM   16  N   UNL     1      27.692  49.324  40.221  1.00  0.00    -0.069 N 
HETATM   17  H   UNL     1      27.236  48.402  40.239  1.00  0.00     0.280 HD
HETATM   18  C   UNL     1      28.880  49.221  39.267  1.00  0.00     0.244 C 
HETATM   19  C   UNL     1      28.885  50.540  38.481  1.00  0.00     0.046 C 
HETATM   20  C   UNL     1      27.376  50.726  38.284  1.00  0.00     0.039 C 
HETATM   21  C   UNL     1      26.752  50.348  39.620  1.00  0.00     0.235 C 
BRANCH  19  22
HETATM   22  C   UNL     1      29.658  51.648  39.194  1.00  0.00    -0.046 A 
HETATM   23  C   UNL     1      31.069  51.584  39.333  1.00  0.00    -0.055 A 
HETATM   24  C   UNL     1      31.925  50.487  38.750  1.00  0.00     0.049 C 
HETATM   25  C   UNL     1      31.744  52.576  40.070  1.00  0.00     0.007 A 
HETATM   26  C   UNL     1      31.061  53.657  40.619  1.00  0.00     0.001 A 
HETATM   27  C   UNL     1      29.693  53.767  40.428  1.00  0.00     0.001 A 
HETATM   28  C   UNL     1      29.003  52.780  39.719  1.00  0.00     0.008 A 
ENDBRANCH  19  22
ENDBRANCH  15  16
ENDBRANCH   1  15
TORSDOF 6
ENDMDL
MODEL 5
REMARK VINA RESULT:      -8.1      1.574      2.747
REMARK  6 active torsions:
REMARK  status: ('A' for Active; 'I' for Inactive)
REMARK    1  A    between atoms: C_2  and  C_3 
REMARK    2  A    between atoms: C_7  and  C_8 
REMARK       I    between atoms: C_8  and  N_9 
REMARK    3  A    between atoms: N_9  and  C_10 
REMARK    4  A    between atoms: C_10  and  C_11 
REMARK    5  A    between atoms: C_11  and  N_12 
REMARK    6  A    between atoms: C_15  and  C_16 
ROOT
HETATM    1  C   UNL     1      26.242  46.977  49.991  1.00  0.00     0.150 C 
ENDROOT
BRANCH   1   2
HETATM    2  N   UNL     1      25.317  48.060  49.749  1.00  0.00    -0.354 N 
HETATM    3  C   UNL     1      24.000  47.854  49.387  1.00  0.00     0.272 C 
HETATM    4  O   UNL     1      23.516  46.728  49.307  1.00  0.00    -0.266 OA
HETATM    5  H   UNL     1      25.618  49.034  49.688  1.00  0.00     0.162 HD
BRANCH   3   6
HETATM    6  C   UNL     1      23.255  49.101  49.160  1.00  0.00     0.152 A 
HETATM    7  N   UNL     1      23.888  50.293  49.195  1.00  0.00    -0.169 NA
HETATM    8  N   UNL     1      22.914  51.186  48.955  1.00  0.00    -0.281 N 
HETATM    9  C   UNL     1      21.678  50.625  48.794  1.00  0.00     0.036 A 
HETATM   10  H   UNL     1      23.158  52.171  48.922  1.00  0.00     0.189 HD
HETATM   11  C   UNL     1      21.858  49.260  48.916  1.00  0.00    -0.002 A 
HETATM   12  C   UNL     1      20.832  48.190  48.827  1.00  0.00     0.053 C 
BRANCH   9  13
HETATM   13  C   UNL     1      20.464  51.455  48.546  1.00  0.00     0.055 C 
HETATM   14  C   UNL     1      19.577  51.527  49.779  1.00  0.00     0.011 C 
ENDBRANCH   9  13
ENDBRANCH   3   6
ENDBRANCH   1   2
BRANCH   1  15
HETATM   15  C   UNL     1      26.136  46.409  51.419  1.00  0.00     0.254 C 
BRANCH  15  16
HETATM   16  N   UNL     1      25.772  44.935  51.424  1.00  0.00    -0.069 N 
HETATM   17  H   UNL     1      24.992  44.808  50.765  1.00  0.00     0.280 HD
HETATM   18  C   UNL     1      25.279  44.482  52.797  1.00  0.00     0.244 C 
HETATM   19  C   UNL     1      26.458  43.721  53.420  1.00  0.00     0.046 C 
HETATM   20  C   UNL     1      26.970  42.982  52.179  1.00  0.00     0.039 C 
HETATM   21  C   UNL     1      26.910  44.008  51.055  1.00  0.00     0.235 C 
BRANCH  19  22
HETATM   22  C   UNL     1      27.428  44.640  54.161  1.00  0.00    -0.046 A 
HETATM   23  C   UNL     1      28.686  44.166  54.612  1.00  0.00    -0.055 A 
HETATM   24  C   UNL     1      29.206  42.773  54.354  1.00  0.00     0.049 C 
HETATM   25  C   UNL     1      29.521  45.012  55.369  1.00  0.00     0.007 A 
HETATM   26  C   UNL     1      29.163  46.329  55.634  1.00  0.00     0.001 A 
HETATM   27  C   UNL     1      27.967  46.824  55.137  1.00  0.00     0.001 A 
HETATM   28  C   UNL     1      27.115  45.993  54.404  1.00  0.00     0.008 A 
ENDBRANCH  19  22
ENDBRANCH  15  16
ENDBRANCH   1  15
TORSDOF 6
ENDMDL
MODEL 6
REMARK VINA RESULT:      -7.8     12.109     14.411
REMARK  6 active torsions:
REMARK  status: ('A' for Active; 'I' for Inactive)
REMARK    1  A    between atoms: C_2  and  C_3 
REMARK    2  A    between atoms: C_7  and  C_8 
REMARK       I    between atoms: C_8  and  N_9 
REMARK    3  A    between atoms: N_9  and  C_10 
REMARK    4  A    between atoms: C_10  and  C_11 
REMARK    5  A    between atoms: C_11  and  N_12 
REMARK    6  A    between atoms: C_15  and  C_16 
ROOT
HETATM    1  C   UNL     1      31.134  48.367  40.063  1.00  0.00     0.150 C 
ENDROOT
BRANCH   1   2
HETATM    2  N   UNL     1      32.299  49.090  40.515  1.00  0.00    -0.354 N 
HETATM    3  C   UNL     1      32.529  49.387  41.845  1.00  0.00     0.272 C 
HETATM    4  O   UNL     1      31.779  48.998  42.736  1.00  0.00    -0.266 OA
HETATM    5  H   UNL     1      32.944  49.549  39.869  1.00  0.00     0.162 HD
BRANCH   3   6
HETATM    6  C   UNL     1      33.761  50.159  42.066  1.00  0.00     0.152 A 
HETATM    7  N   UNL     1      34.869  49.903  41.341  1.00  0.00    -0.169 NA
HETATM    8  N   UNL     1      35.774  50.778  41.810  1.00  0.00    -0.281 N 
HETATM    9  C   UNL     1      35.307  51.566  42.823  1.00  0.00     0.036 A 
HETATM   10  H   UNL     1      36.703  50.781  41.399  1.00  0.00     0.189 HD
HETATM   11  C   UNL     1      33.990  51.196  43.020  1.00  0.00    -0.002 A 
HETATM   12  C   UNL     1      33.023  51.741  44.007  1.00  0.00     0.053 C 
BRANCH   9  13
HETATM   13  C   UNL     1      36.170  52.580  43.493  1.00  0.00     0.055 C 
HETATM   14  C   UNL     1      37.643  52.343  43.196  1.00  0.00     0.011 C 
ENDBRANCH   9  13
ENDBRANCH   3   6
ENDBRANCH   1   2
BRANCH   1  15
HETATM   15  C   UNL     1      30.465  49.019  38.838  1.00  0.00     0.254 C 
BRANCH  15  16
HETATM   16  N   UNL     1      28.963  48.797  38.819  1.00  0.00    -0.069 N 
HETATM   17  H   UNL     1      28.772  48.029  38.160  1.00  0.00     0.280 HD
HETATM   18  C   UNL     1      28.219  50.027  38.305  1.00  0.00     0.244 C 
HETATM   19  C   UNL     1      27.640  50.703  39.556  1.00  0.00     0.046 C 
HETATM   20  C   UNL     1      27.218  49.460  40.347  1.00  0.00     0.039 C 
HETATM   21  C   UNL     1      28.362  48.471  40.170  1.00  0.00     0.235 C 
BRANCH  19  22
HETATM   22  C   UNL     1      28.624  51.672  40.211  1.00  0.00    -0.046 A 
HETATM   23  C   UNL     1      29.127  52.794  39.504  1.00  0.00    -0.055 A 
HETATM   24  C   UNL     1      28.703  53.170  38.105  1.00  0.00     0.049 C 
HETATM   25  C   UNL     1      30.099  53.619  40.103  1.00  0.00     0.007 A 
HETATM   26  C   UNL     1      30.535  53.392  41.404  1.00  0.00     0.001 A 
HETATM   27  C   UNL     1      29.997  52.340  42.130  1.00  0.00     0.001 A 
HETATM   28  C   UNL     1      29.050  51.497  41.544  1.00  0.00     0.008 A 
ENDBRANCH  19  22
ENDBRANCH  15  16
ENDBRANCH   1  15
TORSDOF 6
ENDMDL
MODEL 7
REMARK VINA RESULT:      -7.8      3.748      6.737
REMARK  6 active torsions:
REMARK  status: ('A' for Active; 'I' for Inactive)
REMARK    1  A    between atoms: C_2  and  C_3 
REMARK    2  A    between atoms: C_7  and  C_8 
REMARK       I    between atoms: C_8  and  N_9 
REMARK    3  A    between atoms: N_9  and  C_10 
REMARK    4  A    between atoms: C_10  and  C_11 
REMARK    5  A    between atoms: C_11  and  N_12 
REMARK    6  A    between atoms: C_15  and  C_16 
ROOT
HETATM    1  C   UNL     1      26.396  44.484  49.898  1.00  0.00     0.150 C 
ENDROOT
BRANCH   1   2
HETATM    2  N   UNL     1      26.754  43.122  49.579  1.00  0.00    -0.354 N 
HETATM    3  C   UNL     1      25.901  42.055  49.784  1.00  0.00     0.272 C 
HETATM    4  O   UNL     1      24.755  42.208  50.198  1.00  0.00    -0.266 OA
HETATM    5  H   UNL     1      27.705  42.851  49.323  1.00  0.00     0.162 HD
BRANCH   3   6
HETATM    6  C   UNL     1      26.491  40.758  49.418  1.00  0.00     0.152 A 
HETATM    7  N   UNL     1      26.000  40.051  48.379  1.00  0.00    -0.169 NA
HETATM    8  N   UNL     1      26.764  38.947  48.346  1.00  0.00    -0.281 N 
HETATM    9  C   UNL     1      27.705  38.898  49.335  1.00  0.00     0.036 A 
HETATM   10  H   UNL     1      26.584  38.255  47.624  1.00  0.00     0.189 HD
HETATM   11  C   UNL     1      27.564  40.068  50.057  1.00  0.00    -0.002 A 
HETATM   12  C   UNL     1      28.342  40.512  51.242  1.00  0.00     0.053 C 
BRANCH   9  13
HETATM   13  C   UNL     1      28.632  37.738  49.482  1.00  0.00     0.055 C 
HETATM   14  C   UNL     1      30.069  38.132  49.181  1.00  0.00     0.011 C 
ENDBRANCH   9  13
ENDBRANCH   3   6
ENDBRANCH   1   2
BRANCH   1  15
HETATM   15  C   UNL     1      26.964  44.950  51.252  1.00  0.00     0.254 C 
BRANCH  15  16
HETATM   16  N   UNL     1      25.871  45.377  52.216  1.00  0.00    -0.069 N 
HETATM   17  H   UNL     1      25.221  45.982  51.697  1.00  0.00     0.280 HD
HETATM   18  C   UNL     1      26.432  46.205  53.370  1.00  0.00     0.244 C 
HETATM   19  C   UNL     1      26.479  45.248  54.570  1.00  0.00     0.046 C 
HETATM   20  C   UNL     1      25.165  44.492  54.346  1.00  0.00     0.039 C 
HETATM   21  C   UNL     1      25.109  44.231  52.847  1.00  0.00     0.235 C 
BRANCH  19  22
HETATM   22  C   UNL     1      27.774  44.440  54.629  1.00  0.00    -0.046 A 
HETATM   23  C   UNL     1      28.951  44.982  55.205  1.00  0.00    -0.055 A 
HETATM   24  C   UNL     1      29.022  46.341  55.858  1.00  0.00     0.049 C 
HETATM   25  C   UNL     1      30.151  44.246  55.165  1.00  0.00     0.007 A 
HETATM   26  C   UNL     1      30.195  42.966  54.624  1.00  0.00     0.001 A 
HETATM   27  C   UNL     1      29.034  42.398  54.123  1.00  0.00     0.001 A 
HETATM   28  C   UNL     1      27.839  43.121  54.132  1.00  0.00     0.008 A 
ENDBRANCH  19  22
ENDBRANCH  15  16
ENDBRANCH   1  15
TORSDOF 6
ENDMDL
MODEL 8
REMARK VINA RESULT:      -7.8     11.269     13.760
REMARK  6 active torsions:
REMARK  status: ('A' for Active; 'I' for Inactive)
REMARK    1  A    between atoms: C_2  and  C_3 
REMARK    2  A    between atoms: C_7  and  C_8 
REMARK       I    between atoms: C_8  and  N_9 
REMARK    3  A    between atoms: N_9  and  C_10 
REMARK    4  A    between atoms: C_10  and  C_11 
REMARK    5  A    between atoms: C_11  and  N_12 
REMARK    6  A    between atoms: C_15  and  C_16 
ROOT
HETATM    1  C   UNL     1      28.659  52.072  40.264  1.00  0.00     0.150 C 
ENDROOT
BRANCH   1   2
HETATM    2  N   UNL     1      30.033  51.747  40.569  1.00  0.00    -0.354 N 
HETATM    3  C   UNL     1      30.995  52.708  40.812  1.00  0.00     0.272 C 
HETATM    4  O   UNL     1      30.724  53.906  40.842  1.00  0.00    -0.266 OA
HETATM    5  H   UNL     1      30.405  50.800  40.479  1.00  0.00     0.162 HD
BRANCH   3   6
HETATM    6  C   UNL     1      32.330  52.147  41.066  1.00  0.00     0.152 A 
HETATM    7  N   UNL     1      32.864  52.186  42.305  1.00  0.00    -0.169 NA
HETATM    8  N   UNL     1      34.064  51.601  42.160  1.00  0.00    -0.281 N 
HETATM    9  C   UNL     1      34.338  51.212  40.880  1.00  0.00     0.036 A 
HETATM   10  H   UNL     1      34.657  51.504  42.979  1.00  0.00     0.189 HD
HETATM   11  C   UNL     1      33.225  51.547  40.131  1.00  0.00    -0.002 A 
HETATM   12  C   UNL     1      33.005  51.344  38.676  1.00  0.00     0.053 C 
BRANCH   9  13
HETATM   13  C   UNL     1      35.632  50.567  40.513  1.00  0.00     0.055 C 
HETATM   14  C   UNL     1      36.685  51.601  40.146  1.00  0.00     0.011 C 
ENDBRANCH   9  13
ENDBRANCH   3   6
ENDBRANCH   1   2
BRANCH   1  15
HETATM   15  C   UNL     1      27.653  51.271  41.112  1.00  0.00     0.254 C 
BRANCH  15  16
HETATM   16  N   UNL     1      26.930  50.213  40.296  1.00  0.00    -0.069 N 
HETATM   17  H   UNL     1      25.949  50.508  40.209  1.00  0.00     0.280 HD
HETATM   18  C   UNL     1      26.933  48.860  41.003  1.00  0.00     0.244 C 
HETATM   19  C   UNL     1      28.003  48.027  40.281  1.00  0.00     0.046 C 
HETATM   20  C   UNL     1      27.741  48.471  38.838  1.00  0.00     0.039 C 
HETATM   21  C   UNL     1      27.516  49.975  38.921  1.00  0.00     0.235 C 
BRANCH  19  22
HETATM   22  C   UNL     1      29.402  48.239  40.857  1.00  0.00    -0.046 A 
HETATM   23  C   UNL     1      30.560  48.024  40.067  1.00  0.00    -0.055 A 
HETATM   24  C   UNL     1      30.526  47.644  38.607  1.00  0.00     0.049 C 
HETATM   25  C   UNL     1      31.836  48.142  40.650  1.00  0.00     0.007 A 
HETATM   26  C   UNL     1      31.989  48.527  41.978  1.00  0.00     0.001 A 
HETATM   27  C   UNL     1      30.866  48.809  42.740  1.00  0.00     0.001 A 
HETATM   28  C   UNL     1      29.591  48.674  42.185  1.00  0.00     0.008 A 
ENDBRANCH  19  22
ENDBRANCH  15  16
ENDBRANCH   1  15
TORSDOF 6
ENDMDL
MODEL 9
REMARK VINA RESULT:      -7.8      2.040      9.324
REMARK  6 active torsions:
REMARK  status: ('A' for Active; 'I' for Inactive)
REMARK    1  A    between atoms: C_2  and  C_3 
REMARK    2  A    between atoms: C_7  and  C_8 
REMARK       I    between atoms: C_8  and  N_9 
REMARK    3  A    between atoms: N_9  and  C_10 
REMARK    4  A    between atoms: C_10  and  C_11 
REMARK    5  A    between atoms: C_11  and  N_12 
REMARK    6  A    between atoms: C_15  and  C_16 
ROOT
HETATM    1  C   UNL     1      23.473  46.850  49.135  1.00  0.00     0.150 C 
ENDROOT
BRANCH   1   2
HETATM    2  N   UNL     1      24.081  46.596  50.420  1.00  0.00    -0.354 N 
HETATM    3  C   UNL     1      25.222  47.244  50.852  1.00  0.00     0.272 C 
HETATM    4  O   UNL     1      25.759  48.127  50.188  1.00  0.00    -0.266 OA
HETATM    5  H   UNL     1      23.790  45.822  51.020  1.00  0.00     0.162 HD
BRANCH   3   6
HETATM    6  C   UNL     1      25.679  46.801  52.177  1.00  0.00     0.152 A 
HETATM    7  N   UNL     1      25.479  47.574  53.265  1.00  0.00    -0.169 NA
HETATM    8  N   UNL     1      26.019  46.867  54.271  1.00  0.00    -0.281 N 
HETATM    9  C   UNL     1      26.583  45.687  53.876  1.00  0.00     0.036 A 
HETATM   10  H   UNL     1      25.978  47.252  55.210  1.00  0.00     0.189 HD
HETATM   11  C   UNL     1      26.378  45.602  52.511  1.00  0.00    -0.002 A 
HETATM   12  C   UNL     1      26.798  44.517  51.588  1.00  0.00     0.053 C 
BRANCH   9  13
HETATM   13  C   UNL     1      27.258  44.774  54.843  1.00  0.00     0.055 C 
HETATM   14  C   UNL     1      28.771  44.910  54.775  1.00  0.00     0.011 C 
ENDBRANCH   9  13
ENDBRANCH   3   6
ENDBRANCH   1   2
BRANCH   1  15
HETATM   15  C   UNL     1      22.447  47.999  49.177  1.00  0.00     0.254 C 
BRANCH  15  16
HETATM   16  N   UNL     1      23.114  49.362  49.231  1.00  0.00    -0.069 N 
HETATM   17  H   UNL     1      23.962  49.268  49.806  1.00  0.00     0.280 HD
HETATM   18  C   UNL     1      22.222  50.398  49.910  1.00  0.00     0.244 C 
HETATM   19  C   UNL     1      21.637  51.241  48.768  1.00  0.00     0.046 C 
HETATM   20  C   UNL     1      22.868  51.331  47.861  1.00  0.00     0.039 C 
HETATM   21  C   UNL     1      23.476  49.936  47.878  1.00  0.00     0.235 C 
BRANCH  19  22
HETATM   22  C   UNL     1      20.358  50.639  48.188  1.00  0.00    -0.046 A 
HETATM   23  C   UNL     1      19.090  50.926  48.756  1.00  0.00    -0.055 A 
HETATM   24  C   UNL     1      18.877  51.876  49.909  1.00  0.00     0.049 C 
HETATM   25  C   UNL     1      17.939  50.288  48.253  1.00  0.00     0.007 A 
HETATM   26  C   UNL     1      18.010  49.423  47.166  1.00  0.00     0.001 A 
HETATM   27  C   UNL     1      19.234  49.192  46.558  1.00  0.00     0.001 A 
HETATM   28  C   UNL     1      20.390  49.797  47.057  1.00  0.00     0.008 A 
ENDBRANCH  19  22
ENDBRANCH  15  16
ENDBRANCH   1  15
TORSDOF 6
ENDMDL
MODEL 10
REMARK VINA RESULT:      -7.6     11.506     13.922
REMARK  6 active torsions:
REMARK  status: ('A' for Active; 'I' for Inactive)
REMARK    1  A    between atoms: C_2  and  C_3 
REMARK    2  A    between atoms: C_7  and  C_8 
REMARK       I    between atoms: C_8  and  N_9 
REMARK    3  A    between atoms: N_9  and  C_10 
REMARK    4  A    between atoms: C_10  and  C_11 
REMARK    5  A    between atoms: C_11  and  N_12 
REMARK    6  A    between atoms: C_15  and  C_16 
ROOT
HETATM    1  C   UNL     1      28.553  52.356  39.559  1.00  0.00     0.150 C 
ENDROOT
BRANCH   1   2
HETATM    2  N   UNL     1      29.947  52.163  39.884  1.00  0.00    -0.354 N 
HETATM    3  C   UNL     1      30.438  52.259  41.171  1.00  0.00     0.272 C 
HETATM    4  O   UNL     1      29.702  52.458  42.135  1.00  0.00    -0.266 OA
HETATM    5  H   UNL     1      30.671  52.090  39.167  1.00  0.00     0.162 HD
BRANCH   3   6
HETATM    6  C   UNL     1      31.892  52.058  41.259  1.00  0.00     0.152 A 
HETATM    7  N   UNL     1      32.715  52.602  40.338  1.00  0.00    -0.169 NA
HETATM    8  N   UNL     1      33.941  52.213  40.726  1.00  0.00    -0.281 N 
HETATM    9  C   UNL     1      33.942  51.421  41.839  1.00  0.00     0.036 A 
HETATM   10  H   UNL     1      34.741  52.517  40.179  1.00  0.00     0.189 HD
HETATM   11  C   UNL     1      32.620  51.298  42.223  1.00  0.00    -0.002 A 
HETATM   12  C   UNL     1      32.067  50.539  43.374  1.00  0.00     0.053 C 
BRANCH   9  13
HETATM   13  C   UNL     1      35.203  50.866  42.409  1.00  0.00     0.055 C 
HETATM   14  C   UNL     1      36.068  51.959  43.017  1.00  0.00     0.011 C 
ENDBRANCH   9  13
ENDBRANCH   3   6
ENDBRANCH   1   2
BRANCH   1  15
HETATM   15  C   UNL     1      28.096  51.505  38.360  1.00  0.00     0.254 C 
BRANCH  15  16
HETATM   16  N   UNL     1      26.782  50.793  38.630  1.00  0.00    -0.069 N 
HETATM   17  H   UNL     1      26.034  51.498  38.589  1.00  0.00     0.280 HD
HETATM   18  C   UNL     1      26.751  50.184  40.030  1.00  0.00     0.244 C 
HETATM   19  C   UNL     1      26.993  48.682  39.825  1.00  0.00     0.046 C 
HETATM   20  C   UNL     1      26.168  48.461  38.553  1.00  0.00     0.039 C 
HETATM   21  C   UNL     1      26.473  49.664  37.670  1.00  0.00     0.235 C 
BRANCH  19  22
HETATM   22  C   UNL     1      28.478  48.323  39.791  1.00  0.00    -0.046 A 
HETATM   23  C   UNL     1      29.307  48.529  40.923  1.00  0.00    -0.055 A 
HETATM   24  C   UNL     1      28.809  49.040  42.253  1.00  0.00     0.049 C 
HETATM   25  C   UNL     1      30.689  48.271  40.833  1.00  0.00     0.007 A 
HETATM   26  C   UNL     1      31.253  47.759  39.669  1.00  0.00     0.001 A 
HETATM   27  C   UNL     1      30.440  47.487  38.580  1.00  0.00     0.001 A 
HETATM   28  C   UNL     1      29.070  47.758  38.643  1.00  0.00     0.008 A 
ENDBRANCH  19  22
ENDBRANCH  15  16
ENDBRANCH   1  15
TORSDOF 6
ENDMDL
