MODEL 1
REMARK VINA RESULT:      -9.5      0.000      0.000
REMARK  8 active torsions:
REMARK  status: ('A' for Active; 'I' for Inactive)
REMARK    1  A    between atoms: C_2  and  O_3 
REMARK    2  A    between atoms: O_3  and  C_4 
REMARK    3  A    between atoms: C_5  and  C_6 
REMARK    4  A    between atoms: C_6  and  N_7 
REMARK    5  A    between atoms: C_9  and  C_10 
REMARK    6  A    between atoms: C_10  and  C_11 
REMARK       I    between atoms: C_11  and  N_12 
REMARK    7  A    between atoms: N_12  and  C_13 
REMARK    8  A    between atoms: C_13  and  C_14 
ROOT
HETATM    1  N   UNL     1      24.896  46.298  50.760  1.00  0.00    -0.052 N 
HETATM    2  H   UNL     1      24.207  46.847  51.292  1.00  0.00     0.281 HD
HETATM    3  C   UNL     1      24.735  44.935  51.466  1.00  0.00     0.288 C 
HETATM    4  C   UNL     1      24.988  45.055  52.984  1.00  0.00     0.249 C 
HETATM    5  O   UNL     1      24.679  44.166  53.771  1.00  0.00    -0.271 OA
HETATM    6  N   UNL     1      25.502  46.243  53.441  1.00  0.00    -0.358 N 
HETATM    7  C   UNL     1      26.286  47.179  52.641  1.00  0.00     0.150 C 
HETATM    8  C   UNL     1      26.159  47.040  51.112  1.00  0.00     0.256 C 
HETATM    9  H   UNL     1      25.670  46.236  54.444  1.00  0.00     0.162 HD
ENDROOT
BRANCH   3  10
HETATM   10  C   UNL     1      25.461  43.723  50.879  1.00  0.00     0.145 C 
BRANCH  10  11
HETATM   11  C   UNL     1      26.967  43.813  50.917  1.00  0.00     0.220 C 
HETATM   12  N   UNL     1      27.550  43.108  51.937  1.00  0.00    -0.355 N 
HETATM   13  H   UNL     1      26.986  42.720  52.685  1.00  0.00     0.162 HD
HETATM   14  O   UNL     1      27.611  44.445  50.086  1.00  0.00    -0.274 OA
BRANCH  12  15
HETATM   15  C   UNL     1      28.983  42.984  52.073  1.00  0.00     0.179 C 
BRANCH  15  16
HETATM   16  C   UNL     1      29.371  43.431  53.428  1.00  0.00     0.028 A 
HETATM   17  N   UNL     1      28.775  44.509  54.041  1.00  0.00    -0.357 N 
HETATM   18  H   UNL     1      28.022  45.059  53.647  1.00  0.00     0.166 HD
HETATM   19  C   UNL     1      29.363  44.755  55.261  1.00  0.00     0.043 A 
HETATM   20  C   UNL     1      30.369  43.803  55.431  1.00  0.00    -0.005 A 
HETATM   21  C   UNL     1      29.092  45.748  56.211  1.00  0.00     0.033 A 
HETATM   22  C   UNL     1      30.356  42.971  54.279  1.00  0.00     0.040 A 
HETATM   23  C   UNL     1      31.151  43.842  56.599  1.00  0.00     0.056 A 
HETATM   24  C   UNL     1      30.890  44.831  57.546  1.00  0.00     0.117 A 
HETATM   25  C   UNL     1      29.880  45.767  57.365  1.00  0.00     0.044 A 
HETATM   26  F   UNL     1      31.635  44.880  58.658  1.00  0.00    -0.206 F 
ENDBRANCH  15  16
ENDBRANCH  12  15
ENDBRANCH  10  11
ENDBRANCH   3  10
BRANCH   1  27
HETATM   27  C   UNL     1      24.363  46.466  49.357  1.00  0.00     0.277 C 
BRANCH  27  28
HETATM   28  C   UNL     1      23.062  47.180  49.101  1.00  0.00     0.001 A 
HETATM   29  C   UNL     1      23.034  48.588  49.203  1.00  0.00     0.076 A 
HETATM   30  C   UNL     1      21.842  49.297  49.026  1.00  0.00     0.037 A 
HETATM   31  C   UNL     1      20.678  48.624  48.664  1.00  0.00     0.003 A 
HETATM   32  C   UNL     1      20.711  47.250  48.460  1.00  0.00     0.001 A 
HETATM   33  C   UNL     1      21.896  46.536  48.661  1.00  0.00     0.012 A 
BRANCH  29  34
HETATM   34  O   UNL     1      24.225  49.204  49.495  1.00  0.00    -0.351 OA
BRANCH  34  35
HETATM   35  C   UNL     1      24.801  49.960  48.419  1.00  0.00     0.171 C 
HETATM   36  C   UNL     1      26.297  49.702  48.417  1.00  0.00     0.034 C 
ENDBRANCH  34  35
ENDBRANCH  29  34
ENDBRANCH  27  28
ENDBRANCH   1  27
TORSDOF 8
ENDMDL
MODEL 2
REMARK VINA RESULT:      -9.3      3.333      8.760
REMARK  8 active torsions:
REMARK  status: ('A' for Active; 'I' for Inactive)
REMARK    1  A    between atoms: C_2  and  O_3 
REMARK    2  A    between atoms: O_3  and  C_4 
REMARK    3  A    between atoms: C_5  and  C_6 
REMARK    4  A    between atoms: C_6  and  N_7 
REMARK    5  A    between atoms: C_9  and  C_10 
REMARK    6  A    between atoms: C_10  and  C_11 
REMARK       I    between atoms: C_11  and  N_12 
REMARK    7  A    between atoms: N_12  and  C_13 
REMARK    8  A    between atoms: C_13  and  C_14 
ROOT
HETATM    1  N   UNL     1      26.648  44.976  52.678  1.00  0.00    -0.052 N 
HETATM    2  H   UNL     1      27.358  45.699  52.858  1.00  0.00     0.281 HD
HETATM    3  C   UNL     1      26.927  44.710  51.184  1.00  0.00     0.288 C 
HETATM    4  C   UNL     1      26.806  46.003  50.351  1.00  0.00     0.249 C 
HETATM    5  O   UNL     1      27.220  46.081  49.199  1.00  0.00    -0.271 OA
HETATM    6  N   UNL     1      26.286  47.107  50.980  1.00  0.00    -0.358 N 
HETATM    7  C   UNL     1      25.396  47.070  52.136  1.00  0.00     0.150 C 
HETATM    8  C   UNL     1      25.392  45.762  52.950  1.00  0.00     0.256 C 
HETATM    9  H   UNL     1      26.208  47.910  50.360  1.00  0.00     0.162 HD
ENDROOT
BRANCH   3  10
HETATM   10  C   UNL     1      26.203  43.546  50.506  1.00  0.00     0.145 C 
BRANCH  10  11
HETATM   11  C   UNL     1      24.715  43.741  50.341  1.00  0.00     0.220 C 
HETATM   12  N   UNL     1      24.363  44.514  49.267  1.00  0.00    -0.355 N 
HETATM   13  H   UNL     1      25.063  45.039  48.754  1.00  0.00     0.162 HD
HETATM   14  O   UNL     1      23.895  43.228  51.095  1.00  0.00    -0.274 OA
BRANCH  12  15
HETATM   15  C   UNL     1      22.986  44.724  48.882  1.00  0.00     0.179 C 
BRANCH  15  16
HETATM   16  C   UNL     1      22.748  46.177  48.745  1.00  0.00     0.028 A 
HETATM   17  N   UNL     1      23.765  47.098  48.853  1.00  0.00    -0.357 N 
HETATM   18  H   UNL     1      24.740  46.873  49.004  1.00  0.00     0.166 HD
HETATM   19  C   UNL     1      23.268  48.378  48.755  1.00  0.00     0.043 A 
HETATM   20  C   UNL     1      21.888  48.270  48.579  1.00  0.00    -0.005 A 
HETATM   21  C   UNL     1      23.929  49.612  48.822  1.00  0.00     0.033 A 
HETATM   22  C   UNL     1      21.575  46.883  48.563  1.00  0.00     0.040 A 
HETATM   23  C   UNL     1      21.122  49.444  48.472  1.00  0.00     0.056 A 
HETATM   24  C   UNL     1      21.773  50.675  48.543  1.00  0.00     0.117 A 
HETATM   25  C   UNL     1      23.149  50.766  48.712  1.00  0.00     0.044 A 
HETATM   26  F   UNL     1      21.050  51.800  48.449  1.00  0.00    -0.206 F 
ENDBRANCH  15  16
ENDBRANCH  12  15
ENDBRANCH  10  11
ENDBRANCH   3  10
BRANCH   1  27
HETATM   27  C   UNL     1      27.045  43.934  53.698  1.00  0.00     0.277 C 
BRANCH  27  28
HETATM   28  C   UNL     1      28.357  44.029  54.433  1.00  0.00     0.001 A 
HETATM   29  C   UNL     1      28.575  45.136  55.282  1.00  0.00     0.076 A 
HETATM   30  C   UNL     1      29.793  45.300  55.949  1.00  0.00     0.037 A 
HETATM   31  C   UNL     1      30.780  44.324  55.846  1.00  0.00     0.003 A 
HETATM   32  C   UNL     1      30.543  43.179  55.095  1.00  0.00     0.001 A 
HETATM   33  C   UNL     1      29.335  43.025  54.407  1.00  0.00     0.012 A 
BRANCH  29  34
HETATM   34  O   UNL     1      27.541  46.031  55.399  1.00  0.00    -0.351 OA
BRANCH  34  35
HETATM   35  C   UNL     1      27.883  47.397  55.123  1.00  0.00     0.171 C 
HETATM   36  C   UNL     1      26.686  48.259  55.483  1.00  0.00     0.034 C 
ENDBRANCH  34  35
ENDBRANCH  29  34
ENDBRANCH  27  28
ENDBRANCH   1  27
TORSDOF 8
ENDMDL
MODEL 3
REMARK VINA RESULT:      -9.0      4.162      9.610
REMARK  8 active torsions:
REMARK  status: ('A' for Active; 'I' for Inactive)
REMARK    1  A    between atoms: C_2  and  O_3 
REMARK    2  A    between atoms: O_3  and  C_4 
REMARK    3  A    between atoms: C_5  and  C_6 
REMARK    4  A    between atoms: C_6  and  N_7 
REMARK    5  A    between atoms: C_9  and  C_10 
REMARK    6  A    between atoms: C_10  and  C_11 
REMARK       I    between atoms: C_11  and  N_12 
REMARK    7  A    between atoms: N_12  and  C_13 
REMARK    8  A    between atoms: C_13  and  C_14 
ROOT
HETATM    1  N   UNL     1      26.510  44.687  51.938  1.00  0.00    -0.052 N 
HETATM    2  H   UNL     1      27.335  44.832  52.536  1.00  0.00     0.281 HD
HETATM    3  C   UNL     1      25.967  46.132  51.899  1.00  0.00     0.288 C 
HETATM    4  C   UNL     1      25.690  46.666  53.320  1.00  0.00     0.249 C 
HETATM    5  O   UNL     1      25.492  47.856  53.545  1.00  0.00    -0.271 OA
HETATM    6  N   UNL     1      25.757  45.764  54.353  1.00  0.00    -0.358 N 
HETATM    7  C   UNL     1      25.558  44.324  54.220  1.00  0.00     0.150 C 
HETATM    8  C   UNL     1      25.715  43.743  52.802  1.00  0.00     0.256 C 
HETATM    9  H   UNL     1      25.532  46.183  55.253  1.00  0.00     0.162 HD
ENDROOT
BRANCH   3  10
HETATM   10  C   UNL     1      24.805  46.445  50.955  1.00  0.00     0.145 C 
BRANCH  10  11
HETATM   11  C   UNL     1      24.997  47.680  50.109  1.00  0.00     0.220 C 
HETATM   12  N   UNL     1      23.851  48.140  49.515  1.00  0.00    -0.355 N 
HETATM   13  H   UNL     1      23.006  47.581  49.517  1.00  0.00     0.162 HD
HETATM   14  O   UNL     1      26.084  48.234  49.987  1.00  0.00    -0.274 OA
BRANCH  12  15
HETATM   15  C   UNL     1      23.813  49.370  48.757  1.00  0.00     0.179 C 
BRANCH  15  16
HETATM   16  C   UNL     1      22.489  50.001  48.944  1.00  0.00     0.028 A 
HETATM   17  N   UNL     1      21.508  49.427  49.720  1.00  0.00    -0.357 N 
HETATM   18  H   UNL     1      21.608  48.564  50.238  1.00  0.00     0.166 HD
HETATM   19  C   UNL     1      20.355  50.178  49.674  1.00  0.00     0.043 A 
HETATM   20  C   UNL     1      20.610  51.268  48.840  1.00  0.00    -0.005 A 
HETATM   21  C   UNL     1      19.115  49.970  50.290  1.00  0.00     0.033 A 
HETATM   22  C   UNL     1      21.956  51.152  48.397  1.00  0.00     0.040 A 
HETATM   23  C   UNL     1      19.579  52.194  48.598  1.00  0.00     0.056 A 
HETATM   24  C   UNL     1      18.341  51.989  49.204  1.00  0.00     0.117 A 
HETATM   25  C   UNL     1      18.106  50.903  50.038  1.00  0.00     0.044 A 
HETATM   26  F   UNL     1      17.351  52.863  48.974  1.00  0.00    -0.206 F 
ENDBRANCH  15  16
ENDBRANCH  12  15
ENDBRANCH  10  11
ENDBRANCH   3  10
BRANCH   1  27
HETATM   27  C   UNL     1      27.159  44.112  50.702  1.00  0.00     0.277 C 
BRANCH  27  28
HETATM   28  C   UNL     1      27.021  42.652  50.360  1.00  0.00     0.001 A 
HETATM   29  C   UNL     1      27.890  41.729  50.981  1.00  0.00     0.076 A 
HETATM   30  C   UNL     1      27.839  40.368  50.663  1.00  0.00     0.037 A 
HETATM   31  C   UNL     1      26.869  39.895  49.785  1.00  0.00     0.003 A 
HETATM   32  C   UNL     1      25.940  40.774  49.243  1.00  0.00     0.001 A 
HETATM   33  C   UNL     1      26.005  42.139  49.540  1.00  0.00     0.012 A 
BRANCH  29  34
HETATM   34  O   UNL     1      28.781  42.244  51.890  1.00  0.00    -0.351 OA
BRANCH  34  35
HETATM   35  C   UNL     1      28.745  41.638  53.191  1.00  0.00     0.171 C 
HETATM   36  C   UNL     1      29.203  42.675  54.200  1.00  0.00     0.034 C 
ENDBRANCH  34  35
ENDBRANCH  29  34
ENDBRANCH  27  28
ENDBRANCH   1  27
TORSDOF 8
ENDMDL
MODEL 4
REMARK VINA RESULT:      -8.7      4.065      9.870
REMARK  8 active torsions:
REMARK  status: ('A' for Active; 'I' for Inactive)
REMARK    1  A    between atoms: C_2  and  O_3 
REMARK    2  A    between atoms: O_3  and  C_4 
REMARK    3  A    between atoms: C_5  and  C_6 
REMARK    4  A    between atoms: C_6  and  N_7 
REMARK    5  A    between atoms: C_9  and  C_10 
REMARK    6  A    between atoms: C_10  and  C_11 
REMARK       I    between atoms: C_11  and  N_12 
REMARK    7  A    between atoms: N_12  and  C_13 
REMARK    8  A    between atoms: C_13  and  C_14 
ROOT
HETATM    1  N   UNL     1      25.989  44.119  51.879  1.00  0.00    -0.052 N 
HETATM    2  H   UNL     1      25.643  43.179  51.640  1.00  0.00     0.281 HD
HETATM    3  C   UNL     1      24.816  44.967  51.343  1.00  0.00     0.288 C 
HETATM    4  C   UNL     1      24.567  44.695  49.844  1.00  0.00     0.249 C 
HETATM    5  O   UNL     1      23.545  45.064  49.274  1.00  0.00    -0.271 OA
HETATM    6  N   UNL     1      25.502  43.942  49.179  1.00  0.00    -0.358 N 
HETATM    7  C   UNL     1      26.901  43.807  49.573  1.00  0.00     0.150 C 
HETATM    8  C   UNL     1      27.235  44.167  51.033  1.00  0.00     0.256 C 
HETATM    9  H   UNL     1      25.285  43.833  48.191  1.00  0.00     0.162 HD
ENDROOT
BRANCH   3  10
HETATM   10  C   UNL     1      24.809  46.467  51.641  1.00  0.00     0.145 C 
BRANCH  10  11
HETATM   11  C   UNL     1      25.069  47.348  50.444  1.00  0.00     0.220 C 
HETATM   12  N   UNL     1      23.967  48.026  49.992  1.00  0.00    -0.355 N 
HETATM   13  H   UNL     1      23.042  47.798  50.338  1.00  0.00     0.162 HD
HETATM   14  O   UNL     1      26.180  47.462  49.938  1.00  0.00    -0.274 OA
BRANCH  12  15
HETATM   15  C   UNL     1      24.040  48.999  48.926  1.00  0.00     0.179 C 
BRANCH  15  16
HETATM   16  C   UNL     1      22.721  49.652  48.790  1.00  0.00     0.028 A 
HETATM   17  N   UNL     1      21.909  49.441  47.700  1.00  0.00    -0.357 N 
HETATM   18  H   UNL     1      22.120  48.820  46.929  1.00  0.00     0.166 HD
HETATM   19  C   UNL     1      20.775  50.216  47.785  1.00  0.00     0.043 A 
HETATM   20  C   UNL     1      20.866  50.947  48.971  1.00  0.00    -0.005 A 
HETATM   21  C   UNL     1      19.692  50.335  46.905  1.00  0.00     0.033 A 
HETATM   22  C   UNL     1      22.087  50.575  49.599  1.00  0.00     0.040 A 
HETATM   23  C   UNL     1      19.836  51.846  49.296  1.00  0.00     0.056 A 
HETATM   24  C   UNL     1      18.758  51.973  48.422  1.00  0.00     0.117 A 
HETATM   25  C   UNL     1      18.678  51.233  47.249  1.00  0.00     0.044 A 
HETATM   26  F   UNL     1      17.775  52.833  48.720  1.00  0.00    -0.206 F 
ENDBRANCH  15  16
ENDBRANCH  12  15
ENDBRANCH  10  11
ENDBRANCH   3  10
BRANCH   1  27
HETATM   27  C   UNL     1      26.172  43.978  53.372  1.00  0.00     0.277 C 
BRANCH  27  28
HETATM   28  C   UNL     1      27.222  44.772  54.103  1.00  0.00     0.001 A 
HETATM   29  C   UNL     1      28.359  44.095  54.595  1.00  0.00     0.076 A 
HETATM   30  C   UNL     1      29.339  44.774  55.325  1.00  0.00     0.037 A 
HETATM   31  C   UNL     1      29.244  46.151  55.506  1.00  0.00     0.003 A 
HETATM   32  C   UNL     1      28.184  46.849  54.941  1.00  0.00     0.001 A 
HETATM   33  C   UNL     1      27.189  46.168  54.233  1.00  0.00     0.012 A 
BRANCH  29  34
HETATM   34  O   UNL     1      28.433  42.750  54.329  1.00  0.00    -0.351 OA
BRANCH  34  35
HETATM   35  C   UNL     1      29.485  42.363  53.432  1.00  0.00     0.171 C 
HETATM   36  C   UNL     1      28.966  41.230  52.567  1.00  0.00     0.034 C 
ENDBRANCH  34  35
ENDBRANCH  29  34
ENDBRANCH  27  28
ENDBRANCH   1  27
TORSDOF 8
ENDMDL
MODEL 5
REMARK VINA RESULT:      -8.7      3.300      8.971
REMARK  8 active torsions:
REMARK  status: ('A' for Active; 'I' for Inactive)
REMARK    1  A    between atoms: C_2  and  O_3 
REMARK    2  A    between atoms: O_3  and  C_4 
REMARK    3  A    between atoms: C_5  and  C_6 
REMARK    4  A    between atoms: C_6  and  N_7 
REMARK    5  A    between atoms: C_9  and  C_10 
REMARK    6  A    between atoms: C_10  and  C_11 
REMARK       I    between atoms: C_11  and  N_12 
REMARK    7  A    between atoms: N_12  and  C_13 
REMARK    8  A    between atoms: C_13  and  C_14 
ROOT
HETATM    1  N   UNL     1      26.530  45.237  52.762  1.00  0.00    -0.052 N 
HETATM    2  H   UNL     1      27.321  45.890  52.857  1.00  0.00     0.281 HD
HETATM    3  C   UNL     1      26.749  44.782  51.304  1.00  0.00     0.288 C 
HETATM    4  C   UNL     1      26.758  45.984  50.335  1.00  0.00     0.249 C 
HETATM    5  O   UNL     1      27.156  45.890  49.179  1.00  0.00    -0.271 OA
HETATM    6  N   UNL     1      26.378  47.201  50.844  1.00  0.00    -0.358 N 
HETATM    7  C   UNL     1      25.512  47.390  52.003  1.00  0.00     0.150 C 
HETATM    8  C   UNL     1      25.376  46.186  52.955  1.00  0.00     0.256 C 
HETATM    9  H   UNL     1      26.380  47.937  50.141  1.00  0.00     0.162 HD
ENDROOT
BRANCH   3  10
HETATM   10  C   UNL     1      25.885  43.643  50.761  1.00  0.00     0.145 C 
BRANCH  10  11
HETATM   11  C   UNL     1      24.443  44.011  50.508  1.00  0.00     0.220 C 
HETATM   12  N   UNL     1      24.164  44.337  49.207  1.00  0.00    -0.355 N 
HETATM   13  H   UNL     1      24.911  44.481  48.537  1.00  0.00     0.162 HD
HETATM   14  O   UNL     1      23.593  43.995  51.393  1.00  0.00    -0.274 OA
BRANCH  12  15
HETATM   15  C   UNL     1      22.821  44.611  48.749  1.00  0.00     0.179 C 
BRANCH  15  16
HETATM   16  C   UNL     1      22.648  46.076  48.638  1.00  0.00     0.028 A 
HETATM   17  N   UNL     1      23.687  46.953  48.845  1.00  0.00    -0.357 N 
HETATM   18  H   UNL     1      24.640  46.685  49.059  1.00  0.00     0.166 HD
HETATM   19  C   UNL     1      23.247  48.253  48.749  1.00  0.00     0.043 A 
HETATM   20  C   UNL     1      21.880  48.204  48.471  1.00  0.00    -0.005 A 
HETATM   21  C   UNL     1      23.946  49.458  48.899  1.00  0.00     0.033 A 
HETATM   22  C   UNL     1      21.519  46.831  48.392  1.00  0.00     0.040 A 
HETATM   23  C   UNL     1      21.169  49.410  48.344  1.00  0.00     0.056 A 
HETATM   24  C   UNL     1      21.857  50.612  48.497  1.00  0.00     0.117 A 
HETATM   25  C   UNL     1      23.220  50.644  48.767  1.00  0.00     0.044 A 
HETATM   26  F   UNL     1      21.186  51.766  48.384  1.00  0.00    -0.206 F 
ENDBRANCH  15  16
ENDBRANCH  12  15
ENDBRANCH  10  11
ENDBRANCH   3  10
BRANCH   1  27
HETATM   27  C   UNL     1      26.827  44.273  53.885  1.00  0.00     0.277 C 
BRANCH  27  28
HETATM   28  C   UNL     1      28.175  44.257  54.558  1.00  0.00     0.001 A 
HETATM   29  C   UNL     1      28.966  43.092  54.455  1.00  0.00     0.076 A 
HETATM   30  C   UNL     1      30.202  43.004  55.102  1.00  0.00     0.037 A 
HETATM   31  C   UNL     1      30.706  44.102  55.792  1.00  0.00     0.003 A 
HETATM   32  C   UNL     1      29.987  45.291  55.818  1.00  0.00     0.001 A 
HETATM   33  C   UNL     1      28.739  45.373  55.193  1.00  0.00     0.012 A 
BRANCH  29  34
HETATM   34  O   UNL     1      28.447  42.065  53.706  1.00  0.00    -0.351 OA
BRANCH  34  35
HETATM   35  C   UNL     1      29.212  41.712  52.544  1.00  0.00     0.171 C 
HETATM   36  C   UNL     1      28.306  40.933  51.609  1.00  0.00     0.034 C 
ENDBRANCH  34  35
ENDBRANCH  29  34
ENDBRANCH  27  28
ENDBRANCH   1  27
TORSDOF 8
ENDMDL
MODEL 6
REMARK VINA RESULT:      -8.6      3.855      9.165
REMARK  8 active torsions:
REMARK  status: ('A' for Active; 'I' for Inactive)
REMARK    1  A    between atoms: C_2  and  O_3 
REMARK    2  A    between atoms: O_3  and  C_4 
REMARK    3  A    between atoms: C_5  and  C_6 
REMARK    4  A    between atoms: C_6  and  N_7 
REMARK    5  A    between atoms: C_9  and  C_10 
REMARK    6  A    between atoms: C_10  and  C_11 
REMARK       I    between atoms: C_11  and  N_12 
REMARK    7  A    between atoms: N_12  and  C_13 
REMARK    8  A    between atoms: C_13  and  C_14 
ROOT
HETATM    1  N   UNL     1      26.216  43.408  52.648  1.00  0.00    -0.052 N 
HETATM    2  H   UNL     1      26.177  42.391  52.806  1.00  0.00     0.281 HD
HETATM    3  C   UNL     1      24.884  43.600  51.893  1.00  0.00     0.288 C 
HETATM    4  C   UNL     1      24.823  42.718  50.628  1.00  0.00     0.249 C 
HETATM    5  O   UNL     1      23.778  42.522  50.016  1.00  0.00    -0.271 OA
HETATM    6  N   UNL     1      25.980  42.081  50.252  1.00  0.00    -0.358 N 
HETATM    7  C   UNL     1      27.328  42.526  50.591  1.00  0.00     0.150 C 
HETATM    8  C   UNL     1      27.445  43.496  51.782  1.00  0.00     0.256 C 
HETATM    9  H   UNL     1      25.870  41.545  49.394  1.00  0.00     0.162 HD
ENDROOT
BRANCH   3  10
HETATM   10  C   UNL     1      24.418  45.026  51.595  1.00  0.00     0.145 C 
BRANCH  10  11
HETATM   11  C   UNL     1      24.410  45.393  50.131  1.00  0.00     0.220 C 
HETATM   12  N   UNL     1      23.160  45.577  49.601  1.00  0.00    -0.355 N 
HETATM   13  H   UNL     1      22.333  45.310  50.123  1.00  0.00     0.162 HD
HETATM   14  O   UNL     1      25.441  45.536  49.481  1.00  0.00    -0.274 OA
BRANCH  12  15
HETATM   15  C   UNL     1      22.953  46.037  48.248  1.00  0.00     0.179 C 
BRANCH  15  16
HETATM   16  C   UNL     1      22.269  47.347  48.292  1.00  0.00     0.028 A 
HETATM   17  N   UNL     1      22.359  48.183  49.381  1.00  0.00    -0.357 N 
HETATM   18  H   UNL     1      22.905  47.997  50.213  1.00  0.00     0.166 HD
HETATM   19  C   UNL     1      21.579  49.302  49.196  1.00  0.00     0.043 A 
HETATM   20  C   UNL     1      20.971  49.175  47.946  1.00  0.00    -0.005 A 
HETATM   21  C   UNL     1      21.358  50.399  50.038  1.00  0.00     0.033 A 
HETATM   22  C   UNL     1      21.421  47.950  47.383  1.00  0.00     0.040 A 
HETATM   23  C   UNL     1      20.092  50.184  47.513  1.00  0.00     0.056 A 
HETATM   24  C   UNL     1      19.864  51.276  48.348  1.00  0.00     0.117 A 
HETATM   25  C   UNL     1      20.482  51.391  49.586  1.00  0.00     0.044 A 
HETATM   26  F   UNL     1      19.022  52.238  47.946  1.00  0.00    -0.206 F 
ENDBRANCH  15  16
ENDBRANCH  12  15
ENDBRANCH  10  11
ENDBRANCH   3  10
BRANCH   1  27
HETATM   27  C   UNL     1      26.334  43.907  54.069  1.00  0.00     0.277 C 
BRANCH  27  28
HETATM   28  C   UNL     1      26.763  45.321  54.362  1.00  0.00     0.001 A 
HETATM   29  C   UNL     1      28.102  45.554  54.745  1.00  0.00     0.076 A 
HETATM   30  C   UNL     1      28.540  46.839  55.077  1.00  0.00     0.037 A 
HETATM   31  C   UNL     1      27.676  47.923  54.954  1.00  0.00     0.003 A 
HETATM   32  C   UNL     1      26.385  47.726  54.480  1.00  0.00     0.001 A 
HETATM   33  C   UNL     1      25.937  46.438  54.172  1.00  0.00     0.012 A 
BRANCH  29  34
HETATM   34  O   UNL     1      28.927  44.457  54.784  1.00  0.00    -0.351 OA
BRANCH  34  35
HETATM   35  C   UNL     1      30.057  44.575  55.661  1.00  0.00     0.171 C 
HETATM   36  C   UNL     1      30.767  43.234  55.688  1.00  0.00     0.034 C 
ENDBRANCH  34  35
ENDBRANCH  29  34
ENDBRANCH  27  28
ENDBRANCH   1  27
TORSDOF 8
ENDMDL
MODEL 7
REMARK VINA RESULT:      -8.5      2.352      4.584
REMARK  8 active torsions:
REMARK  status: ('A' for Active; 'I' for Inactive)
REMARK    1  A    between atoms: C_2  and  O_3 
REMARK    2  A    between atoms: O_3  and  C_4 
REMARK    3  A    between atoms: C_5  and  C_6 
REMARK    4  A    between atoms: C_6  and  N_7 
REMARK    5  A    between atoms: C_9  and  C_10 
REMARK    6  A    between atoms: C_10  and  C_11 
REMARK       I    between atoms: C_11  and  N_12 
REMARK    7  A    between atoms: N_12  and  C_13 
REMARK    8  A    between atoms: C_13  and  C_14 
ROOT
HETATM    1  N   UNL     1      22.971  49.291  49.248  1.00  0.00    -0.052 N 
HETATM    2  H   UNL     1      23.443  49.870  49.957  1.00  0.00     0.281 HD
HETATM    3  C   UNL     1      23.686  47.947  49.497  1.00  0.00     0.288 C 
HETATM    4  C   UNL     1      25.216  48.089  49.349  1.00  0.00     0.249 C 
HETATM    5  O   UNL     1      25.995  47.225  49.737  1.00  0.00    -0.271 OA
HETATM    6  N   UNL     1      25.689  49.271  48.835  1.00  0.00    -0.358 N 
HETATM    7  C   UNL     1      24.931  50.170  47.970  1.00  0.00     0.150 C 
HETATM    8  C   UNL     1      23.399  50.005  47.992  1.00  0.00     0.256 C 
HETATM    9  H   UNL     1      26.701  49.279  48.739  1.00  0.00     0.162 HD
ENDROOT
BRANCH   3  10
HETATM   10  C   UNL     1      23.174  46.705  48.766  1.00  0.00     0.145 C 
BRANCH  10  11
HETATM   11  C   UNL     1      23.773  45.404  49.240  1.00  0.00     0.220 C 
HETATM   12  N   UNL     1      23.751  45.234  50.599  1.00  0.00    -0.355 N 
HETATM   13  H   UNL     1      23.511  46.004  51.213  1.00  0.00     0.162 HD
HETATM   14  O   UNL     1      24.219  44.562  48.467  1.00  0.00    -0.274 OA
BRANCH  12  15
HETATM   15  C   UNL     1      24.178  44.008  51.234  1.00  0.00     0.179 C 
BRANCH  15  16
HETATM   16  C   UNL     1      25.338  44.304  52.103  1.00  0.00     0.028 A 
HETATM   17  N   UNL     1      26.277  43.350  52.418  1.00  0.00    -0.357 N 
HETATM   18  H   UNL     1      26.277  42.398  52.075  1.00  0.00     0.166 HD
HETATM   19  C   UNL     1      27.210  43.862  53.292  1.00  0.00     0.043 A 
HETATM   20  C   UNL     1      26.852  45.188  53.543  1.00  0.00    -0.005 A 
HETATM   21  C   UNL     1      28.323  43.253  53.884  1.00  0.00     0.033 A 
HETATM   22  C   UNL     1      25.682  45.457  52.781  1.00  0.00     0.040 A 
HETATM   23  C   UNL     1      27.633  45.946  54.432  1.00  0.00     0.056 A 
HETATM   24  C   UNL     1      28.740  45.345  55.029  1.00  0.00     0.117 A 
HETATM   25  C   UNL     1      29.087  44.026  54.764  1.00  0.00     0.044 A 
HETATM   26  F   UNL     1      29.486  46.057  55.884  1.00  0.00    -0.206 F 
ENDBRANCH  15  16
ENDBRANCH  12  15
ENDBRANCH  10  11
ENDBRANCH   3  10
BRANCH   1  27
HETATM   27  C   UNL     1      21.530  49.447  49.675  1.00  0.00     0.277 C 
BRANCH  27  28
HETATM   28  C   UNL     1      20.559  50.249  48.849  1.00  0.00     0.001 A 
HETATM   29  C   UNL     1      19.966  49.638  47.722  1.00  0.00     0.076 A 
HETATM   30  C   UNL     1      19.097  50.352  46.892  1.00  0.00     0.037 A 
HETATM   31  C   UNL     1      18.740  51.658  47.216  1.00  0.00     0.003 A 
HETATM   32  C   UNL     1      19.234  52.240  48.377  1.00  0.00     0.001 A 
HETATM   33  C   UNL     1      20.123  51.536  49.195  1.00  0.00     0.012 A 
BRANCH  29  34
HETATM   34  O   UNL     1      20.303  48.328  47.489  1.00  0.00    -0.351 OA
BRANCH  34  35
HETATM   35  C   UNL     1      19.199  47.457  47.201  1.00  0.00     0.171 C 
HETATM   36  C   UNL     1      18.589  47.025  48.522  1.00  0.00     0.034 C 
ENDBRANCH  34  35
ENDBRANCH  29  34
ENDBRANCH  27  28
ENDBRANCH   1  27
TORSDOF 8
ENDMDL
MODEL 8
REMARK VINA RESULT:      -8.4      4.375      9.604
REMARK  8 active torsions:
REMARK  status: ('A' for Active; 'I' for Inactive)
REMARK    1  A    between atoms: C_2  and  O_3 
REMARK    2  A    between atoms: O_3  and  C_4 
REMARK    3  A    between atoms: C_5  and  C_6 
REMARK    4  A    between atoms: C_6  and  N_7 
REMARK    5  A    between atoms: C_9  and  C_10 
REMARK    6  A    between atoms: C_10  and  C_11 
REMARK       I    between atoms: C_11  and  N_12 
REMARK    7  A    between atoms: N_12  and  C_13 
REMARK    8  A    between atoms: C_13  and  C_14 
ROOT
HETATM    1  N   UNL     1      26.593  44.638  52.187  1.00  0.00    -0.052 N 
HETATM    2  H   UNL     1      27.384  44.810  52.824  1.00  0.00     0.281 HD
HETATM    3  C   UNL     1      26.070  46.082  52.035  1.00  0.00     0.288 C 
HETATM    4  C   UNL     1      25.716  46.698  53.406  1.00  0.00     0.249 C 
HETATM    5  O   UNL     1      25.519  47.900  53.552  1.00  0.00    -0.271 OA
HETATM    6  N   UNL     1      25.711  45.855  54.489  1.00  0.00    -0.358 N 
HETATM    7  C   UNL     1      25.504  44.411  54.425  1.00  0.00     0.150 C 
HETATM    8  C   UNL     1      25.738  43.750  53.053  1.00  0.00     0.256 C 
HETATM    9  H   UNL     1      25.439  46.325  55.349  1.00  0.00     0.162 HD
ENDROOT
BRANCH   3  10
HETATM   10  C   UNL     1      24.969  46.352  51.008  1.00  0.00     0.145 C 
BRANCH  10  11
HETATM   11  C   UNL     1      25.171  47.598  50.182  1.00  0.00     0.220 C 
HETATM   12  N   UNL     1      24.052  48.019  49.513  1.00  0.00    -0.355 N 
HETATM   13  H   UNL     1      23.229  47.429  49.457  1.00  0.00     0.162 HD
HETATM   14  O   UNL     1      26.242  48.193  50.136  1.00  0.00    -0.274 OA
BRANCH  12  15
HETATM   15  C   UNL     1      24.018  49.251  48.759  1.00  0.00     0.179 C 
BRANCH  15  16
HETATM   16  C   UNL     1      22.697  49.889  48.952  1.00  0.00     0.028 A 
HETATM   17  N   UNL     1      21.714  49.316  49.725  1.00  0.00    -0.357 N 
HETATM   18  H   UNL     1      21.809  48.448  50.237  1.00  0.00     0.166 HD
HETATM   19  C   UNL     1      20.566  50.074  49.685  1.00  0.00     0.043 A 
HETATM   20  C   UNL     1      20.826  51.168  48.857  1.00  0.00    -0.005 A 
HETATM   21  C   UNL     1      19.325  49.869  50.301  1.00  0.00     0.033 A 
HETATM   22  C   UNL     1      22.171  51.047  48.413  1.00  0.00     0.040 A 
HETATM   23  C   UNL     1      19.801  52.102  48.623  1.00  0.00     0.056 A 
HETATM   24  C   UNL     1      18.562  51.900  49.229  1.00  0.00     0.117 A 
HETATM   25  C   UNL     1      18.321  50.810  50.055  1.00  0.00     0.044 A 
HETATM   26  F   UNL     1      17.577  52.781  49.005  1.00  0.00    -0.206 F 
ENDBRANCH  15  16
ENDBRANCH  12  15
ENDBRANCH  10  11
ENDBRANCH   3  10
BRANCH   1  27
HETATM   27  C   UNL     1      27.308  43.990  51.025  1.00  0.00     0.277 C 
BRANCH  27  28
HETATM   28  C   UNL     1      27.811  42.573  51.117  1.00  0.00     0.001 A 
HETATM   29  C   UNL     1      27.647  41.725  50.000  1.00  0.00     0.076 A 
HETATM   30  C   UNL     1      28.050  40.387  50.049  1.00  0.00     0.037 A 
HETATM   31  C   UNL     1      28.697  39.896  51.179  1.00  0.00     0.003 A 
HETATM   32  C   UNL     1      28.959  40.744  52.248  1.00  0.00     0.001 A 
HETATM   33  C   UNL     1      28.533  42.076  52.211  1.00  0.00     0.012 A 
BRANCH  29  34
HETATM   34  O   UNL     1      27.064  42.283  48.889  1.00  0.00    -0.351 OA
BRANCH  34  35
HETATM   35  C   UNL     1      25.755  41.787  48.574  1.00  0.00     0.171 C 
HETATM   36  C   UNL     1      25.840  41.060  47.244  1.00  0.00     0.034 C 
ENDBRANCH  34  35
ENDBRANCH  29  34
ENDBRANCH  27  28
ENDBRANCH   1  27
TORSDOF 8
ENDMDL
MODEL 9
REMARK VINA RESULT:      -8.3      1.583      2.124
REMARK  8 active torsions:
REMARK  status: ('A' for Active; 'I' for Inactive)
REMARK    1  A    between atoms: C_2  and  O_3 
REMARK    2  A    between atoms: O_3  and  C_4 
REMARK    3  A    between atoms: C_5  and  C_6 
REMARK    4  A    between atoms: C_6  and  N_7 
REMARK    5  A    between atoms: C_9  and  C_10 
REMARK    6  A    between atoms: C_10  and  C_11 
REMARK       I    between atoms: C_11  and  N_12 
REMARK    7  A    between atoms: N_12  and  C_13 
REMARK    8  A    between atoms: C_13  and  C_14 
ROOT
HETATM    1  N   UNL     1      23.754  46.503  49.623  1.00  0.00    -0.052 N 
HETATM    2  H   UNL     1      23.110  46.792  50.373  1.00  0.00     0.281 HD
HETATM    3  C   UNL     1      24.072  45.069  50.098  1.00  0.00     0.288 C 
HETATM    4  C   UNL     1      24.653  45.067  51.528  1.00  0.00     0.249 C 
HETATM    5  O   UNL     1      24.747  44.042  52.194  1.00  0.00    -0.271 OA
HETATM    6  N   UNL     1      24.988  46.283  52.070  1.00  0.00    -0.358 N 
HETATM    7  C   UNL     1      25.329  47.476  51.301  1.00  0.00     0.150 C 
HETATM    8  C   UNL     1      24.869  47.494  49.831  1.00  0.00     0.256 C 
HETATM    9  H   UNL     1      25.391  46.199  53.000  1.00  0.00     0.162 HD
ENDROOT
BRANCH   3  10
HETATM   10  C   UNL     1      24.883  44.161  49.171  1.00  0.00     0.145 C 
BRANCH  10  11
HETATM   11  C   UNL     1      25.370  42.884  49.811  1.00  0.00     0.220 C 
HETATM   12  N   UNL     1      26.675  42.923  50.227  1.00  0.00    -0.355 N 
HETATM   13  H   UNL     1      27.282  43.689  49.956  1.00  0.00     0.162 HD
HETATM   14  O   UNL     1      24.647  41.905  49.965  1.00  0.00    -0.274 OA
BRANCH  12  15
HETATM   15  C   UNL     1      27.288  41.838  50.958  1.00  0.00     0.179 C 
BRANCH  15  16
HETATM   16  C   UNL     1      28.002  42.397  52.126  1.00  0.00     0.028 A 
HETATM   17  N   UNL     1      27.565  43.526  52.779  1.00  0.00    -0.357 N 
HETATM   18  H   UNL     1      26.728  44.045  52.546  1.00  0.00     0.166 HD
HETATM   19  C   UNL     1      28.440  43.872  53.783  1.00  0.00     0.043 A 
HETATM   20  C   UNL     1      29.471  42.932  53.770  1.00  0.00    -0.005 A 
HETATM   21  C   UNL     1      28.405  44.944  54.684  1.00  0.00     0.033 A 
HETATM   22  C   UNL     1      29.179  42.004  52.733  1.00  0.00     0.040 A 
HETATM   23  C   UNL     1      30.525  43.065  54.691  1.00  0.00     0.056 A 
HETATM   24  C   UNL     1      30.498  44.132  55.587  1.00  0.00     0.117 A 
HETATM   25  C   UNL     1      29.461  45.056  55.592  1.00  0.00     0.044 A 
HETATM   26  F   UNL     1      31.502  44.272  56.464  1.00  0.00    -0.206 F 
ENDBRANCH  15  16
ENDBRANCH  12  15
ENDBRANCH  10  11
ENDBRANCH   3  10
BRANCH   1  27
HETATM   27  C   UNL     1      22.874  46.697  48.411  1.00  0.00     0.277 C 
BRANCH  27  28
HETATM   28  C   UNL     1      21.399  46.966  48.558  1.00  0.00     0.001 A 
HETATM   29  C   UNL     1      20.988  48.231  49.030  1.00  0.00     0.076 A 
HETATM   30  C   UNL     1      19.634  48.517  49.234  1.00  0.00     0.037 A 
HETATM   31  C   UNL     1      18.666  47.577  48.893  1.00  0.00     0.003 A 
HETATM   32  C   UNL     1      19.047  46.365  48.331  1.00  0.00     0.001 A 
HETATM   33  C   UNL     1      20.402  46.068  48.151  1.00  0.00     0.012 A 
BRANCH  29  34
HETATM   34  O   UNL     1      21.983  49.142  49.286  1.00  0.00    -0.351 OA
BRANCH  34  35
HETATM   35  C   UNL     1      21.952  50.324  48.472  1.00  0.00     0.171 C 
HETATM   36  C   UNL     1      23.338  50.524  47.887  1.00  0.00     0.034 C 
ENDBRANCH  34  35
ENDBRANCH  29  34
ENDBRANCH  27  28
ENDBRANCH   1  27
TORSDOF 8
ENDMDL
MODEL 10
REMARK VINA RESULT:      -8.2      3.768      6.760
REMARK  8 active torsions:
REMARK  status: ('A' for Active; 'I' for Inactive)
REMARK    1  A    between atoms: C_2  and  O_3 
REMARK    2  A    between atoms: O_3  and  C_4 
REMARK    3  A    between atoms: C_5  and  C_6 
REMARK    4  A    between atoms: C_6  and  N_7 
REMARK    5  A    between atoms: C_9  and  C_10 
REMARK    6  A    between atoms: C_10  and  C_11 
REMARK       I    between atoms: C_11  and  N_12 
REMARK    7  A    between atoms: N_12  and  C_13 
REMARK    8  A    between atoms: C_13  and  C_14 
ROOT
HETATM    1  N   UNL     1      19.029  47.532  47.253  1.00  0.00    -0.052 N 
HETATM    2  H   UNL     1      18.827  46.875  46.487  1.00  0.00     0.281 HD
HETATM    3  C   UNL     1      20.189  46.777  47.937  1.00  0.00     0.288 C 
HETATM    4  C   UNL     1      19.762  45.355  48.358  1.00  0.00     0.249 C 
HETATM    5  O   UNL     1      20.575  44.499  48.690  1.00  0.00    -0.271 OA
HETATM    6  N   UNL     1      18.427  45.048  48.266  1.00  0.00    -0.358 N 
HETATM    7  C   UNL     1      17.340  46.021  48.307  1.00  0.00     0.150 C 
HETATM    8  C   UNL     1      17.722  47.482  48.000  1.00  0.00     0.256 C 
HETATM    9  H   UNL     1      18.219  44.106  48.589  1.00  0.00     0.162 HD
ENDROOT
BRANCH   3  10
HETATM   10  C   UNL     1      20.949  47.481  49.062  1.00  0.00     0.145 C 
BRANCH  10  11
HETATM   11  C   UNL     1      22.364  47.876  48.715  1.00  0.00     0.220 C 
HETATM   12  N   UNL     1      23.254  47.751  49.749  1.00  0.00    -0.355 N 
HETATM   13  H   UNL     1      22.930  47.578  50.694  1.00  0.00     0.162 HD
HETATM   14  O   UNL     1      22.687  48.252  47.594  1.00  0.00    -0.274 OA
BRANCH  12  15
HETATM   15  C   UNL     1      24.672  47.976  49.581  1.00  0.00     0.179 C 
BRANCH  15  16
HETATM   16  C   UNL     1      25.407  47.053  50.473  1.00  0.00     0.028 A 
HETATM   17  N   UNL     1      26.159  46.010  49.985  1.00  0.00    -0.357 N 
HETATM   18  H   UNL     1      26.297  45.801  49.005  1.00  0.00     0.166 HD
HETATM   19  C   UNL     1      26.682  45.268  51.020  1.00  0.00     0.043 A 
HETATM   20  C   UNL     1      26.247  45.858  52.208  1.00  0.00    -0.005 A 
HETATM   21  C   UNL     1      27.487  44.122  50.994  1.00  0.00     0.033 A 
HETATM   22  C   UNL     1      25.457  46.985  51.851  1.00  0.00     0.040 A 
HETATM   23  C   UNL     1      26.623  45.277  53.432  1.00  0.00     0.056 A 
HETATM   24  C   UNL     1      27.420  44.134  53.413  1.00  0.00     0.117 A 
HETATM   25  C   UNL     1      27.850  43.563  52.222  1.00  0.00     0.044 A 
HETATM   26  F   UNL     1      27.777  43.570  54.575  1.00  0.00    -0.206 F 
ENDBRANCH  15  16
ENDBRANCH  12  15
ENDBRANCH  10  11
ENDBRANCH   3  10
BRANCH   1  27
HETATM   27  C   UNL     1      19.331  48.788  46.470  1.00  0.00     0.277 C 
BRANCH  27  28
HETATM   28  C   UNL     1      19.155  50.150  47.090  1.00  0.00     0.001 A 
HETATM   29  C   UNL     1      18.017  50.909  46.741  1.00  0.00     0.076 A 
HETATM   30  C   UNL     1      17.831  52.198  47.247  1.00  0.00     0.037 A 
HETATM   31  C   UNL     1      18.731  52.720  48.172  1.00  0.00     0.003 A 
HETATM   32  C   UNL     1      19.802  51.947  48.605  1.00  0.00     0.001 A 
HETATM   33  C   UNL     1      20.004  50.667  48.080  1.00  0.00     0.012 A 
BRANCH  29  34
HETATM   34  O   UNL     1      17.129  50.317  45.877  1.00  0.00    -0.351 OA
BRANCH  34  35
HETATM   35  C   UNL     1      15.757  50.694  46.061  1.00  0.00     0.171 C 
HETATM   36  C   UNL     1      15.076  49.599  46.863  1.00  0.00     0.034 C 
ENDBRANCH  34  35
ENDBRANCH  29  34
ENDBRANCH  27  28
ENDBRANCH   1  27
TORSDOF 8
ENDMDL
