MODEL 1
REMARK VINA RESULT:      -9.8      0.000      0.000
REMARK  7 active torsions:
REMARK  status: ('A' for Active; 'I' for Inactive)
REMARK    1  A    between atoms: C_2  and  N_3 
REMARK    2  A    between atoms: C_2  and  C_26 
REMARK       I    between atoms: N_3  and  C_4 
REMARK    3  A    between atoms: C_4  and  C_5 
REMARK    4  A    between atoms: C_8  and  C_9 
REMARK       I    between atoms: C_9  and  N_10 
REMARK    5  A    between atoms: N_10  and  C_11 
REMARK    6  A    between atoms: N_20  and  C_21 
REMARK    7  A    between atoms: C_28  and  O_29 
ROOT
HETATM    1  C   UNL     1      25.038  45.199  52.226  1.00  0.00     0.098 A 
HETATM    2  C   UNL     1      24.763  46.457  51.467  1.00  0.00     0.206 A 
HETATM    3  O   UNL     1      25.034  47.556  51.956  1.00  0.00    -0.286 OA
HETATM    4  C   UNL     1      24.138  46.360  50.113  1.00  0.00     0.098 A 
HETATM    5  C   UNL     1      23.847  45.126  49.669  1.00  0.00     0.112 A 
HETATM    6  N   UNL     1      24.112  43.971  50.378  1.00  0.00    -0.360 N 
HETATM    7  C   UNL     1      24.675  44.048  51.636  1.00  0.00     0.112 A 
ENDROOT
BRANCH   1   8
HETATM    8  C   UNL     1      25.667  45.154  53.578  1.00  0.00     0.257 C 
HETATM    9  N   UNL     1      26.791  45.922  53.719  1.00  0.00    -0.348 N 
HETATM   10  H   UNL     1      27.144  46.415  52.899  1.00  0.00     0.163 HD
HETATM   11  O   UNL     1      25.201  44.471  54.485  1.00  0.00    -0.267 OA
BRANCH   9  12
HETATM   12  C   UNL     1      27.573  46.005  54.941  1.00  0.00     0.114 C 
HETATM   13  C   UNL     1      28.124  47.414  55.171  1.00  0.00     0.037 C 
BRANCH  12  14
HETATM   14  C   UNL     1      28.703  44.986  54.900  1.00  0.00    -0.033 A 
HETATM   15  C   UNL     1      28.721  43.989  53.907  1.00  0.00     0.046 A 
HETATM   16  C   UNL     1      29.755  43.051  53.857  1.00  0.00     0.068 A 
HETATM   17  C   UNL     1      30.788  43.116  54.795  1.00  0.00     0.037 A 
HETATM   18  C   UNL     1      30.786  44.095  55.785  1.00  0.00     0.003 A 
HETATM   19  C   UNL     1      29.746  45.022  55.841  1.00  0.00     0.009 A 
BRANCH  16  20
HETATM   20  O   UNL     1      29.879  42.034  52.949  1.00  0.00    -0.356 OA
HETATM   21  C   UNL     1      28.779  41.141  52.829  1.00  0.00     0.210 C 
ENDBRANCH  16  20
ENDBRANCH  12  14
ENDBRANCH   9  12
ENDBRANCH   1   8
BRANCH   4  22
HETATM   22  C   UNL     1      23.827  47.535  49.249  1.00  0.00     0.257 C 
HETATM   23  N   UNL     1      22.498  47.687  48.944  1.00  0.00    -0.352 N 
HETATM   24  H   UNL     1      21.835  47.061  49.401  1.00  0.00     0.163 HD
HETATM   25  O   UNL     1      24.704  48.298  48.857  1.00  0.00    -0.267 OA
BRANCH  23  26
HETATM   26  C   UNL     1      21.936  48.870  48.296  1.00  0.00     0.084 C 
HETATM   27  C   UNL     1      20.577  48.485  47.699  1.00  0.00     0.025 C 
HETATM   28  C   UNL     1      19.757  49.625  47.098  1.00  0.00     0.002 C 
HETATM   29  C   UNL     1      19.151  50.532  48.164  1.00  0.00     0.000 C 
HETATM   30  C   UNL     1      20.055  51.668  48.632  1.00  0.00     0.000 C 
HETATM   31  C   UNL     1      21.548  51.369  48.715  1.00  0.00     0.002 C 
HETATM   32  C   UNL     1      21.895  50.014  49.322  1.00  0.00     0.025 C 
ENDBRANCH  23  26
ENDBRANCH   4  22
BRANCH   6  33
HETATM   33  C   UNL     1      23.583  42.689  49.893  1.00  0.00     0.089 A 
HETATM   34  C   UNL     1      23.269  42.466  48.436  1.00  0.00     0.028 A 
HETATM   35  C   UNL     1      24.414  41.737  49.071  1.00  0.00     0.028 A 
ENDBRANCH   6  33
TORSDOF 7
ENDMDL
MODEL 2
REMARK VINA RESULT:      -9.8      1.823      9.707
REMARK  7 active torsions:
REMARK  status: ('A' for Active; 'I' for Inactive)
REMARK    1  A    between atoms: C_2  and  N_3 
REMARK    2  A    between atoms: C_2  and  C_26 
REMARK       I    between atoms: N_3  and  C_4 
REMARK    3  A    between atoms: C_4  and  C_5 
REMARK    4  A    between atoms: C_8  and  C_9 
REMARK       I    between atoms: C_9  and  N_10 
REMARK    5  A    between atoms: N_10  and  C_11 
REMARK    6  A    between atoms: N_20  and  C_21 
REMARK    7  A    between atoms: C_28  and  O_29 
ROOT
HETATM    1  C   UNL     1      24.352  46.701  50.062  1.00  0.00     0.098 A 
HETATM    2  C   UNL     1      24.921  46.457  51.422  1.00  0.00     0.206 A 
HETATM    3  O   UNL     1      25.216  47.403  52.156  1.00  0.00    -0.286 OA
HETATM    4  C   UNL     1      25.141  45.049  51.870  1.00  0.00     0.098 A 
HETATM    5  C   UNL     1      24.820  44.079  50.997  1.00  0.00     0.112 A 
HETATM    6  N   UNL     1      24.289  44.318  49.745  1.00  0.00    -0.360 N 
HETATM    7  C   UNL     1      24.095  45.615  49.313  1.00  0.00     0.112 A 
ENDROOT
BRANCH   1   8
HETATM    8  C   UNL     1      24.072  48.052  49.497  1.00  0.00     0.257 C 
HETATM    9  N   UNL     1      22.768  48.458  49.587  1.00  0.00    -0.348 N 
HETATM   10  H   UNL     1      22.085  47.806  49.972  1.00  0.00     0.163 HD
HETATM   11  O   UNL     1      24.956  48.737  48.990  1.00  0.00    -0.267 OA
BRANCH   9  12
HETATM   12  C   UNL     1      22.272  49.726  49.078  1.00  0.00     0.114 C 
HETATM   13  C   UNL     1      23.057  50.913  49.643  1.00  0.00     0.037 C 
BRANCH  12  14
HETATM   14  C   UNL     1      20.790  49.864  49.393  1.00  0.00    -0.033 A 
HETATM   15  C   UNL     1      20.212  51.140  49.532  1.00  0.00     0.046 A 
HETATM   16  C   UNL     1      18.851  51.279  49.817  1.00  0.00     0.068 A 
HETATM   17  C   UNL     1      18.056  50.138  49.950  1.00  0.00     0.037 A 
HETATM   18  C   UNL     1      18.612  48.868  49.816  1.00  0.00     0.003 A 
HETATM   19  C   UNL     1      19.972  48.731  49.545  1.00  0.00     0.009 A 
BRANCH  16  20
HETATM   20  O   UNL     1      18.178  52.459  49.983  1.00  0.00    -0.356 OA
HETATM   21  C   UNL     1      16.761  52.414  49.866  1.00  0.00     0.210 C 
ENDBRANCH  16  20
ENDBRANCH  12  14
ENDBRANCH   9  12
ENDBRANCH   1   8
BRANCH   4  22
HETATM   22  C   UNL     1      25.686  44.671  53.206  1.00  0.00     0.257 C 
HETATM   23  N   UNL     1      27.053  44.557  53.257  1.00  0.00    -0.352 N 
HETATM   24  H   UNL     1      27.579  44.830  52.427  1.00  0.00     0.163 HD
HETATM   25  O   UNL     1      24.954  44.487  54.173  1.00  0.00    -0.267 OA
BRANCH  23  26
HETATM   26  C   UNL     1      27.817  44.407  54.493  1.00  0.00     0.084 C 
HETATM   27  C   UNL     1      28.975  43.439  54.221  1.00  0.00     0.025 C 
HETATM   28  C   UNL     1      29.983  43.259  55.354  1.00  0.00     0.002 C 
HETATM   29  C   UNL     1      30.894  44.470  55.522  1.00  0.00     0.000 C 
HETATM   30  C   UNL     1      30.345  45.568  56.426  1.00  0.00     0.000 C 
HETATM   31  C   UNL     1      28.840  45.809  56.378  1.00  0.00     0.002 C 
HETATM   32  C   UNL     1      28.237  45.804  54.978  1.00  0.00     0.025 C 
ENDBRANCH  23  26
ENDBRANCH   4  22
BRANCH   6  33
HETATM   33  C   UNL     1      24.153  43.205  48.795  1.00  0.00     0.089 A 
HETATM   34  C   UNL     1      24.375  41.776  49.217  1.00  0.00     0.028 A 
HETATM   35  C   UNL     1      22.998  42.239  48.851  1.00  0.00     0.028 A 
ENDBRANCH   6  33
TORSDOF 7
ENDMDL
MODEL 3
REMARK VINA RESULT:      -9.8      1.732      9.475
REMARK  7 active torsions:
REMARK  status: ('A' for Active; 'I' for Inactive)
REMARK    1  A    between atoms: C_2  and  N_3 
REMARK    2  A    between atoms: C_2  and  C_26 
REMARK       I    between atoms: N_3  and  C_4 
REMARK    3  A    between atoms: C_4  and  C_5 
REMARK    4  A    between atoms: C_8  and  C_9 
REMARK       I    between atoms: C_9  and  N_10 
REMARK    5  A    between atoms: N_10  and  C_11 
REMARK    6  A    between atoms: N_20  and  C_21 
REMARK    7  A    between atoms: C_28  and  O_29 
ROOT
HETATM    1  C   UNL     1      24.351  46.830  50.133  1.00  0.00     0.098 A 
HETATM    2  C   UNL     1      24.931  46.555  51.483  1.00  0.00     0.206 A 
HETATM    3  O   UNL     1      25.255  47.484  52.227  1.00  0.00    -0.286 OA
HETATM    4  C   UNL     1      25.125  45.136  51.910  1.00  0.00     0.098 A 
HETATM    5  C   UNL     1      24.774  44.186  51.027  1.00  0.00     0.112 A 
HETATM    6  N   UNL     1      24.234  44.453  49.785  1.00  0.00    -0.360 N 
HETATM    7  C   UNL     1      24.063  45.760  49.373  1.00  0.00     0.112 A 
ENDROOT
BRANCH   1   8
HETATM    8  C   UNL     1      24.094  48.195  49.591  1.00  0.00     0.257 C 
HETATM    9  N   UNL     1      22.777  48.567  49.561  1.00  0.00    -0.348 N 
HETATM   10  H   UNL     1      22.077  47.885  49.852  1.00  0.00     0.163 HD
HETATM   11  O   UNL     1      25.006  48.918  49.200  1.00  0.00    -0.267 OA
BRANCH   9  12
HETATM   12  C   UNL     1      22.302  49.841  49.049  1.00  0.00     0.114 C 
HETATM   13  C   UNL     1      23.086  51.019  49.634  1.00  0.00     0.037 C 
BRANCH  12  14
HETATM   14  C   UNL     1      20.815  49.991  49.337  1.00  0.00    -0.033 A 
HETATM   15  C   UNL     1      20.003  48.849  49.472  1.00  0.00     0.046 A 
HETATM   16  C   UNL     1      18.637  48.974  49.740  1.00  0.00     0.068 A 
HETATM   17  C   UNL     1      18.079  50.246  49.888  1.00  0.00     0.037 A 
HETATM   18  C   UNL     1      18.868  51.386  49.757  1.00  0.00     0.003 A 
HETATM   19  C   UNL     1      20.228  51.259  49.477  1.00  0.00     0.009 A 
BRANCH  16  20
HETATM   20  O   UNL     1      17.746  47.945  49.885  1.00  0.00    -0.356 OA
HETATM   21  C   UNL     1      16.940  47.629  48.757  1.00  0.00     0.210 C 
ENDBRANCH  16  20
ENDBRANCH  12  14
ENDBRANCH   9  12
ENDBRANCH   1   8
BRANCH   4  22
HETATM   22  C   UNL     1      25.678  44.728  53.234  1.00  0.00     0.257 C 
HETATM   23  N   UNL     1      27.045  44.628  53.279  1.00  0.00    -0.352 N 
HETATM   24  H   UNL     1      27.567  44.930  52.456  1.00  0.00     0.163 HD
HETATM   25  O   UNL     1      24.950  44.510  54.197  1.00  0.00    -0.267 OA
BRANCH  23  26
HETATM   26  C   UNL     1      27.814  44.454  54.509  1.00  0.00     0.084 C 
HETATM   27  C   UNL     1      28.991  43.519  54.206  1.00  0.00     0.025 C 
HETATM   28  C   UNL     1      30.004  43.322  55.332  1.00  0.00     0.002 C 
HETATM   29  C   UNL     1      30.890  44.545  55.539  1.00  0.00     0.000 C 
HETATM   30  C   UNL     1      30.320  45.602  56.479  1.00  0.00     0.000 C 
HETATM   31  C   UNL     1      28.810  45.813  56.440  1.00  0.00     0.002 C 
HETATM   32  C   UNL     1      28.206  45.842  55.040  1.00  0.00     0.025 C 
ENDBRANCH  23  26
ENDBRANCH   4  22
BRANCH   6  33
HETATM   33  C   UNL     1      24.063  43.357  48.821  1.00  0.00     0.089 A 
HETATM   34  C   UNL     1      24.377  41.929  49.187  1.00  0.00     0.028 A 
HETATM   35  C   UNL     1      22.956  42.342  48.949  1.00  0.00     0.028 A 
ENDBRANCH   6  33
TORSDOF 7
ENDMDL
MODEL 4
REMARK VINA RESULT:      -9.4      2.256      3.527
REMARK  7 active torsions:
REMARK  status: ('A' for Active; 'I' for Inactive)
REMARK    1  A    between atoms: C_2  and  N_3 
REMARK    2  A    between atoms: C_2  and  C_26 
REMARK       I    between atoms: N_3  and  C_4 
REMARK    3  A    between atoms: C_4  and  C_5 
REMARK    4  A    between atoms: C_8  and  C_9 
REMARK       I    between atoms: C_9  and  N_10 
REMARK    5  A    between atoms: N_10  and  C_11 
REMARK    6  A    between atoms: N_20  and  C_21 
REMARK    7  A    between atoms: C_28  and  O_29 
ROOT
HETATM    1  C   UNL     1      25.747  45.661  50.659  1.00  0.00     0.098 A 
HETATM    2  C   UNL     1      24.327  45.900  50.260  1.00  0.00     0.206 A 
HETATM    3  O   UNL     1      23.440  45.111  50.596  1.00  0.00    -0.286 OA
HETATM    4  C   UNL     1      24.002  47.103  49.435  1.00  0.00     0.098 A 
HETATM    5  C   UNL     1      25.031  47.894  49.087  1.00  0.00     0.112 A 
HETATM    6  N   UNL     1      26.338  47.664  49.467  1.00  0.00    -0.360 N 
HETATM    7  C   UNL     1      26.654  46.549  50.218  1.00  0.00     0.112 A 
ENDROOT
BRANCH   1   8
HETATM    8  C   UNL     1      26.205  44.510  51.489  1.00  0.00     0.257 C 
HETATM    9  N   UNL     1      26.385  44.789  52.817  1.00  0.00    -0.348 N 
HETATM   10  H   UNL     1      26.251  45.751  53.129  1.00  0.00     0.163 HD
HETATM   11  O   UNL     1      26.404  43.401  51.002  1.00  0.00    -0.267 OA
BRANCH   9  12
HETATM   12  C   UNL     1      26.850  43.823  53.797  1.00  0.00     0.114 C 
HETATM   13  C   UNL     1      25.749  43.443  54.790  1.00  0.00     0.037 C 
BRANCH  12  14
HETATM   14  C   UNL     1      28.066  44.374  54.528  1.00  0.00    -0.033 A 
HETATM   15  C   UNL     1      29.155  43.532  54.824  1.00  0.00     0.046 A 
HETATM   16  C   UNL     1      30.278  44.028  55.492  1.00  0.00     0.068 A 
HETATM   17  C   UNL     1      30.322  45.376  55.854  1.00  0.00     0.037 A 
HETATM   18  C   UNL     1      29.254  46.222  55.570  1.00  0.00     0.003 A 
HETATM   19  C   UNL     1      28.129  45.723  54.916  1.00  0.00     0.009 A 
BRANCH  16  20
HETATM   20  O   UNL     1      31.390  43.311  55.840  1.00  0.00    -0.356 OA
HETATM   21  C   UNL     1      31.790  43.366  57.204  1.00  0.00     0.210 C 
ENDBRANCH  16  20
ENDBRANCH  12  14
ENDBRANCH   9  12
ENDBRANCH   1   8
BRANCH   4  22
HETATM   22  C   UNL     1      22.626  47.463  48.985  1.00  0.00     0.257 C 
HETATM   23  N   UNL     1      22.168  48.670  49.448  1.00  0.00    -0.352 N 
HETATM   24  H   UNL     1      22.824  49.255  49.966  1.00  0.00     0.163 HD
HETATM   25  O   UNL     1      21.973  46.726  48.253  1.00  0.00    -0.267 OA
BRANCH  23  26
HETATM   26  C   UNL     1      20.949  49.321  48.974  1.00  0.00     0.084 C 
HETATM   27  C   UNL     1      19.780  48.824  49.833  1.00  0.00     0.025 C 
HETATM   28  C   UNL     1      18.430  49.497  49.590  1.00  0.00     0.002 C 
HETATM   29  C   UNL     1      18.377  50.915  50.149  1.00  0.00     0.000 C 
HETATM   30  C   UNL     1      18.886  51.999  49.204  1.00  0.00     0.000 C 
HETATM   31  C   UNL     1      20.062  51.630  48.305  1.00  0.00     0.002 C 
HETATM   32  C   UNL     1      21.170  50.842  48.995  1.00  0.00     0.025 C 
ENDBRANCH  23  26
ENDBRANCH   4  22
BRANCH   6  33
HETATM   33  C   UNL     1      27.414  48.475  48.879  1.00  0.00     0.089 A 
HETATM   34  C   UNL     1      27.221  49.938  48.573  1.00  0.00     0.028 A 
HETATM   35  C   UNL     1      28.152  49.524  49.671  1.00  0.00     0.028 A 
ENDBRANCH   6  33
TORSDOF 7
ENDMDL
MODEL 5
REMARK VINA RESULT:      -9.2      2.387      3.998
REMARK  7 active torsions:
REMARK  status: ('A' for Active; 'I' for Inactive)
REMARK    1  A    between atoms: C_2  and  N_3 
REMARK    2  A    between atoms: C_2  and  C_26 
REMARK       I    between atoms: N_3  and  C_4 
REMARK    3  A    between atoms: C_4  and  C_5 
REMARK    4  A    between atoms: C_8  and  C_9 
REMARK       I    between atoms: C_9  and  N_10 
REMARK    5  A    between atoms: N_10  and  C_11 
REMARK    6  A    between atoms: N_20  and  C_21 
REMARK    7  A    between atoms: C_28  and  O_29 
ROOT
HETATM    1  C   UNL     1      25.902  45.339  49.807  1.00  0.00     0.098 A 
HETATM    2  C   UNL     1      24.464  45.270  49.406  1.00  0.00     0.206 A 
HETATM    3  O   UNL     1      23.902  44.181  49.270  1.00  0.00    -0.286 OA
HETATM    4  C   UNL     1      23.723  46.545  49.158  1.00  0.00     0.098 A 
HETATM    5  C   UNL     1      24.419  47.686  49.299  1.00  0.00     0.112 A 
HETATM    6  N   UNL     1      25.746  47.735  49.676  1.00  0.00    -0.360 N 
HETATM    7  C   UNL     1      26.446  46.564  49.894  1.00  0.00     0.112 A 
ENDROOT
BRANCH   1   8
HETATM    8  C   UNL     1      26.752  44.147  50.095  1.00  0.00     0.257 C 
HETATM    9  N   UNL     1      27.233  44.076  51.375  1.00  0.00    -0.348 N 
HETATM   10  H   UNL     1      27.029  44.848  52.010  1.00  0.00     0.163 HD
HETATM   11  O   UNL     1      26.995  43.303  49.237  1.00  0.00    -0.267 OA
BRANCH   9  12
HETATM   12  C   UNL     1      28.098  43.015  51.862  1.00  0.00     0.114 C 
HETATM   13  C   UNL     1      27.330  41.712  52.092  1.00  0.00     0.037 C 
BRANCH  12  14
HETATM   14  C   UNL     1      28.792  43.462  53.140  1.00  0.00    -0.033 A 
HETATM   15  C   UNL     1      28.246  44.503  53.916  1.00  0.00     0.046 A 
HETATM   16  C   UNL     1      28.872  44.919  55.093  1.00  0.00     0.068 A 
HETATM   17  C   UNL     1      30.045  44.284  55.510  1.00  0.00     0.037 A 
HETATM   18  C   UNL     1      30.599  43.253  54.755  1.00  0.00     0.003 A 
HETATM   19  C   UNL     1      29.980  42.849  53.573  1.00  0.00     0.009 A 
BRANCH  16  20
HETATM   20  O   UNL     1      28.445  45.919  55.924  1.00  0.00    -0.356 OA
HETATM   21  C   UNL     1      27.859  47.059  55.310  1.00  0.00     0.210 C 
ENDBRANCH  16  20
ENDBRANCH  12  14
ENDBRANCH   9  12
ENDBRANCH   1   8
BRANCH   4  22
HETATM   22  C   UNL     1      22.285  46.615  48.769  1.00  0.00     0.257 C 
HETATM   23  N   UNL     1      21.665  47.799  49.075  1.00  0.00    -0.352 N 
HETATM   24  H   UNL     1      22.245  48.553  49.442  1.00  0.00     0.163 HD
HETATM   25  O   UNL     1      21.721  45.678  48.214  1.00  0.00    -0.267 OA
BRANCH  23  26
HETATM   26  C   UNL     1      20.333  48.173  48.604  1.00  0.00     0.084 C 
HETATM   27  C   UNL     1      19.366  48.081  49.791  1.00  0.00     0.025 C 
HETATM   28  C   UNL     1      17.942  48.572  49.540  1.00  0.00     0.002 C 
HETATM   29  C   UNL     1      17.857  50.092  49.451  1.00  0.00     0.000 C 
HETATM   30  C   UNL     1      18.109  50.670  48.063  1.00  0.00     0.000 C 
HETATM   31  C   UNL     1      19.151  49.963  47.202  1.00  0.00     0.002 C 
HETATM   32  C   UNL     1      20.421  49.557  47.942  1.00  0.00     0.025 C 
ENDBRANCH  23  26
ENDBRANCH   4  22
BRANCH   6  33
HETATM   33  C   UNL     1      26.467  49.014  49.615  1.00  0.00     0.089 A 
HETATM   34  C   UNL     1      27.873  49.102  49.081  1.00  0.00     0.028 A 
HETATM   35  C   UNL     1      26.744  49.717  48.311  1.00  0.00     0.028 A 
ENDBRANCH   6  33
TORSDOF 7
ENDMDL
MODEL 6
REMARK VINA RESULT:      -9.2      2.077      9.795
REMARK  7 active torsions:
REMARK  status: ('A' for Active; 'I' for Inactive)
REMARK    1  A    between atoms: C_2  and  N_3 
REMARK    2  A    between atoms: C_2  and  C_26 
REMARK       I    between atoms: N_3  and  C_4 
REMARK    3  A    between atoms: C_4  and  C_5 
REMARK    4  A    between atoms: C_8  and  C_9 
REMARK       I    between atoms: C_9  and  N_10 
REMARK    5  A    between atoms: N_10  and  C_11 
REMARK    6  A    between atoms: N_20  and  C_21 
REMARK    7  A    between atoms: C_28  and  O_29 
ROOT
HETATM    1  C   UNL     1      23.490  47.183  49.242  1.00  0.00     0.098 A 
HETATM    2  C   UNL     1      24.212  46.335  50.238  1.00  0.00     0.206 A 
HETATM    3  O   UNL     1      24.819  46.852  51.178  1.00  0.00    -0.286 OA
HETATM    4  C   UNL     1      24.199  44.851  50.066  1.00  0.00     0.098 A 
HETATM    5  C   UNL     1      23.539  44.372  48.997  1.00  0.00     0.112 A 
HETATM    6  N   UNL     1      22.871  45.167  48.088  1.00  0.00    -0.360 N 
HETATM    7  C   UNL     1      22.888  46.540  48.227  1.00  0.00     0.112 A 
ENDROOT
BRANCH   1   8
HETATM    8  C   UNL     1      23.415  48.672  49.302  1.00  0.00     0.257 C 
HETATM    9  N   UNL     1      22.148  49.183  49.392  1.00  0.00    -0.348 N 
HETATM   10  H   UNL     1      21.363  48.534  49.357  1.00  0.00     0.163 HD
HETATM   11  O   UNL     1      24.422  49.372  49.269  1.00  0.00    -0.267 OA
BRANCH   9  12
HETATM   12  C   UNL     1      21.845  50.604  49.438  1.00  0.00     0.114 C 
HETATM   13  C   UNL     1      21.612  51.092  50.870  1.00  0.00     0.037 C 
BRANCH  12  14
HETATM   14  C   UNL     1      20.633  50.900  48.566  1.00  0.00    -0.033 A 
HETATM   15  C   UNL     1      20.313  50.054  47.488  1.00  0.00     0.046 A 
HETATM   16  C   UNL     1      19.201  50.314  46.683  1.00  0.00     0.068 A 
HETATM   17  C   UNL     1      18.393  51.419  46.963  1.00  0.00     0.037 A 
HETATM   18  C   UNL     1      18.695  52.267  48.026  1.00  0.00     0.003 A 
HETATM   19  C   UNL     1      19.812  52.013  48.819  1.00  0.00     0.009 A 
BRANCH  16  20
HETATM   20  O   UNL     1      18.792  49.574  45.607  1.00  0.00    -0.356 OA
HETATM   21  C   UNL     1      17.403  49.289  45.511  1.00  0.00     0.210 C 
ENDBRANCH  16  20
ENDBRANCH  12  14
ENDBRANCH   9  12
ENDBRANCH   1   8
BRANCH   4  22
HETATM   22  C   UNL     1      24.865  43.894  50.996  1.00  0.00     0.257 C 
HETATM   23  N   UNL     1      26.176  44.185  51.277  1.00  0.00    -0.352 N 
HETATM   24  H   UNL     1      26.550  45.064  50.918  1.00  0.00     0.163 HD
HETATM   25  O   UNL     1      24.269  42.932  51.468  1.00  0.00    -0.267 OA
BRANCH  23  26
HETATM   26  C   UNL     1      26.959  43.520  52.315  1.00  0.00     0.084 C 
HETATM   27  C   UNL     1      27.954  42.577  51.629  1.00  0.00     0.025 C 
HETATM   28  C   UNL     1      28.970  41.889  52.539  1.00  0.00     0.002 C 
HETATM   29  C   UNL     1      30.052  42.844  53.032  1.00  0.00     0.000 C 
HETATM   30  C   UNL     1      29.702  43.613  54.302  1.00  0.00     0.000 C 
HETATM   31  C   UNL     1      28.246  44.036  54.471  1.00  0.00     0.002 C 
HETATM   32  C   UNL     1      27.594  44.595  53.211  1.00  0.00     0.025 C 
ENDBRANCH  23  26
ENDBRANCH   4  22
BRANCH   6  33
HETATM   33  C   UNL     1      22.346  44.566  46.854  1.00  0.00     0.089 A 
HETATM   34  C   UNL     1      21.999  43.101  46.775  1.00  0.00     0.028 A 
HETATM   35  C   UNL     1      20.909  44.129  46.723  1.00  0.00     0.028 A 
ENDBRANCH   6  33
TORSDOF 7
ENDMDL
MODEL 7
REMARK VINA RESULT:      -9.2      2.254      6.389
REMARK  7 active torsions:
REMARK  status: ('A' for Active; 'I' for Inactive)
REMARK    1  A    between atoms: C_2  and  N_3 
REMARK    2  A    between atoms: C_2  and  C_26 
REMARK       I    between atoms: N_3  and  C_4 
REMARK    3  A    between atoms: C_4  and  C_5 
REMARK    4  A    between atoms: C_8  and  C_9 
REMARK       I    between atoms: C_9  and  N_10 
REMARK    5  A    between atoms: N_10  and  C_11 
REMARK    6  A    between atoms: N_20  and  C_21 
REMARK    7  A    between atoms: C_28  and  O_29 
ROOT
HETATM    1  C   UNL     1      25.261  46.340  51.659  1.00  0.00     0.098 A 
HETATM    2  C   UNL     1      25.380  44.938  51.155  1.00  0.00     0.206 A 
HETATM    3  O   UNL     1      25.990  44.087  51.806  1.00  0.00    -0.286 OA
HETATM    4  C   UNL     1      24.759  44.589  49.841  1.00  0.00     0.098 A 
HETATM    5  C   UNL     1      24.139  45.583  49.182  1.00  0.00     0.112 A 
HETATM    6  N   UNL     1      24.032  46.873  49.663  1.00  0.00    -0.360 N 
HETATM    7  C   UNL     1      24.613  47.212  50.869  1.00  0.00     0.112 A 
ENDROOT
BRANCH   1   8
HETATM    8  C   UNL     1      25.822  46.816  52.956  1.00  0.00     0.257 C 
HETATM    9  N   UNL     1      26.879  46.088  53.432  1.00  0.00    -0.348 N 
HETATM   10  H   UNL     1      27.167  45.260  52.911  1.00  0.00     0.163 HD
HETATM   11  O   UNL     1      25.358  47.790  53.543  1.00  0.00    -0.267 OA
BRANCH   9  12
HETATM   12  C   UNL     1      27.558  46.362  54.687  1.00  0.00     0.114 C 
HETATM   13  C   UNL     1      28.192  47.755  54.700  1.00  0.00     0.037 C 
BRANCH  12  14
HETATM   14  C   UNL     1      28.608  45.292  54.950  1.00  0.00    -0.033 A 
HETATM   15  C   UNL     1      28.521  44.042  54.307  1.00  0.00     0.046 A 
HETATM   16  C   UNL     1      29.481  43.053  54.538  1.00  0.00     0.068 A 
HETATM   17  C   UNL     1      30.544  43.316  55.405  1.00  0.00     0.037 A 
HETATM   18  C   UNL     1      30.645  44.546  56.050  1.00  0.00     0.003 A 
HETATM   19  C   UNL     1      29.679  45.527  55.829  1.00  0.00     0.009 A 
BRANCH  16  20
HETATM   20  O   UNL     1      29.501  41.803  53.981  1.00  0.00    -0.356 OA
HETATM   21  C   UNL     1      28.998  41.680  52.657  1.00  0.00     0.210 C 
ENDBRANCH  16  20
ENDBRANCH  12  14
ENDBRANCH   9  12
ENDBRANCH   1   8
BRANCH   4  22
HETATM   22  C   UNL     1      24.793  43.227  49.234  1.00  0.00     0.257 C 
HETATM   23  N   UNL     1      26.051  42.724  49.021  1.00  0.00    -0.352 N 
HETATM   24  H   UNL     1      26.840  43.264  49.377  1.00  0.00     0.163 HD
HETATM   25  O   UNL     1      23.764  42.618  48.961  1.00  0.00    -0.267 OA
BRANCH  23  26
HETATM   26  C   UNL     1      26.327  41.341  48.639  1.00  0.00     0.084 C 
HETATM   27  C   UNL     1      27.556  41.337  47.722  1.00  0.00     0.025 C 
HETATM   28  C   UNL     1      28.097  39.965  47.326  1.00  0.00     0.002 C 
HETATM   29  C   UNL     1      28.820  39.270  48.474  1.00  0.00     0.000 C 
HETATM   30  C   UNL     1      27.924  38.451  49.397  1.00  0.00     0.000 C 
HETATM   31  C   UNL     1      26.526  39.000  49.662  1.00  0.00     0.002 C 
HETATM   32  C   UNL     1      26.468  40.502  49.919  1.00  0.00     0.025 C 
ENDBRANCH  23  26
ENDBRANCH   4  22
BRANCH   6  33
HETATM   33  C   UNL     1      23.506  47.928  48.786  1.00  0.00     0.089 A 
HETATM   34  C   UNL     1      22.288  47.705  47.927  1.00  0.00     0.028 A 
HETATM   35  C   UNL     1      22.219  48.653  49.085  1.00  0.00     0.028 A 
ENDBRANCH   6  33
TORSDOF 7
ENDMDL
MODEL 8
REMARK VINA RESULT:      -9.2      1.686      3.102
REMARK  7 active torsions:
REMARK  status: ('A' for Active; 'I' for Inactive)
REMARK    1  A    between atoms: C_2  and  N_3 
REMARK    2  A    between atoms: C_2  and  C_26 
REMARK       I    between atoms: N_3  and  C_4 
REMARK    3  A    between atoms: C_4  and  C_5 
REMARK    4  A    between atoms: C_8  and  C_9 
REMARK       I    between atoms: C_9  and  N_10 
REMARK    5  A    between atoms: N_10  and  C_11 
REMARK    6  A    between atoms: N_20  and  C_21 
REMARK    7  A    between atoms: C_28  and  O_29 
ROOT
HETATM    1  C   UNL     1      26.423  43.402  50.445  1.00  0.00     0.098 A 
HETATM    2  C   UNL     1      26.078  44.814  50.795  1.00  0.00     0.206 A 
HETATM    3  O   UNL     1      26.693  45.407  51.684  1.00  0.00    -0.286 OA
HETATM    4  C   UNL     1      24.965  45.488  50.061  1.00  0.00     0.098 A 
HETATM    5  C   UNL     1      24.327  44.759  49.128  1.00  0.00     0.112 A 
HETATM    6  N   UNL     1      24.660  43.458  48.810  1.00  0.00    -0.360 N 
HETATM    7  C   UNL     1      25.677  42.819  49.491  1.00  0.00     0.112 A 
ENDROOT
BRANCH   1   8
HETATM    8  C   UNL     1      27.516  42.619  51.090  1.00  0.00     0.257 C 
HETATM    9  N   UNL     1      27.816  42.993  52.372  1.00  0.00    -0.348 N 
HETATM   10  H   UNL     1      27.325  43.795  52.768  1.00  0.00     0.163 HD
HETATM   11  O   UNL     1      28.095  41.711  50.501  1.00  0.00    -0.267 OA
BRANCH   9  12
HETATM   12  C   UNL     1      28.861  42.382  53.176  1.00  0.00     0.114 C 
HETATM   13  C   UNL     1      28.392  41.078  53.825  1.00  0.00     0.037 C 
BRANCH  12  14
HETATM   14  C   UNL     1      29.341  43.366  54.233  1.00  0.00    -0.033 A 
HETATM   15  C   UNL     1      28.584  44.517  54.524  1.00  0.00     0.046 A 
HETATM   16  C   UNL     1      29.013  45.425  55.495  1.00  0.00     0.068 A 
HETATM   17  C   UNL     1      30.198  45.178  56.193  1.00  0.00     0.037 A 
HETATM   18  C   UNL     1      30.959  44.044  55.917  1.00  0.00     0.003 A 
HETATM   19  C   UNL     1      30.536  43.147  54.939  1.00  0.00     0.009 A 
BRANCH  16  20
HETATM   20  O   UNL     1      28.372  46.578  55.861  1.00  0.00    -0.356 OA
HETATM   21  C   UNL     1      27.808  47.359  54.815  1.00  0.00     0.210 C 
ENDBRANCH  16  20
ENDBRANCH  12  14
ENDBRANCH   9  12
ENDBRANCH   1   8
BRANCH   4  22
HETATM   22  C   UNL     1      24.533  46.895  50.303  1.00  0.00     0.257 C 
HETATM   23  N   UNL     1      23.699  47.412  49.345  1.00  0.00    -0.352 N 
HETATM   24  H   UNL     1      23.369  46.779  48.616  1.00  0.00     0.163 HD
HETATM   25  O   UNL     1      24.901  47.521  51.292  1.00  0.00    -0.267 OA
BRANCH  23  26
HETATM   26  C   UNL     1      22.986  48.681  49.477  1.00  0.00     0.084 C 
HETATM   27  C   UNL     1      23.726  49.731  48.640  1.00  0.00     0.025 C 
HETATM   28  C   UNL     1      23.056  51.100  48.530  1.00  0.00     0.002 C 
HETATM   29  C   UNL     1      21.834  51.078  47.618  1.00  0.00     0.000 C 
HETATM   30  C   UNL     1      20.527  50.693  48.302  1.00  0.00     0.000 C 
HETATM   31  C   UNL     1      20.612  49.643  49.405  1.00  0.00     0.002 C 
HETATM   32  C   UNL     1      21.516  48.457  49.088  1.00  0.00     0.025 C 
ENDBRANCH  23  26
ENDBRANCH   4  22
BRANCH   6  33
HETATM   33  C   UNL     1      23.784  42.687  47.917  1.00  0.00     0.089 A 
HETATM   34  C   UNL     1      24.218  41.366  47.335  1.00  0.00     0.028 A 
HETATM   35  C   UNL     1      23.121  41.406  48.355  1.00  0.00     0.028 A 
ENDBRANCH   6  33
TORSDOF 7
ENDMDL
MODEL 9
REMARK VINA RESULT:      -9.0      2.474     10.023
REMARK  7 active torsions:
REMARK  status: ('A' for Active; 'I' for Inactive)
REMARK    1  A    between atoms: C_2  and  N_3 
REMARK    2  A    between atoms: C_2  and  C_26 
REMARK       I    between atoms: N_3  and  C_4 
REMARK    3  A    between atoms: C_4  and  C_5 
REMARK    4  A    between atoms: C_8  and  C_9 
REMARK       I    between atoms: C_9  and  N_10 
REMARK    5  A    between atoms: N_10  and  C_11 
REMARK    6  A    between atoms: N_20  and  C_21 
REMARK    7  A    between atoms: C_28  and  O_29 
ROOT
HETATM    1  C   UNL     1      24.207  45.734  49.920  1.00  0.00     0.098 A 
HETATM    2  C   UNL     1      24.541  45.129  51.245  1.00  0.00     0.206 A 
HETATM    3  O   UNL     1      23.908  44.159  51.669  1.00  0.00    -0.286 OA
HETATM    4  C   UNL     1      25.644  45.729  52.055  1.00  0.00     0.098 A 
HETATM    5  C   UNL     1      26.262  46.802  51.533  1.00  0.00     0.112 A 
HETATM    6  N   UNL     1      25.948  47.348  50.305  1.00  0.00    -0.360 N 
HETATM    7  C   UNL     1      24.921  46.812  49.553  1.00  0.00     0.112 A 
ENDROOT
BRANCH   1   8
HETATM    8  C   UNL     1      23.141  45.227  49.009  1.00  0.00     0.257 C 
HETATM    9  N   UNL     1      22.118  46.106  48.771  1.00  0.00    -0.348 N 
HETATM   10  H   UNL     1      22.127  47.000  49.262  1.00  0.00     0.163 HD
HETATM   11  O   UNL     1      23.188  44.103  48.520  1.00  0.00    -0.267 OA
BRANCH   9  12
HETATM   12  C   UNL     1      20.967  45.809  47.936  1.00  0.00     0.114 C 
HETATM   13  C   UNL     1      21.253  46.073  46.456  1.00  0.00     0.037 C 
BRANCH  12  14
HETATM   14  C   UNL     1      19.767  46.621  48.404  1.00  0.00    -0.033 A 
HETATM   15  C   UNL     1      19.956  47.775  49.187  1.00  0.00     0.046 A 
HETATM   16  C   UNL     1      18.862  48.530  49.619  1.00  0.00     0.068 A 
HETATM   17  C   UNL     1      17.571  48.139  49.257  1.00  0.00     0.037 A 
HETATM   18  C   UNL     1      17.366  46.999  48.484  1.00  0.00     0.003 A 
HETATM   19  C   UNL     1      18.458  46.241  48.065  1.00  0.00     0.009 A 
BRANCH  16  20
HETATM   20  O   UNL     1      18.916  49.662  50.387  1.00  0.00    -0.356 OA
HETATM   21  C   UNL     1      18.074  50.741  50.002  1.00  0.00     0.210 C 
ENDBRANCH  16  20
ENDBRANCH  12  14
ENDBRANCH   9  12
ENDBRANCH   1   8
BRANCH   4  22
HETATM   22  C   UNL     1      26.085  45.212  53.383  1.00  0.00     0.257 C 
HETATM   23  N   UNL     1      27.432  44.976  53.489  1.00  0.00    -0.352 N 
HETATM   24  H   UNL     1      28.022  45.260  52.707  1.00  0.00     0.163 HD
HETATM   25  O   UNL     1      25.290  45.025  54.298  1.00  0.00    -0.267 OA
BRANCH  23  26
HETATM   26  C   UNL     1      28.115  44.674  54.745  1.00  0.00     0.084 C 
HETATM   27  C   UNL     1      29.266  43.708  54.440  1.00  0.00     0.025 C 
HETATM   28  C   UNL     1      30.198  43.379  55.604  1.00  0.00     0.002 C 
HETATM   29  C   UNL     1      31.123  44.539  55.956  1.00  0.00     0.000 C 
HETATM   30  C   UNL     1      30.542  45.550  56.940  1.00  0.00     0.000 C 
HETATM   31  C   UNL     1      29.048  45.837  56.828  1.00  0.00     0.002 C 
HETATM   32  C   UNL     1      28.534  45.998  55.402  1.00  0.00     0.025 C 
ENDBRANCH  23  26
ENDBRANCH   4  22
BRANCH   6  33
HETATM   33  C   UNL     1      26.547  48.630  49.910  1.00  0.00     0.089 A 
HETATM   34  C   UNL     1      27.743  48.694  48.996  1.00  0.00     0.028 A 
HETATM   35  C   UNL     1      26.411  49.184  48.515  1.00  0.00     0.028 A 
ENDBRANCH   6  33
TORSDOF 7
ENDMDL
MODEL 10
REMARK VINA RESULT:      -8.5      2.644      4.568
REMARK  7 active torsions:
REMARK  status: ('A' for Active; 'I' for Inactive)
REMARK    1  A    between atoms: C_2  and  N_3 
REMARK    2  A    between atoms: C_2  and  C_26 
REMARK       I    between atoms: N_3  and  C_4 
REMARK    3  A    between atoms: C_4  and  C_5 
REMARK    4  A    between atoms: C_8  and  C_9 
REMARK       I    between atoms: C_9  and  N_10 
REMARK    5  A    between atoms: N_10  and  C_11 
REMARK    6  A    between atoms: N_20  and  C_21 
REMARK    7  A    between atoms: C_28  and  O_29 
ROOT
HETATM    1  C   UNL     1      25.111  46.331  49.741  1.00  0.00     0.098 A 
HETATM    2  C   UNL     1      23.822  45.658  49.399  1.00  0.00     0.206 A 
HETATM    3  O   UNL     1      23.700  44.438  49.522  1.00  0.00    -0.286 OA
HETATM    4  C   UNL     1      22.687  46.489  48.891  1.00  0.00     0.098 A 
HETATM    5  C   UNL     1      22.915  47.807  48.759  1.00  0.00     0.112 A 
HETATM    6  N   UNL     1      24.110  48.416  49.084  1.00  0.00    -0.360 N 
HETATM    7  C   UNL     1      25.171  47.659  49.540  1.00  0.00     0.112 A 
ENDROOT
BRANCH   1   8
HETATM    8  C   UNL     1      26.315  45.624  50.267  1.00  0.00     0.257 C 
HETATM    9  N   UNL     1      26.189  45.137  51.540  1.00  0.00    -0.348 N 
HETATM   10  H   UNL     1      25.326  45.333  52.048  1.00  0.00     0.163 HD
HETATM   11  O   UNL     1      27.336  45.499  49.597  1.00  0.00    -0.267 OA
BRANCH   9  12
HETATM   12  C   UNL     1      27.244  44.440  52.254  1.00  0.00     0.114 C 
HETATM   13  C   UNL     1      26.863  42.989  52.562  1.00  0.00     0.037 C 
BRANCH  12  14
HETATM   14  C   UNL     1      27.584  45.189  53.534  1.00  0.00    -0.033 A 
HETATM   15  C   UNL     1      28.637  44.744  54.356  1.00  0.00     0.046 A 
HETATM   16  C   UNL     1      28.960  45.427  55.532  1.00  0.00     0.068 A 
HETATM   17  C   UNL     1      28.238  46.569  55.884  1.00  0.00     0.037 A 
HETATM   18  C   UNL     1      27.193  47.023  55.083  1.00  0.00     0.003 A 
HETATM   19  C   UNL     1      26.864  46.333  53.918  1.00  0.00     0.009 A 
BRANCH  16  20
HETATM   20  O   UNL     1      29.952  45.090  56.413  1.00  0.00    -0.356 OA
HETATM   21  C   UNL     1      30.959  44.205  55.941  1.00  0.00     0.210 C 
ENDBRANCH  16  20
ENDBRANCH  12  14
ENDBRANCH   9  12
ENDBRANCH   1   8
BRANCH   4  22
HETATM   22  C   UNL     1      21.347  45.944  48.530  1.00  0.00     0.257 C 
HETATM   23  N   UNL     1      20.296  46.787  48.787  1.00  0.00    -0.352 N 
HETATM   24  H   UNL     1      20.517  47.732  49.102  1.00  0.00     0.163 HD
HETATM   25  O   UNL     1      21.216  44.828  48.037  1.00  0.00    -0.267 OA
BRANCH  23  26
HETATM   26  C   UNL     1      18.929  46.557  48.327  1.00  0.00     0.084 C 
HETATM   27  C   UNL     1      17.986  47.399  49.195  1.00  0.00     0.025 C 
HETATM   28  C   UNL     1      16.516  47.410  48.781  1.00  0.00     0.002 C 
HETATM   29  C   UNL     1      16.271  48.239  47.524  1.00  0.00     0.000 C 
HETATM   30  C   UNL     1      16.451  47.485  46.211  1.00  0.00     0.000 C 
HETATM   31  C   UNL     1      17.554  46.432  46.168  1.00  0.00     0.002 C 
HETATM   32  C   UNL     1      18.866  46.856  46.821  1.00  0.00     0.025 C 
ENDBRANCH  23  26
ENDBRANCH   4  22
BRANCH   6  33
HETATM   33  C   UNL     1      24.323  49.825  48.723  1.00  0.00     0.089 A 
HETATM   34  C   UNL     1      23.509  50.495  47.646  1.00  0.00     0.028 A 
HETATM   35  C   UNL     1      23.330  50.902  49.077  1.00  0.00     0.028 A 
ENDBRANCH   6  33
TORSDOF 7
ENDMDL
