MODEL 1
REMARK VINA RESULT:     -10.0      0.000      0.000
REMARK  3 active torsions:
REMARK  status: ('A' for Active; 'I' for Inactive)
REMARK    1  A    between atoms: C_7  and  C_8 
REMARK       I    between atoms: C_8  and  N_9 
REMARK    2  A    between atoms: N_9  and  N_10 
REMARK    3  A    between atoms: N_10  and  C_11 
ROOT
HETATM    1  C   UNL     1      23.963  47.988  49.810  1.00  0.00     0.124 A 
HETATM    2  N   UNL     1      25.189  48.409  49.449  1.00  0.00    -0.223 NA
HETATM    3  C   UNL     1      25.276  49.553  48.744  1.00  0.00     0.129 A 
HETATM    4 CL   UNL     1      26.875  50.016  48.331  1.00  0.00    -0.062 Cl
HETATM    5  C   UNL     1      24.199  50.319  48.355  1.00  0.00     0.067 A 
HETATM    6  C   UNL     1      22.938  49.865  48.720  1.00  0.00     0.051 A 
HETATM    7  C   UNL     1      21.771  50.603  48.343  1.00  0.00     0.099 C 
HETATM    8  N   UNL     1      20.829  51.206  48.034  1.00  0.00    -0.191 NA
HETATM    9  C   UNL     1      22.812  48.684  49.452  1.00  0.00     0.068 A 
ENDROOT
BRANCH   1  10
HETATM   10  N   UNL     1      23.894  46.765  50.507  1.00  0.00    -0.186 NA
HETATM   11  H   UNL     1      23.614  46.063  49.808  1.00  0.00     0.154 HD
BRANCH  10  12
HETATM   12  N   UNL     1      25.105  46.410  51.136  1.00  0.00    -0.281 N 
HETATM   13  C   UNL     1      25.118  45.250  51.885  1.00  0.00     0.271 C 
HETATM   14  O   UNL     1      24.214  44.416  51.842  1.00  0.00    -0.266 OA
HETATM   15  H   UNL     1      25.764  47.166  51.347  1.00  0.00     0.184 HD
BRANCH  13  16
HETATM   16  C   UNL     1      26.300  45.095  52.778  1.00  0.00     0.099 A 
HETATM   17  C   UNL     1      26.529  45.902  54.007  1.00  0.00     0.201 A 
HETATM   18  C   UNL     1      27.728  45.600  54.832  1.00  0.00     0.045 A 
HETATM   19  O   UNL     1      25.742  46.785  54.343  1.00  0.00    -0.286 OA
HETATM   20  C   UNL     1      28.607  44.574  54.420  1.00  0.00     0.052 A 
HETATM   21  C   UNL     1      27.958  46.324  56.005  1.00  0.00     0.060 A 
HETATM   22  C   UNL     1      29.754  44.303  55.192  1.00  0.00    -0.031 A 
HETATM   23  N   UNL     1      28.345  43.899  53.219  1.00  0.00    -0.364 N 
HETATM   24  C   UNL     1      30.738  43.234  54.806  1.00  0.00     0.050 C 
HETATM   25  C   UNL     1      29.967  45.030  56.374  1.00  0.00     0.051 A 
HETATM   26  C   UNL     1      29.076  46.025  56.766  1.00  0.00     0.117 A 
HETATM   27  F   UNL     1      29.305  46.704  57.896  1.00  0.00    -0.206 F 
HETATM   28  C   UNL     1      27.215  44.158  52.487  1.00  0.00     0.109 A 
HETATM   29  H   UNL     1      28.881  43.069  52.988  1.00  0.00     0.165 HD
ENDBRANCH  13  16
ENDBRANCH  10  12
ENDBRANCH   1  10
TORSDOF 3
ENDMDL
MODEL 2
REMARK VINA RESULT:      -9.9      2.106      2.864
REMARK  3 active torsions:
REMARK  status: ('A' for Active; 'I' for Inactive)
REMARK    1  A    between atoms: C_7  and  C_8 
REMARK       I    between atoms: C_8  and  N_9 
REMARK    2  A    between atoms: N_9  and  N_10 
REMARK    3  A    between atoms: N_10  and  C_11 
ROOT
HETATM    1  C   UNL     1      25.890  46.175  49.652  1.00  0.00     0.124 A 
HETATM    2  N   UNL     1      26.846  47.107  49.485  1.00  0.00    -0.223 NA
HETATM    3  C   UNL     1      26.452  48.373  49.249  1.00  0.00     0.129 A 
HETATM    4 CL   UNL     1      27.735  49.494  49.053  1.00  0.00    -0.062 Cl
HETATM    5  C   UNL     1      25.140  48.782  49.155  1.00  0.00     0.067 A 
HETATM    6  C   UNL     1      24.163  47.807  49.313  1.00  0.00     0.051 A 
HETATM    7  C   UNL     1      22.777  48.156  49.219  1.00  0.00     0.099 C 
HETATM    8  N   UNL     1      21.657  48.444  49.142  1.00  0.00    -0.191 NA
HETATM    9  C   UNL     1      24.537  46.486  49.559  1.00  0.00     0.068 A 
ENDROOT
BRANCH   1  10
HETATM   10  N   UNL     1      26.327  44.850  49.852  1.00  0.00    -0.186 NA
HETATM   11  H   UNL     1      26.826  44.590  48.989  1.00  0.00     0.154 HD
BRANCH  10  12
HETATM   12  N   UNL     1      27.149  44.696  50.986  1.00  0.00    -0.281 N 
HETATM   13  C   UNL     1      26.540  44.339  52.172  1.00  0.00     0.271 C 
HETATM   14  O   UNL     1      25.378  43.937  52.233  1.00  0.00    -0.266 OA
HETATM   15  H   UNL     1      28.035  45.212  50.998  1.00  0.00     0.184 HD
BRANCH  13  16
HETATM   16  C   UNL     1      27.386  44.507  53.386  1.00  0.00     0.099 A 
HETATM   17  C   UNL     1      28.630  43.734  53.650  1.00  0.00     0.201 A 
HETATM   18  C   UNL     1      29.403  44.047  54.881  1.00  0.00     0.045 A 
HETATM   19  O   UNL     1      29.020  42.871  52.867  1.00  0.00    -0.286 OA
HETATM   20  C   UNL     1      28.930  45.051  55.755  1.00  0.00     0.052 A 
HETATM   21  C   UNL     1      30.588  43.356  55.145  1.00  0.00     0.060 A 
HETATM   22  C   UNL     1      29.652  45.332  56.932  1.00  0.00    -0.031 A 
HETATM   23  N   UNL     1      27.718  45.693  55.458  1.00  0.00    -0.364 N 
HETATM   24  C   UNL     1      29.200  46.377  57.912  1.00  0.00     0.050 C 
HETATM   25  C   UNL     1      30.848  44.638  57.179  1.00  0.00     0.051 A 
HETATM   26  C   UNL     1      31.300  43.665  56.292  1.00  0.00     0.117 A 
HETATM   27  F   UNL     1      32.441  43.017  56.554  1.00  0.00    -0.206 F 
HETATM   28  C   UNL     1      27.035  45.425  54.300  1.00  0.00     0.109 A 
HETATM   29  H   UNL     1      27.444  46.509  55.994  1.00  0.00     0.165 HD
ENDBRANCH  13  16
ENDBRANCH  10  12
ENDBRANCH   1  10
TORSDOF 3
ENDMDL
MODEL 3
REMARK VINA RESULT:      -9.8      5.376      7.048
REMARK  3 active torsions:
REMARK  status: ('A' for Active; 'I' for Inactive)
REMARK    1  A    between atoms: C_7  and  C_8 
REMARK       I    between atoms: C_8  and  N_9 
REMARK    2  A    between atoms: N_9  and  N_10 
REMARK    3  A    between atoms: N_10  and  C_11 
ROOT
HETATM    1  C   UNL     1      27.111  41.131  50.218  1.00  0.00     0.124 A 
HETATM    2  N   UNL     1      27.197  41.413  48.905  1.00  0.00    -0.223 NA
HETATM    3  C   UNL     1      28.033  40.666  48.159  1.00  0.00     0.129 A 
HETATM    4 CL   UNL     1      28.077  41.091  46.498  1.00  0.00    -0.062 Cl
HETATM    5  C   UNL     1      28.815  39.641  48.644  1.00  0.00     0.067 A 
HETATM    6  C   UNL     1      28.729  39.372  50.004  1.00  0.00     0.051 A 
HETATM    7  C   UNL     1      29.520  38.328  50.582  1.00  0.00     0.099 C 
HETATM    8  N   UNL     1      30.163  37.480  51.043  1.00  0.00    -0.191 NA
HETATM    9  C   UNL     1      27.873  40.126  50.806  1.00  0.00     0.068 A 
ENDROOT
BRANCH   1  10
HETATM   10  N   UNL     1      26.265  41.956  50.987  1.00  0.00    -0.186 NA
HETATM   11  H   UNL     1      25.423  41.393  51.172  1.00  0.00     0.154 HD
BRANCH  10  12
HETATM   12  N   UNL     1      26.857  42.405  52.185  1.00  0.00    -0.281 N 
HETATM   13  C   UNL     1      27.702  43.494  52.110  1.00  0.00     0.271 C 
HETATM   14  O   UNL     1      27.781  44.212  51.114  1.00  0.00    -0.266 OA
HETATM   15  H   UNL     1      26.965  41.720  52.940  1.00  0.00     0.184 HD
BRANCH  13  16
HETATM   16  C   UNL     1      28.541  43.719  53.320  1.00  0.00     0.099 A 
HETATM   17  C   UNL     1      28.313  44.816  54.301  1.00  0.00     0.201 A 
HETATM   18  C   UNL     1      29.200  44.887  55.493  1.00  0.00     0.045 A 
HETATM   19  O   UNL     1      27.409  45.633  54.142  1.00  0.00    -0.286 OA
HETATM   20  C   UNL     1      30.224  43.927  55.647  1.00  0.00     0.052 A 
HETATM   21  C   UNL     1      28.996  45.889  56.444  1.00  0.00     0.060 A 
HETATM   22  C   UNL     1      31.076  44.007  56.766  1.00  0.00    -0.031 A 
HETATM   23  N   UNL     1      30.404  42.959  54.647  1.00  0.00    -0.364 N 
HETATM   24  C   UNL     1      32.194  43.027  56.986  1.00  0.00     0.050 C 
HETATM   25  C   UNL     1      30.854  45.013  57.721  1.00  0.00     0.051 A 
HETATM   26  C   UNL     1      29.826  45.936  57.552  1.00  0.00     0.117 A 
HETATM   27  F   UNL     1      29.638  46.886  58.476  1.00  0.00    -0.206 F 
HETATM   28  C   UNL     1      29.555  42.878  53.573  1.00  0.00     0.109 A 
HETATM   29  H   UNL     1      31.034  42.183  54.813  1.00  0.00     0.165 HD
ENDBRANCH  13  16
ENDBRANCH  10  12
ENDBRANCH   1  10
TORSDOF 3
ENDMDL
MODEL 4
REMARK VINA RESULT:      -9.7      5.494      7.759
REMARK  3 active torsions:
REMARK  status: ('A' for Active; 'I' for Inactive)
REMARK    1  A    between atoms: C_7  and  C_8 
REMARK       I    between atoms: C_8  and  N_9 
REMARK    2  A    between atoms: N_9  and  N_10 
REMARK    3  A    between atoms: N_10  and  C_11 
ROOT
HETATM    1  C   UNL     1      27.826  40.810  49.285  1.00  0.00     0.124 A 
HETATM    2  N   UNL     1      27.665  40.461  47.996  1.00  0.00    -0.223 NA
HETATM    3  C   UNL     1      28.130  39.257  47.611  1.00  0.00     0.129 A 
HETATM    4 CL   UNL     1      27.879  38.893  45.954  1.00  0.00    -0.062 Cl
HETATM    5  C   UNL     1      28.770  38.361  48.439  1.00  0.00     0.067 A 
HETATM    6  C   UNL     1      28.944  38.740  49.764  1.00  0.00     0.051 A 
HETATM    7  C   UNL     1      29.608  37.865  50.681  1.00  0.00     0.099 C 
HETATM    8  N   UNL     1      30.147  37.151  51.419  1.00  0.00    -0.191 NA
HETATM    9  C   UNL     1      28.473  39.981  50.196  1.00  0.00     0.068 A 
ENDROOT
BRANCH   1  10
HETATM   10  N   UNL     1      27.372  42.093  49.654  1.00  0.00    -0.186 NA
HETATM   11  H   UNL     1      26.368  42.107  49.426  1.00  0.00     0.154 HD
BRANCH  10  12
HETATM   12  N   UNL     1      27.596  42.397  51.012  1.00  0.00    -0.281 N 
HETATM   13  C   UNL     1      27.508  43.722  51.392  1.00  0.00     0.271 C 
HETATM   14  O   UNL     1      27.033  44.595  50.667  1.00  0.00    -0.266 OA
HETATM   15  H   UNL     1      28.174  41.745  51.550  1.00  0.00     0.184 HD
BRANCH  13  16
HETATM   16  C   UNL     1      28.064  44.025  52.739  1.00  0.00     0.099 A 
HETATM   17  C   UNL     1      29.265  43.361  53.316  1.00  0.00     0.201 A 
HETATM   18  C   UNL     1      29.738  43.803  54.654  1.00  0.00     0.045 A 
HETATM   19  O   UNL     1      29.862  42.481  52.698  1.00  0.00    -0.286 OA
HETATM   20  C   UNL     1      29.033  44.823  55.331  1.00  0.00     0.052 A 
HETATM   21  C   UNL     1      30.877  43.217  55.211  1.00  0.00     0.060 A 
HETATM   22  C   UNL     1      29.470  45.227  56.608  1.00  0.00    -0.031 A 
HETATM   23  N   UNL     1      27.878  45.357  54.739  1.00  0.00    -0.364 N 
HETATM   24  C   UNL     1      28.760  46.296  57.390  1.00  0.00     0.050 C 
HETATM   25  C   UNL     1      30.622  44.637  57.152  1.00  0.00     0.051 A 
HETATM   26  C   UNL     1      31.308  43.646  56.455  1.00  0.00     0.117 A 
HETATM   27  F   UNL     1      32.403  43.099  56.998  1.00  0.00    -0.206 F 
HETATM   28  C   UNL     1      27.474  44.970  53.488  1.00  0.00     0.109 A 
HETATM   29  H   UNL     1      27.450  46.182  55.142  1.00  0.00     0.165 HD
ENDBRANCH  13  16
ENDBRANCH  10  12
ENDBRANCH   1  10
TORSDOF 3
ENDMDL
MODEL 5
REMARK VINA RESULT:      -9.5      2.228      2.986
REMARK  3 active torsions:
REMARK  status: ('A' for Active; 'I' for Inactive)
REMARK    1  A    between atoms: C_7  and  C_8 
REMARK       I    between atoms: C_8  and  N_9 
REMARK    2  A    between atoms: N_9  and  N_10 
REMARK    3  A    between atoms: N_10  and  C_11 
ROOT
HETATM    1  C   UNL     1      22.836  47.634  48.833  1.00  0.00     0.124 A 
HETATM    2  N   UNL     1      21.742  48.351  48.517  1.00  0.00    -0.223 NA
HETATM    3  C   UNL     1      21.926  49.602  48.054  1.00  0.00     0.129 A 
HETATM    4 CL   UNL     1      20.479  50.439  47.671  1.00  0.00    -0.062 Cl
HETATM    5  C   UNL     1      23.153  50.206  47.891  1.00  0.00     0.067 A 
HETATM    6  C   UNL     1      24.273  49.462  48.237  1.00  0.00     0.051 A 
HETATM    7  C   UNL     1      25.582  50.028  48.105  1.00  0.00     0.099 C 
HETATM    8  N   UNL     1      26.639  50.492  47.995  1.00  0.00    -0.191 NA
HETATM    9  C   UNL     1      24.119  48.162  48.720  1.00  0.00     0.068 A 
ENDROOT
BRANCH   1  10
HETATM   10  N   UNL     1      22.617  46.345  49.359  1.00  0.00    -0.186 NA
HETATM   11  H   UNL     1      22.212  45.796  48.587  1.00  0.00     0.154 HD
BRANCH  10  12
HETATM   12  N   UNL     1      23.785  45.739  49.863  1.00  0.00    -0.281 N 
HETATM   13  C   UNL     1      23.646  44.533  50.520  1.00  0.00     0.271 C 
HETATM   14  O   UNL     1      22.610  43.868  50.487  1.00  0.00    -0.266 OA
HETATM   15  H   UNL     1      24.577  46.353  50.078  1.00  0.00     0.184 HD
BRANCH  13  16
HETATM   16  C   UNL     1      24.838  44.105  51.304  1.00  0.00     0.099 A 
HETATM   17  C   UNL     1      25.593  44.996  52.227  1.00  0.00     0.201 A 
HETATM   18  C   UNL     1      26.733  44.416  52.987  1.00  0.00     0.045 A 
HETATM   19  O   UNL     1      25.276  46.175  52.373  1.00  0.00    -0.286 OA
HETATM   20  C   UNL     1      27.063  43.056  52.800  1.00  0.00     0.052 A 
HETATM   21  C   UNL     1      27.445  45.220  53.879  1.00  0.00     0.060 A 
HETATM   22  C   UNL     1      28.156  42.513  53.505  1.00  0.00    -0.031 A 
HETATM   23  N   UNL     1      26.333  42.302  51.870  1.00  0.00    -0.364 N 
HETATM   24  C   UNL     1      28.572  41.078  53.345  1.00  0.00     0.050 C 
HETATM   25  C   UNL     1      28.858  43.329  54.407  1.00  0.00     0.051 A 
HETATM   26  C   UNL     1      28.499  44.663  54.584  1.00  0.00     0.117 A 
HETATM   27  F   UNL     1      29.187  45.418  55.449  1.00  0.00    -0.206 F 
HETATM   28  C   UNL     1      25.259  42.835  51.205  1.00  0.00     0.109 A 
HETATM   29  H   UNL     1      26.463  41.297  51.833  1.00  0.00     0.165 HD
ENDBRANCH  13  16
ENDBRANCH  10  12
ENDBRANCH   1  10
TORSDOF 3
ENDMDL
MODEL 6
REMARK VINA RESULT:      -9.4      5.368      7.912
REMARK  3 active torsions:
REMARK  status: ('A' for Active; 'I' for Inactive)
REMARK    1  A    between atoms: C_7  and  C_8 
REMARK       I    between atoms: C_8  and  N_9 
REMARK    2  A    between atoms: N_9  and  N_10 
REMARK    3  A    between atoms: N_10  and  C_11 
ROOT
HETATM    1  C   UNL     1      27.008  39.442  49.393  1.00  0.00     0.124 A 
HETATM    2  N   UNL     1      27.947  39.020  50.260  1.00  0.00    -0.223 NA
HETATM    3  C   UNL     1      28.978  38.306  49.768  1.00  0.00     0.129 A 
HETATM    4 CL   UNL     1      30.127  37.814  50.941  1.00  0.00    -0.062 Cl
HETATM    5  C   UNL     1      29.135  37.966  48.442  1.00  0.00     0.067 A 
HETATM    6  C   UNL     1      28.151  38.394  47.560  1.00  0.00     0.051 A 
HETATM    7  C   UNL     1      28.242  38.070  46.169  1.00  0.00     0.099 C 
HETATM    8  N   UNL     1      28.322  37.804  45.043  1.00  0.00    -0.191 NA
HETATM    9  C   UNL     1      27.070  39.136  48.037  1.00  0.00     0.068 A 
ENDROOT
BRANCH   1  10
HETATM   10  N   UNL     1      25.917  40.148  49.938  1.00  0.00    -0.186 NA
HETATM   11  H   UNL     1      25.215  39.432  50.174  1.00  0.00     0.154 HD
BRANCH  10  12
HETATM   12  N   UNL     1      26.257  40.925  51.064  1.00  0.00    -0.281 N 
HETATM   13  C   UNL     1      26.413  42.283  50.877  1.00  0.00     0.271 C 
HETATM   14  O   UNL     1      26.055  42.864  49.853  1.00  0.00    -0.266 OA
HETATM   15  H   UNL     1      26.744  40.451  51.831  1.00  0.00     0.184 HD
BRANCH  13  16
HETATM   16  C   UNL     1      27.080  42.997  52.002  1.00  0.00     0.099 A 
HETATM   17  C   UNL     1      28.258  42.470  52.743  1.00  0.00     0.201 A 
HETATM   18  C   UNL     1      28.853  43.317  53.810  1.00  0.00     0.045 A 
HETATM   19  O   UNL     1      28.738  41.371  52.473  1.00  0.00    -0.286 OA
HETATM   20  C   UNL     1      28.280  44.578  54.088  1.00  0.00     0.052 A 
HETATM   21  C   UNL     1      29.975  42.861  54.507  1.00  0.00     0.060 A 
HETATM   22  C   UNL     1      28.832  45.371  55.113  1.00  0.00    -0.031 A 
HETATM   23  N   UNL     1      27.136  44.974  53.378  1.00  0.00    -0.364 N 
HETATM   24  C   UNL     1      28.265  46.716  55.470  1.00  0.00     0.050 C 
HETATM   25  C   UNL     1      29.966  44.906  55.799  1.00  0.00     0.051 A 
HETATM   26  C   UNL     1      30.521  43.667  55.492  1.00  0.00     0.117 A 
HETATM   27  F   UNL     1      31.600  43.247  56.164  1.00  0.00    -0.206 F 
HETATM   28  C   UNL     1      26.620  44.203  52.369  1.00  0.00     0.109 A 
HETATM   29  H   UNL     1      26.804  45.929  53.463  1.00  0.00     0.165 HD
ENDBRANCH  13  16
ENDBRANCH  10  12
ENDBRANCH   1  10
TORSDOF 3
ENDMDL
MODEL 7
REMARK VINA RESULT:      -9.4      2.768      3.753
REMARK  3 active torsions:
REMARK  status: ('A' for Active; 'I' for Inactive)
REMARK    1  A    between atoms: C_7  and  C_8 
REMARK       I    between atoms: C_8  and  N_9 
REMARK    2  A    between atoms: N_9  and  N_10 
REMARK    3  A    between atoms: N_10  and  C_11 
ROOT
HETATM    1  C   UNL     1      26.048  44.426  49.668  1.00  0.00     0.124 A 
HETATM    2  N   UNL     1      24.922  43.703  49.809  1.00  0.00    -0.223 NA
HETATM    3  C   UNL     1      23.752  44.368  49.851  1.00  0.00     0.129 A 
HETATM    4 CL   UNL     1      22.370  43.369  50.028  1.00  0.00    -0.062 Cl
HETATM    5  C   UNL     1      23.625  45.738  49.772  1.00  0.00     0.067 A 
HETATM    6  C   UNL     1      24.796  46.474  49.643  1.00  0.00     0.051 A 
HETATM    7  C   UNL     1      24.743  47.902  49.565  1.00  0.00     0.099 C 
HETATM    8  N   UNL     1      24.693  49.059  49.502  1.00  0.00    -0.191 NA
HETATM    9  C   UNL     1      26.025  45.816  49.595  1.00  0.00     0.068 A 
ENDROOT
BRANCH   1  10
HETATM   10  N   UNL     1      27.263  43.711  49.673  1.00  0.00    -0.186 NA
HETATM   11  H   UNL     1      27.733  43.957  48.789  1.00  0.00     0.154 HD
BRANCH  10  12
HETATM   12  N   UNL     1      28.079  43.999  50.786  1.00  0.00    -0.281 N 
HETATM   13  C   UNL     1      28.307  42.981  51.690  1.00  0.00     0.271 C 
HETATM   14  O   UNL     1      28.029  41.805  51.457  1.00  0.00    -0.266 OA
HETATM   15  H   UNL     1      28.133  44.977  51.087  1.00  0.00     0.184 HD
BRANCH  13  16
HETATM   16  C   UNL     1      28.889  43.417  52.989  1.00  0.00     0.099 A 
HETATM   17  C   UNL     1      28.292  44.464  53.862  1.00  0.00     0.201 A 
HETATM   18  C   UNL     1      28.956  44.759  55.160  1.00  0.00     0.045 A 
HETATM   19  O   UNL     1      27.269  45.060  53.531  1.00  0.00    -0.286 OA
HETATM   20  C   UNL     1      30.125  44.049  55.512  1.00  0.00     0.052 A 
HETATM   21  C   UNL     1      28.406  45.719  56.013  1.00  0.00     0.060 A 
HETATM   22  C   UNL     1      30.765  44.344  56.732  1.00  0.00    -0.031 A 
HETATM   23  N   UNL     1      30.652  43.117  54.605  1.00  0.00    -0.364 N 
HETATM   24  C   UNL     1      32.019  43.637  57.164  1.00  0.00     0.050 C 
HETATM   25  C   UNL     1      30.196  45.303  57.586  1.00  0.00     0.051 A 
HETATM   26  C   UNL     1      29.033  45.976  57.221  1.00  0.00     0.117 A 
HETATM   27  F   UNL     1      28.513  46.887  58.052  1.00  0.00    -0.206 F 
HETATM   28  C   UNL     1      30.009  42.824  53.430  1.00  0.00     0.109 A 
HETATM   29  H   UNL     1      31.400  42.501  54.904  1.00  0.00     0.165 HD
ENDBRANCH  13  16
ENDBRANCH  10  12
ENDBRANCH   1  10
TORSDOF 3
ENDMDL
MODEL 8
REMARK VINA RESULT:      -9.3      1.531      2.190
REMARK  3 active torsions:
REMARK  status: ('A' for Active; 'I' for Inactive)
REMARK    1  A    between atoms: C_7  and  C_8 
REMARK       I    between atoms: C_8  and  N_9 
REMARK    2  A    between atoms: N_9  and  N_10 
REMARK    3  A    between atoms: N_10  and  C_11 
ROOT
HETATM    1  C   UNL     1      24.061  47.334  49.635  1.00  0.00     0.124 A 
HETATM    2  N   UNL     1      22.895  47.851  49.204  1.00  0.00    -0.223 NA
HETATM    3  C   UNL     1      22.936  49.031  48.556  1.00  0.00     0.129 A 
HETATM    4 CL   UNL     1      21.407  49.612  48.039  1.00  0.00    -0.062 Cl
HETATM    5  C   UNL     1      24.083  49.754  48.312  1.00  0.00     0.067 A 
HETATM    6  C   UNL     1      25.277  49.218  48.777  1.00  0.00     0.051 A 
HETATM    7  C   UNL     1      26.508  49.918  48.569  1.00  0.00     0.099 C 
HETATM    8  N   UNL     1      27.503  50.489  48.397  1.00  0.00    -0.191 NA
HETATM    9  C   UNL     1      25.271  47.997  49.451  1.00  0.00     0.068 A 
ENDROOT
BRANCH   1  10
HETATM   10  N   UNL     1      23.989  46.122  50.350  1.00  0.00    -0.186 NA
HETATM   11  H   UNL     1      23.734  45.406  49.656  1.00  0.00     0.154 HD
BRANCH  10  12
HETATM   12  N   UNL     1      25.187  45.791  51.014  1.00  0.00    -0.281 N 
HETATM   13  C   UNL     1      25.115  44.871  52.041  1.00  0.00     0.271 C 
HETATM   14  O   UNL     1      24.121  44.175  52.246  1.00  0.00    -0.266 OA
HETATM   15  H   UNL     1      25.940  46.486  50.999  1.00  0.00     0.184 HD
BRANCH  13  16
HETATM   16  C   UNL     1      26.324  44.803  52.908  1.00  0.00     0.099 A 
HETATM   17  C   UNL     1      26.533  45.646  54.116  1.00  0.00     0.201 A 
HETATM   18  C   UNL     1      27.767  45.432  54.918  1.00  0.00     0.045 A 
HETATM   19  O   UNL     1      25.703  46.487  54.455  1.00  0.00    -0.286 OA
HETATM   20  C   UNL     1      28.695  44.451  54.503  1.00  0.00     0.052 A 
HETATM   21  C   UNL     1      27.980  46.190  56.071  1.00  0.00     0.060 A 
HETATM   22  C   UNL     1      29.874  44.263  55.251  1.00  0.00    -0.031 A 
HETATM   23  N   UNL     1      28.446  43.738  53.321  1.00  0.00    -0.364 N 
HETATM   24  C   UNL     1      30.910  43.247  54.861  1.00  0.00     0.050 C 
HETATM   25  C   UNL     1      30.071  45.024  56.415  1.00  0.00     0.051 A 
HETATM   26  C   UNL     1      29.131  45.972  56.810  1.00  0.00     0.117 A 
HETATM   27  F   UNL     1      29.345  46.686  57.922  1.00  0.00    -0.206 F 
HETATM   28  C   UNL     1      27.286  43.916  52.612  1.00  0.00     0.109 A 
HETATM   29  H   UNL     1      29.024  42.938  53.091  1.00  0.00     0.165 HD
ENDBRANCH  13  16
ENDBRANCH  10  12
ENDBRANCH   1  10
TORSDOF 3
ENDMDL
MODEL 9
REMARK VINA RESULT:      -9.2      3.500      8.628
REMARK  3 active torsions:
REMARK  status: ('A' for Active; 'I' for Inactive)
REMARK    1  A    between atoms: C_7  and  C_8 
REMARK       I    between atoms: C_8  and  N_9 
REMARK    2  A    between atoms: N_9  and  N_10 
REMARK    3  A    between atoms: N_10  and  C_11 
ROOT
HETATM    1  C   UNL     1      27.729  44.928  53.479  1.00  0.00     0.124 A 
HETATM    2  N   UNL     1      27.027  46.021  53.831  1.00  0.00    -0.223 NA
HETATM    3  C   UNL     1      27.412  46.681  54.940  1.00  0.00     0.129 A 
HETATM    4 CL   UNL     1      26.467  48.062  55.312  1.00  0.00    -0.062 Cl
HETATM    5  C   UNL     1      28.465  46.311  55.748  1.00  0.00     0.067 A 
HETATM    6  C   UNL     1      29.171  45.172  55.382  1.00  0.00     0.051 A 
HETATM    7  C   UNL     1      30.271  44.721  56.179  1.00  0.00     0.099 C 
HETATM    8  N   UNL     1      31.163  44.361  56.828  1.00  0.00    -0.191 NA
HETATM    9  C   UNL     1      28.799  44.465  54.238  1.00  0.00     0.068 A 
ENDROOT
BRANCH   1  10
HETATM   10  N   UNL     1      27.279  44.229  52.341  1.00  0.00    -0.186 NA
HETATM   11  H   UNL     1      27.064  43.276  52.669  1.00  0.00     0.154 HD
BRANCH  10  12
HETATM   12  N   UNL     1      26.162  44.825  51.722  1.00  0.00    -0.281 N 
HETATM   13  C   UNL     1      26.314  45.271  50.424  1.00  0.00     0.271 C 
HETATM   14  O   UNL     1      27.281  44.975  49.724  1.00  0.00    -0.266 OA
HETATM   15  H   UNL     1      25.458  45.250  52.333  1.00  0.00     0.184 HD
BRANCH  13  16
HETATM   16  C   UNL     1      25.229  46.169  49.940  1.00  0.00     0.099 A 
HETATM   17  C   UNL     1      25.412  47.618  49.651  1.00  0.00     0.201 A 
HETATM   18  C   UNL     1      24.250  48.380  49.121  1.00  0.00     0.045 A 
HETATM   19  O   UNL     1      26.496  48.169  49.828  1.00  0.00    -0.286 OA
HETATM   20  C   UNL     1      23.022  47.712  48.922  1.00  0.00     0.052 A 
HETATM   21  C   UNL     1      24.397  49.735  48.816  1.00  0.00     0.060 A 
HETATM   22  C   UNL     1      21.916  48.440  48.440  1.00  0.00    -0.031 A 
HETATM   23  N   UNL     1      22.921  46.358  49.273  1.00  0.00    -0.364 N 
HETATM   24  C   UNL     1      20.576  47.797  48.217  1.00  0.00     0.050 C 
HETATM   25  C   UNL     1      22.079  49.800  48.126  1.00  0.00     0.051 A 
HETATM   26  C   UNL     1      23.307  50.428  48.316  1.00  0.00     0.117 A 
HETATM   27  F   UNL     1      23.434  51.726  48.012  1.00  0.00    -0.206 F 
HETATM   28  C   UNL     1      24.009  45.655  49.722  1.00  0.00     0.109 A 
HETATM   29  H   UNL     1      22.096  45.834  49.001  1.00  0.00     0.165 HD
ENDBRANCH  13  16
ENDBRANCH  10  12
ENDBRANCH   1  10
TORSDOF 3
ENDMDL
MODEL 10
REMARK VINA RESULT:      -9.1      3.768      8.351
REMARK  3 active torsions:
REMARK  status: ('A' for Active; 'I' for Inactive)
REMARK    1  A    between atoms: C_7  and  C_8 
REMARK       I    between atoms: C_8  and  N_9 
REMARK    2  A    between atoms: N_9  and  N_10 
REMARK    3  A    between atoms: N_10  and  C_11 
ROOT
HETATM    1  C   UNL     1      27.276  45.065  53.295  1.00  0.00     0.124 A 
HETATM    2  N   UNL     1      28.374  44.489  53.818  1.00  0.00    -0.223 NA
HETATM    3  C   UNL     1      28.884  45.021  54.945  1.00  0.00     0.129 A 
HETATM    4 CL   UNL     1      30.278  44.221  55.543  1.00  0.00    -0.062 Cl
HETATM    5  C   UNL     1      28.370  46.121  55.596  1.00  0.00     0.067 A 
HETATM    6  C   UNL     1      27.247  46.717  55.037  1.00  0.00     0.051 A 
HETATM    7  C   UNL     1      26.663  47.870  55.653  1.00  0.00     0.099 C 
HETATM    8  N   UNL     1      26.194  48.803  56.156  1.00  0.00    -0.191 NA
HETATM    9  C   UNL     1      26.692  46.190  53.870  1.00  0.00     0.068 A 
ENDROOT
BRANCH   1  10
HETATM   10  N   UNL     1      26.788  44.519  52.091  1.00  0.00    -0.186 NA
HETATM   11  H   UNL     1      26.566  43.536  52.303  1.00  0.00     0.154 HD
BRANCH  10  12
HETATM   12  N   UNL     1      25.664  45.201  51.581  1.00  0.00    -0.281 N 
HETATM   13  C   UNL     1      25.390  45.062  50.235  1.00  0.00     0.271 C 
HETATM   14  O   UNL     1      25.930  44.212  49.527  1.00  0.00    -0.266 OA
HETATM   15  H   UNL     1      25.354  46.038  52.085  1.00  0.00     0.184 HD
BRANCH  13  16
HETATM   16  C   UNL     1      24.410  46.042  49.691  1.00  0.00     0.099 A 
HETATM   17  C   UNL     1      24.632  47.514  49.658  1.00  0.00     0.201 A 
HETATM   18  C   UNL     1      23.586  48.368  49.035  1.00  0.00     0.045 A 
HETATM   19  O   UNL     1      25.657  48.012  50.119  1.00  0.00    -0.286 OA
HETATM   20  C   UNL     1      22.425  47.761  48.509  1.00  0.00     0.052 A 
HETATM   21  C   UNL     1      23.777  49.750  48.967  1.00  0.00     0.060 A 
HETATM   22  C   UNL     1      21.425  48.573  47.938  1.00  0.00    -0.031 A 
HETATM   23  N   UNL     1      22.271  46.372  48.631  1.00  0.00    -0.364 N 
HETATM   24  C   UNL     1      20.159  47.995  47.372  1.00  0.00     0.050 C 
HETATM   25  C   UNL     1      21.633  49.960  47.865  1.00  0.00     0.051 A 
HETATM   26  C   UNL     1      22.796  50.530  48.377  1.00  0.00     0.117 A 
HETATM   27  F   UNL     1      22.967  51.855  48.297  1.00  0.00    -0.206 F 
HETATM   28  C   UNL     1      23.259  45.589  49.171  1.00  0.00     0.109 A 
HETATM   29  H   UNL     1      21.518  45.909  48.133  1.00  0.00     0.165 HD
ENDBRANCH  13  16
ENDBRANCH  10  12
ENDBRANCH   1  10
TORSDOF 3
ENDMDL
