MODEL 1
REMARK VINA RESULT:      -9.4      0.000      0.000
REMARK  9 active torsions:
REMARK  status: ('A' for Active; 'I' for Inactive)
REMARK    1  A    between atoms: C_2  and  C_3 
REMARK    2  A    between atoms: C_3  and  O_4 
REMARK    3  A    between atoms: O_4  and  C_5 
REMARK    4  A    between atoms: C_6  and  C_7 
REMARK    5  A    between atoms: C_7  and  N_8 
REMARK    6  A    between atoms: C_17  and  C_18 
REMARK    7  A    between atoms: C_18  and  N_19 
REMARK    8  A    between atoms: C_23  and  O_24 
REMARK    9  A    between atoms: C_23  and  C_25 
ROOT
HETATM    1  N   UNL     1      28.025  42.893  54.047  1.00  0.00    -0.061 N 
HETATM    2  H   UNL     1      27.998  42.589  55.026  1.00  0.00     0.280 HD
HETATM    3  C   UNL     1      26.587  43.208  53.704  1.00  0.00     0.276 C 
HETATM    4  C   UNL     1      26.353  43.816  52.349  1.00  0.00     0.002 A 
HETATM    5  C   UNL     1      26.649  43.087  51.197  1.00  0.00     0.076 A 
HETATM    6  O   UNL     1      27.173  41.827  51.278  1.00  0.00    -0.349 OA
HETATM    7  C   UNL     1      28.523  41.853  51.765  1.00  0.00     0.203 C 
HETATM    8  C   UNL     1      28.567  41.690  53.288  1.00  0.00     0.262 C 
HETATM    9  C   UNL     1      25.806  45.105  52.205  1.00  0.00     0.020 A 
HETATM   10  C   UNL     1      25.567  45.657  50.932  1.00  0.00    -0.032 A 
HETATM   11  C   UNL     1      25.840  44.877  49.797  1.00  0.00     0.011 A 
HETATM   12  C   UNL     1      26.368  43.594  49.932  1.00  0.00     0.038 A 
ENDROOT
BRANCH  10  13
HETATM   13  C   UNL     1      25.071  47.073  50.772  1.00  0.00     0.273 C 
BRANCH  13  14
HETATM   14  N   UNL     1      24.327  47.346  49.481  1.00  0.00    -0.067 N 
HETATM   15  H   UNL     1      24.967  47.102  48.712  1.00  0.00     0.280 HD
HETATM   16  C   UNL     1      23.097  46.483  49.336  1.00  0.00     0.238 C 
HETATM   17  C   UNL     1      22.343  46.828  48.060  1.00  0.00     0.071 C 
HETATM   18  C   UNL     1      21.962  48.320  47.975  1.00  0.00     0.089 C 
HETATM   19  C   UNL     1      23.289  49.102  48.058  1.00  0.00     0.071 C 
HETATM   20  C   UNL     1      24.024  48.824  49.356  1.00  0.00     0.238 C 
BRANCH  18  21
HETATM   21  O   UNL     1      21.452  48.529  46.658  1.00  0.00    -0.385 OA
HETATM   22  H   UNL     1      21.291  47.674  46.216  1.00  0.00     0.211 HD
ENDBRANCH  18  21
BRANCH  18  23
HETATM   23  C   UNL     1      20.915  48.795  48.978  1.00  0.00    -0.006 A 
HETATM   24  C   UNL     1      19.861  47.988  49.406  1.00  0.00     0.126 A 
HETATM   25  N   UNL     1      18.953  48.336  50.344  1.00  0.00    -0.272 NA
HETATM   26  C   UNL     1      19.021  49.589  50.834  1.00  0.00     0.116 A 
HETATM   27  C   UNL     1      19.977  50.502  50.438  1.00  0.00     0.020 A 
HETATM   28  C   UNL     1      20.928  50.100  49.499  1.00  0.00     0.013 A 
ENDBRANCH  18  23
ENDBRANCH  13  14
ENDBRANCH  10  13
BRANCH   1  29
HETATM   29  C   UNL     1      28.970  44.085  54.036  1.00  0.00     0.276 C 
BRANCH  29  30
HETATM   30  C   UNL     1      29.813  44.230  55.281  1.00  0.00     0.001 A 
HETATM   31  C   UNL     1      29.831  45.439  56.009  1.00  0.00     0.077 A 
HETATM   32  C   UNL     1      30.613  45.539  57.162  1.00  0.00     0.037 A 
HETATM   33  C   UNL     1      31.376  44.453  57.596  1.00  0.00     0.003 A 
HETATM   34  C   UNL     1      31.381  43.266  56.872  1.00  0.00     0.001 A 
HETATM   35  C   UNL     1      30.614  43.156  55.714  1.00  0.00     0.012 A 
BRANCH  31  36
HETATM   36  O   UNL     1      29.056  46.447  55.502  1.00  0.00    -0.347 OA
BRANCH  36  37
HETATM   37  C   UNL     1      27.764  46.707  56.058  1.00  0.00     0.202 C 
BRANCH  37  38
HETATM   38  C   UNL     1      26.850  47.332  55.055  1.00  0.00    -0.011 C 
HETATM   39  C   UNL     1      26.248  48.519  55.216  1.00  0.00     0.009 C 
ENDBRANCH  37  38
ENDBRANCH  36  37
ENDBRANCH  31  36
ENDBRANCH  29  30
ENDBRANCH   1  29
TORSDOF 9
ENDMDL
MODEL 2
REMARK VINA RESULT:      -9.3      2.834      5.786
REMARK  9 active torsions:
REMARK  status: ('A' for Active; 'I' for Inactive)
REMARK    1  A    between atoms: C_2  and  C_3 
REMARK    2  A    between atoms: C_3  and  O_4 
REMARK    3  A    between atoms: O_4  and  C_5 
REMARK    4  A    between atoms: C_6  and  C_7 
REMARK    5  A    between atoms: C_7  and  N_8 
REMARK    6  A    between atoms: C_17  and  C_18 
REMARK    7  A    between atoms: C_18  and  N_19 
REMARK    8  A    between atoms: C_23  and  O_24 
REMARK    9  A    between atoms: C_23  and  C_25 
ROOT
HETATM    1  N   UNL     1      25.254  46.673  50.376  1.00  0.00    -0.061 N 
HETATM    2  H   UNL     1      25.278  45.649  50.437  1.00  0.00     0.280 HD
HETATM    3  C   UNL     1      24.135  46.973  49.405  1.00  0.00     0.276 C 
HETATM    4  C   UNL     1      23.787  48.425  49.233  1.00  0.00     0.002 A 
HETATM    5  C   UNL     1      24.723  49.308  48.694  1.00  0.00     0.076 A 
HETATM    6  O   UNL     1      25.970  48.876  48.337  1.00  0.00    -0.349 OA
HETATM    7  C   UNL     1      26.758  48.541  49.489  1.00  0.00     0.203 C 
HETATM    8  C   UNL     1      26.626  47.055  49.838  1.00  0.00     0.262 C 
HETATM    9  C   UNL     1      22.515  48.923  49.574  1.00  0.00     0.020 A 
HETATM   10  C   UNL     1      22.190  50.280  49.385  1.00  0.00    -0.032 A 
HETATM   11  C   UNL     1      23.144  51.128  48.803  1.00  0.00     0.011 A 
HETATM   12  C   UNL     1      24.402  50.639  48.449  1.00  0.00     0.038 A 
ENDROOT
BRANCH  10  13
HETATM   13  C   UNL     1      20.862  50.838  49.838  1.00  0.00     0.273 C 
BRANCH  13  14
HETATM   14  N   UNL     1      19.651  50.212  49.178  1.00  0.00    -0.067 N 
HETATM   15  H   UNL     1      18.874  50.880  49.289  1.00  0.00     0.280 HD
HETATM   16  C   UNL     1      19.852  49.996  47.698  1.00  0.00     0.238 C 
HETATM   17  C   UNL     1      18.640  49.310  47.083  1.00  0.00     0.071 C 
HETATM   18  C   UNL     1      18.292  47.977  47.776  1.00  0.00     0.089 C 
HETATM   19  C   UNL     1      18.035  48.323  49.256  1.00  0.00     0.071 C 
HETATM   20  C   UNL     1      19.256  48.945  49.907  1.00  0.00     0.238 C 
BRANCH  18  21
HETATM   21  O   UNL     1      17.038  47.561  47.235  1.00  0.00    -0.385 OA
HETATM   22  H   UNL     1      17.158  46.790  46.649  1.00  0.00     0.211 HD
ENDBRANCH  18  21
BRANCH  18  23
HETATM   23  C   UNL     1      19.298  46.848  47.583  1.00  0.00    -0.006 A 
HETATM   24  C   UNL     1      19.090  45.559  48.074  1.00  0.00     0.126 A 
HETATM   25  N   UNL     1      19.915  44.510  47.867  1.00  0.00    -0.272 NA
HETATM   26  C   UNL     1      21.069  44.750  47.214  1.00  0.00     0.116 A 
HETATM   27  C   UNL     1      21.418  45.998  46.740  1.00  0.00     0.020 A 
HETATM   28  C   UNL     1      20.526  47.054  46.931  1.00  0.00     0.013 A 
ENDBRANCH  18  23
ENDBRANCH  13  14
ENDBRANCH  10  13
BRANCH   1  29
HETATM   29  C   UNL     1      25.018  47.142  51.803  1.00  0.00     0.276 C 
BRANCH  29  30
HETATM   30  C   UNL     1      25.776  46.367  52.854  1.00  0.00     0.001 A 
HETATM   31  C   UNL     1      25.575  44.980  53.019  1.00  0.00     0.077 A 
HETATM   32  C   UNL     1      26.299  44.288  53.994  1.00  0.00     0.037 A 
HETATM   33  C   UNL     1      27.216  44.961  54.804  1.00  0.00     0.003 A 
HETATM   34  C   UNL     1      27.404  46.331  54.662  1.00  0.00     0.001 A 
HETATM   35  C   UNL     1      26.681  47.035  53.701  1.00  0.00     0.012 A 
BRANCH  31  36
HETATM   36  O   UNL     1      24.652  44.412  52.183  1.00  0.00    -0.347 OA
BRANCH  36  37
HETATM   37  C   UNL     1      25.019  43.302  51.360  1.00  0.00     0.202 C 
BRANCH  37  38
HETATM   38  C   UNL     1      23.972  43.010  50.333  1.00  0.00    -0.011 C 
HETATM   39  C   UNL     1      22.803  43.658  50.238  1.00  0.00     0.009 C 
ENDBRANCH  37  38
ENDBRANCH  36  37
ENDBRANCH  31  36
ENDBRANCH  29  30
ENDBRANCH   1  29
TORSDOF 9
ENDMDL
MODEL 3
REMARK VINA RESULT:      -8.9      2.202      3.347
REMARK  9 active torsions:
REMARK  status: ('A' for Active; 'I' for Inactive)
REMARK    1  A    between atoms: C_2  and  C_3 
REMARK    2  A    between atoms: C_3  and  O_4 
REMARK    3  A    between atoms: O_4  and  C_5 
REMARK    4  A    between atoms: C_6  and  C_7 
REMARK    5  A    between atoms: C_7  and  N_8 
REMARK    6  A    between atoms: C_17  and  C_18 
REMARK    7  A    between atoms: C_18  and  N_19 
REMARK    8  A    between atoms: C_23  and  O_24 
REMARK    9  A    between atoms: C_23  and  C_25 
ROOT
HETATM    1  N   UNL     1      27.726  41.158  50.937  1.00  0.00    -0.061 N 
HETATM    2  H   UNL     1      28.162  40.733  51.763  1.00  0.00     0.280 HD
HETATM    3  C   UNL     1      26.247  40.896  51.106  1.00  0.00     0.276 C 
HETATM    4  C   UNL     1      25.346  41.540  50.089  1.00  0.00     0.002 A 
HETATM    5  C   UNL     1      25.434  41.171  48.747  1.00  0.00     0.076 A 
HETATM    6  O   UNL     1      26.348  40.243  48.331  1.00  0.00    -0.349 OA
HETATM    7  C   UNL     1      27.687  40.755  48.412  1.00  0.00     0.203 C 
HETATM    8  C   UNL     1      28.332  40.409  49.758  1.00  0.00     0.262 C 
HETATM    9  C   UNL     1      24.380  42.494  50.461  1.00  0.00     0.020 A 
HETATM   10  C   UNL     1      23.522  43.073  49.505  1.00  0.00    -0.032 A 
HETATM   11  C   UNL     1      23.614  42.646  48.172  1.00  0.00     0.011 A 
HETATM   12  C   UNL     1      24.559  41.691  47.798  1.00  0.00     0.038 A 
ENDROOT
BRANCH  10  13
HETATM   13  C   UNL     1      22.552  44.164  49.884  1.00  0.00     0.273 C 
BRANCH  13  14
HETATM   14  N   UNL     1      21.916  44.885  48.712  1.00  0.00    -0.067 N 
HETATM   15  H   UNL     1      22.142  44.337  47.869  1.00  0.00     0.280 HD
HETATM   16  C   UNL     1      20.412  44.942  48.823  1.00  0.00     0.238 C 
HETATM   17  C   UNL     1      19.815  45.726  47.664  1.00  0.00     0.071 C 
HETATM   18  C   UNL     1      20.397  47.149  47.540  1.00  0.00     0.089 C 
HETATM   19  C   UNL     1      21.917  46.971  47.357  1.00  0.00     0.071 C 
HETATM   20  C   UNL     1      22.544  46.252  48.537  1.00  0.00     0.238 C 
BRANCH  18  21
HETATM   21  O   UNL     1      19.901  47.678  46.310  1.00  0.00    -0.385 OA
HETATM   22  H   UNL     1      19.302  47.039  45.881  1.00  0.00     0.211 HD
ENDBRANCH  18  21
BRANCH  18  23
HETATM   23  C   UNL     1      20.030  48.114  48.662  1.00  0.00    -0.006 A 
HETATM   24  C   UNL     1      20.747  49.284  48.916  1.00  0.00     0.126 A 
HETATM   25  N   UNL     1      20.419  50.204  49.849  1.00  0.00    -0.272 NA
HETATM   26  C   UNL     1      19.374  49.925  50.652  1.00  0.00     0.116 A 
HETATM   27  C   UNL     1      18.629  48.768  50.543  1.00  0.00     0.020 A 
HETATM   28  C   UNL     1      18.965  47.856  49.542  1.00  0.00     0.013 A 
ENDBRANCH  18  23
ENDBRANCH  13  14
ENDBRANCH  10  13
BRANCH   1  29
HETATM   29  C   UNL     1      28.136  42.622  50.992  1.00  0.00     0.276 C 
BRANCH  29  30
HETATM   30  C   UNL     1      28.597  43.096  52.349  1.00  0.00     0.001 A 
HETATM   31  C   UNL     1      27.802  43.968  53.123  1.00  0.00     0.077 A 
HETATM   32  C   UNL     1      28.251  44.380  54.380  1.00  0.00     0.037 A 
HETATM   33  C   UNL     1      29.480  43.937  54.872  1.00  0.00     0.003 A 
HETATM   34  C   UNL     1      30.280  43.096  54.106  1.00  0.00     0.001 A 
HETATM   35  C   UNL     1      29.848  42.685  52.847  1.00  0.00     0.012 A 
BRANCH  31  36
HETATM   36  O   UNL     1      26.617  44.351  52.553  1.00  0.00    -0.347 OA
BRANCH  36  37
HETATM   37  C   UNL     1      26.342  45.738  52.338  1.00  0.00     0.202 C 
BRANCH  37  38
HETATM   38  C   UNL     1      25.698  45.969  51.008  1.00  0.00    -0.011 C 
HETATM   39  C   UNL     1      26.254  45.649  49.832  1.00  0.00     0.009 C 
ENDBRANCH  37  38
ENDBRANCH  36  37
ENDBRANCH  31  36
ENDBRANCH  29  30
ENDBRANCH   1  29
TORSDOF 9
ENDMDL
MODEL 4
REMARK VINA RESULT:      -8.9      2.102     10.073
REMARK  9 active torsions:
REMARK  status: ('A' for Active; 'I' for Inactive)
REMARK    1  A    between atoms: C_2  and  C_3 
REMARK    2  A    between atoms: C_3  and  O_4 
REMARK    3  A    between atoms: O_4  and  C_5 
REMARK    4  A    between atoms: C_6  and  C_7 
REMARK    5  A    between atoms: C_7  and  N_8 
REMARK    6  A    between atoms: C_17  and  C_18 
REMARK    7  A    between atoms: C_18  and  N_19 
REMARK    8  A    between atoms: C_23  and  O_24 
REMARK    9  A    between atoms: C_23  and  C_25 
ROOT
HETATM    1  N   UNL     1      19.910  47.665  47.711  1.00  0.00    -0.061 N 
HETATM    2  H   UNL     1      19.670  48.447  47.092  1.00  0.00     0.280 HD
HETATM    3  C   UNL     1      21.300  47.251  47.284  1.00  0.00     0.276 C 
HETATM    4  C   UNL     1      21.959  46.197  48.129  1.00  0.00     0.002 A 
HETATM    5  C   UNL     1      21.412  44.916  48.199  1.00  0.00     0.076 A 
HETATM    6  O   UNL     1      20.264  44.604  47.526  1.00  0.00    -0.349 OA
HETATM    7  C   UNL     1      19.125  45.263  48.101  1.00  0.00     0.203 C 
HETATM    8  C   UNL     1      18.857  46.607  47.415  1.00  0.00     0.262 C 
HETATM    9  C   UNL     1      23.148  46.458  48.836  1.00  0.00     0.020 A 
HETATM   10  C   UNL     1      23.774  45.457  49.605  1.00  0.00    -0.032 A 
HETATM   11  C   UNL     1      23.215  44.170  49.618  1.00  0.00     0.011 A 
HETATM   12  C   UNL     1      22.045  43.900  48.908  1.00  0.00     0.038 A 
ENDROOT
BRANCH  10  13
HETATM   13  C   UNL     1      24.993  45.758  50.440  1.00  0.00     0.273 C 
BRANCH  13  14
HETATM   14  N   UNL     1      25.456  44.619  51.325  1.00  0.00    -0.067 N 
HETATM   15  H   UNL     1      24.991  43.767  50.980  1.00  0.00     0.280 HD
HETATM   16  C   UNL     1      26.945  44.390  51.231  1.00  0.00     0.238 C 
HETATM   17  C   UNL     1      27.381  43.282  52.179  1.00  0.00     0.071 C 
HETATM   18  C   UNL     1      26.972  43.550  53.642  1.00  0.00     0.089 C 
HETATM   19  C   UNL     1      25.437  43.693  53.633  1.00  0.00     0.071 C 
HETATM   20  C   UNL     1      24.985  44.839  52.747  1.00  0.00     0.238 C 
BRANCH  18  21
HETATM   21  O   UNL     1      27.262  42.353  54.364  1.00  0.00    -0.385 OA
HETATM   22  H   UNL     1      27.203  41.577  53.775  1.00  0.00     0.211 HD
ENDBRANCH  18  21
BRANCH  18  23
HETATM   23  C   UNL     1      27.686  44.711  54.327  1.00  0.00    -0.006 A 
HETATM   24  C   UNL     1      27.139  45.991  54.406  1.00  0.00     0.126 A 
HETATM   25  N   UNL     1      27.697  47.031  55.063  1.00  0.00    -0.272 NA
HETATM   26  C   UNL     1      28.916  46.838  55.604  1.00  0.00     0.116 A 
HETATM   27  C   UNL     1      29.589  45.635  55.531  1.00  0.00     0.020 A 
HETATM   28  C   UNL     1      28.968  44.566  54.884  1.00  0.00     0.013 A 
ENDBRANCH  18  23
ENDBRANCH  13  14
ENDBRANCH  10  13
BRANCH   1  29
HETATM   29  C   UNL     1      19.807  48.236  49.117  1.00  0.00     0.276 C 
BRANCH  29  30
HETATM   30  C   UNL     1      19.329  49.667  49.181  1.00  0.00     0.001 A 
HETATM   31  C   UNL     1      20.151  50.728  48.745  1.00  0.00     0.077 A 
HETATM   32  C   UNL     1      19.676  52.040  48.807  1.00  0.00     0.037 A 
HETATM   33  C   UNL     1      18.397  52.307  49.299  1.00  0.00     0.003 A 
HETATM   34  C   UNL     1      17.589  51.270  49.752  1.00  0.00     0.001 A 
HETATM   35  C   UNL     1      18.054  49.957  49.705  1.00  0.00     0.012 A 
BRANCH  31  36
HETATM   36  O   UNL     1      21.389  50.368  48.286  1.00  0.00    -0.347 OA
BRANCH  36  37
HETATM   37  C   UNL     1      22.565  50.904  48.898  1.00  0.00     0.202 C 
BRANCH  37  38
HETATM   38  C   UNL     1      23.741  50.842  47.977  1.00  0.00    -0.011 C 
HETATM   39  C   UNL     1      24.668  49.876  47.997  1.00  0.00     0.009 C 
ENDBRANCH  37  38
ENDBRANCH  36  37
ENDBRANCH  31  36
ENDBRANCH  29  30
ENDBRANCH   1  29
TORSDOF 9
ENDMDL
MODEL 5
REMARK VINA RESULT:      -8.8      4.497      9.883
REMARK  9 active torsions:
REMARK  status: ('A' for Active; 'I' for Inactive)
REMARK    1  A    between atoms: C_2  and  C_3 
REMARK    2  A    between atoms: C_3  and  O_4 
REMARK    3  A    between atoms: O_4  and  C_5 
REMARK    4  A    between atoms: C_6  and  C_7 
REMARK    5  A    between atoms: C_7  and  N_8 
REMARK    6  A    between atoms: C_17  and  C_18 
REMARK    7  A    between atoms: C_18  and  N_19 
REMARK    8  A    between atoms: C_23  and  O_24 
REMARK    9  A    between atoms: C_23  and  C_25 
ROOT
HETATM    1  N   UNL     1      18.658  48.870  47.479  1.00  0.00    -0.061 N 
HETATM    2  H   UNL     1      18.757  49.872  47.279  1.00  0.00     0.280 HD
HETATM    3  C   UNL     1      19.216  48.179  46.256  1.00  0.00     0.276 C 
HETATM    4  C   UNL     1      19.321  46.681  46.339  1.00  0.00     0.002 A 
HETATM    5  C   UNL     1      18.167  45.907  46.464  1.00  0.00     0.076 A 
HETATM    6  O   UNL     1      16.933  46.491  46.535  1.00  0.00    -0.349 OA
HETATM    7  C   UNL     1      16.755  47.189  47.777  1.00  0.00     0.203 C 
HETATM    8  C   UNL     1      17.161  48.661  47.650  1.00  0.00     0.262 C 
HETATM    9  C   UNL     1      20.563  46.025  46.261  1.00  0.00     0.020 A 
HETATM   10  C   UNL     1      20.650  44.620  46.314  1.00  0.00    -0.032 A 
HETATM   11  C   UNL     1      19.464  43.875  46.399  1.00  0.00     0.011 A 
HETATM   12  C   UNL     1      18.228  44.517  46.463  1.00  0.00     0.038 A 
ENDROOT
BRANCH  10  13
HETATM   13  C   UNL     1      21.985  43.918  46.327  1.00  0.00     0.273 C 
BRANCH  13  14
HETATM   14  N   UNL     1      22.386  43.336  47.668  1.00  0.00    -0.067 N 
HETATM   15  H   UNL     1      21.767  42.530  47.839  1.00  0.00     0.280 HD
HETATM   16  C   UNL     1      23.805  42.824  47.669  1.00  0.00     0.238 C 
HETATM   17  C   UNL     1      24.191  42.306  49.047  1.00  0.00     0.071 C 
HETATM   18  C   UNL     1      24.002  43.360  50.157  1.00  0.00     0.089 C 
HETATM   19  C   UNL     1      22.513  43.756  50.116  1.00  0.00     0.071 C 
HETATM   20  C   UNL     1      22.124  44.340  48.771  1.00  0.00     0.238 C 
BRANCH  18  21
HETATM   21  O   UNL     1      24.204  42.677  51.395  1.00  0.00    -0.385 OA
HETATM   22  H   UNL     1      24.143  43.301  52.142  1.00  0.00     0.211 HD
ENDBRANCH  18  21
BRANCH  18  23
HETATM   23  C   UNL     1      24.949  44.554  50.105  1.00  0.00    -0.006 A 
HETATM   24  C   UNL     1      26.221  44.484  49.537  1.00  0.00     0.126 A 
HETATM   25  N   UNL     1      27.066  45.529  49.402  1.00  0.00    -0.272 NA
HETATM   26  C   UNL     1      26.684  46.705  49.937  1.00  0.00     0.116 A 
HETATM   27  C   UNL     1      25.479  46.881  50.585  1.00  0.00     0.020 A 
HETATM   28  C   UNL     1      24.608  45.794  50.671  1.00  0.00     0.013 A 
ENDBRANCH  18  23
ENDBRANCH  13  14
ENDBRANCH  10  13
BRANCH   1  29
HETATM   29  C   UNL     1      19.445  48.651  48.763  1.00  0.00     0.276 C 
BRANCH  29  30
HETATM   30  C   UNL     1      20.828  49.258  48.764  1.00  0.00     0.001 A 
HETATM   31  C   UNL     1      21.007  50.656  48.722  1.00  0.00     0.077 A 
HETATM   32  C   UNL     1      22.299  51.188  48.735  1.00  0.00     0.037 A 
HETATM   33  C   UNL     1      23.411  50.344  48.787  1.00  0.00     0.003 A 
HETATM   34  C   UNL     1      23.242  48.964  48.806  1.00  0.00     0.001 A 
HETATM   35  C   UNL     1      21.960  48.421  48.783  1.00  0.00     0.012 A 
BRANCH  31  36
HETATM   36  O   UNL     1      19.859  51.399  48.666  1.00  0.00    -0.347 OA
BRANCH  36  37
HETATM   37  C   UNL     1      19.224  51.829  49.874  1.00  0.00     0.202 C 
BRANCH  37  38
HETATM   38  C   UNL     1      17.735  51.771  49.762  1.00  0.00    -0.011 C 
HETATM   39  C   UNL     1      16.931  52.842  49.792  1.00  0.00     0.009 C 
ENDBRANCH  37  38
ENDBRANCH  36  37
ENDBRANCH  31  36
ENDBRANCH  29  30
ENDBRANCH   1  29
TORSDOF 9
ENDMDL
MODEL 6
REMARK VINA RESULT:      -8.7      2.658      4.683
REMARK  9 active torsions:
REMARK  status: ('A' for Active; 'I' for Inactive)
REMARK    1  A    between atoms: C_2  and  C_3 
REMARK    2  A    between atoms: C_3  and  O_4 
REMARK    3  A    between atoms: O_4  and  C_5 
REMARK    4  A    between atoms: C_6  and  C_7 
REMARK    5  A    between atoms: C_7  and  N_8 
REMARK    6  A    between atoms: C_17  and  C_18 
REMARK    7  A    between atoms: C_18  and  N_19 
REMARK    8  A    between atoms: C_23  and  O_24 
REMARK    9  A    between atoms: C_23  and  C_25 
ROOT
HETATM    1  N   UNL     1      25.122  42.682  51.000  1.00  0.00    -0.061 N 
HETATM    2  H   UNL     1      25.243  42.487  52.000  1.00  0.00     0.280 HD
HETATM    3  C   UNL     1      23.700  43.182  50.877  1.00  0.00     0.276 C 
HETATM    4  C   UNL     1      23.295  43.677  49.517  1.00  0.00     0.002 A 
HETATM    5  C   UNL     1      23.262  42.797  48.435  1.00  0.00     0.076 A 
HETATM    6  O   UNL     1      23.617  41.485  48.586  1.00  0.00    -0.349 OA
HETATM    7  C   UNL     1      25.026  41.348  48.821  1.00  0.00     0.203 C 
HETATM    8  C   UNL     1      25.340  41.337  50.321  1.00  0.00     0.262 C 
HETATM    9  C   UNL     1      22.910  45.015  49.304  1.00  0.00     0.020 A 
HETATM   10  C   UNL     1      22.507  45.464  48.032  1.00  0.00    -0.032 A 
HETATM   11  C   UNL     1      22.449  44.538  46.978  1.00  0.00     0.011 A 
HETATM   12  C   UNL     1      22.815  43.209  47.184  1.00  0.00     0.038 A 
ENDROOT
BRANCH  10  13
HETATM   13  C   UNL     1      22.187  46.916  47.779  1.00  0.00     0.273 C 
BRANCH  13  14
HETATM   14  N   UNL     1      21.352  47.581  48.854  1.00  0.00    -0.067 N 
HETATM   15  H   UNL     1      21.689  47.218  49.758  1.00  0.00     0.280 HD
HETATM   16  C   UNL     1      21.531  49.079  48.875  1.00  0.00     0.238 C 
HETATM   17  C   UNL     1      20.632  49.716  49.924  1.00  0.00     0.071 C 
HETATM   18  C   UNL     1      19.144  49.358  49.734  1.00  0.00     0.089 C 
HETATM   19  C   UNL     1      19.066  47.820  49.804  1.00  0.00     0.071 C 
HETATM   20  C   UNL     1      19.902  47.166  48.721  1.00  0.00     0.238 C 
BRANCH  18  21
HETATM   21  O   UNL     1      18.464  49.850  50.889  1.00  0.00    -0.385 OA
HETATM   22  H   UNL     1      17.828  50.547  50.639  1.00  0.00     0.211 HD
ENDBRANCH  18  21
BRANCH  18  23
HETATM   23  C   UNL     1      18.475  49.943  48.495  1.00  0.00    -0.006 A 
HETATM   24  C   UNL     1      17.385  49.338  47.869  1.00  0.00     0.126 A 
HETATM   25  N   UNL     1      16.714  49.854  46.816  1.00  0.00    -0.272 NA
HETATM   26  C   UNL     1      17.192  50.992  46.276  1.00  0.00     0.116 A 
HETATM   27  C   UNL     1      18.304  51.646  46.764  1.00  0.00     0.020 A 
HETATM   28  C   UNL     1      18.951  51.113  47.880  1.00  0.00     0.013 A 
ENDBRANCH  18  23
ENDBRANCH  13  14
ENDBRANCH  10  13
BRANCH   1  29
HETATM   29  C   UNL     1      26.200  43.703  50.670  1.00  0.00     0.276 C 
BRANCH  29  30
HETATM   30  C   UNL     1      26.290  44.858  51.639  1.00  0.00     0.001 A 
HETATM   31  C   UNL     1      26.725  44.660  52.966  1.00  0.00     0.077 A 
HETATM   32  C   UNL     1      26.808  45.751  53.835  1.00  0.00     0.037 A 
HETATM   33  C   UNL     1      26.460  47.031  53.400  1.00  0.00     0.003 A 
HETATM   34  C   UNL     1      26.008  47.230  52.100  1.00  0.00     0.001 A 
HETATM   35  C   UNL     1      25.912  46.150  51.225  1.00  0.00     0.012 A 
BRANCH  31  36
HETATM   36  O   UNL     1      27.038  43.370  53.301  1.00  0.00    -0.347 OA
BRANCH  36  37
HETATM   37  C   UNL     1      27.917  43.108  54.398  1.00  0.00     0.202 C 
BRANCH  37  38
HETATM   38  C   UNL     1      29.351  43.193  53.985  1.00  0.00    -0.011 C 
HETATM   39  C   UNL     1      30.382  43.261  54.839  1.00  0.00     0.009 C 
ENDBRANCH  37  38
ENDBRANCH  36  37
ENDBRANCH  31  36
ENDBRANCH  29  30
ENDBRANCH   1  29
TORSDOF 9
ENDMDL
MODEL 7
REMARK VINA RESULT:      -8.7      2.698      3.880
REMARK  9 active torsions:
REMARK  status: ('A' for Active; 'I' for Inactive)
REMARK    1  A    between atoms: C_2  and  C_3 
REMARK    2  A    between atoms: C_3  and  O_4 
REMARK    3  A    between atoms: O_4  and  C_5 
REMARK    4  A    between atoms: C_6  and  C_7 
REMARK    5  A    between atoms: C_7  and  N_8 
REMARK    6  A    between atoms: C_17  and  C_18 
REMARK    7  A    between atoms: C_18  and  N_19 
REMARK    8  A    between atoms: C_23  and  O_24 
REMARK    9  A    between atoms: C_23  and  C_25 
ROOT
HETATM    1  N   UNL     1      25.748  42.257  51.287  1.00  0.00    -0.061 N 
HETATM    2  H   UNL     1      25.845  41.966  52.266  1.00  0.00     0.280 HD
HETATM    3  C   UNL     1      24.328  42.762  51.177  1.00  0.00     0.276 C 
HETATM    4  C   UNL     1      23.954  43.387  49.862  1.00  0.00     0.002 A 
HETATM    5  C   UNL     1      23.953  42.617  48.698  1.00  0.00     0.076 A 
HETATM    6  O   UNL     1      24.312  41.298  48.729  1.00  0.00    -0.349 OA
HETATM    7  C   UNL     1      25.716  41.143  48.985  1.00  0.00     0.203 C 
HETATM    8  C   UNL     1      25.992  40.987  50.485  1.00  0.00     0.262 C 
HETATM    9  C   UNL     1      23.566  44.737  49.772  1.00  0.00     0.020 A 
HETATM   10  C   UNL     1      23.192  45.308  48.539  1.00  0.00    -0.032 A 
HETATM   11  C   UNL     1      23.166  44.490  47.399  1.00  0.00     0.011 A 
HETATM   12  C   UNL     1      23.535  43.148  47.483  1.00  0.00     0.038 A 
ENDROOT
BRANCH  10  13
HETATM   13  C   UNL     1      22.870  46.777  48.422  1.00  0.00     0.273 C 
BRANCH  13  14
HETATM   14  N   UNL     1      21.520  47.179  48.980  1.00  0.00    -0.067 N 
HETATM   15  H   UNL     1      21.492  46.851  49.956  1.00  0.00     0.280 HD
HETATM   16  C   UNL     1      21.332  48.677  49.002  1.00  0.00     0.238 C 
HETATM   17  C   UNL     1      19.944  49.039  49.509  1.00  0.00     0.071 C 
HETATM   18  C   UNL     1      18.816  48.370  48.696  1.00  0.00     0.089 C 
HETATM   19  C   UNL     1      19.060  46.852  48.802  1.00  0.00     0.071 C 
HETATM   20  C   UNL     1      20.413  46.460  48.237  1.00  0.00     0.238 C 
BRANCH  18  21
HETATM   21  O   UNL     1      17.604  48.634  49.402  1.00  0.00    -0.385 OA
HETATM   22  H   UNL     1      17.624  48.216  50.283  1.00  0.00     0.211 HD
ENDBRANCH  18  21
BRANCH  18  23
HETATM   23  C   UNL     1      18.655  48.860  47.261  1.00  0.00    -0.006 A 
HETATM   24  C   UNL     1      18.239  48.028  46.222  1.00  0.00     0.126 A 
HETATM   25  N   UNL     1      18.012  48.431  44.953  1.00  0.00    -0.272 NA
HETATM   26  C   UNL     1      18.296  49.712  44.651  1.00  0.00     0.116 A 
HETATM   27  C   UNL     1      18.779  50.614  45.577  1.00  0.00     0.020 A 
HETATM   28  C   UNL     1      18.962  50.180  46.891  1.00  0.00     0.013 A 
ENDBRANCH  18  23
ENDBRANCH  13  14
ENDBRANCH  10  13
BRANCH   1  29
HETATM   29  C   UNL     1      26.828  43.310  51.086  1.00  0.00     0.276 C 
BRANCH  29  30
HETATM   30  C   UNL     1      27.780  43.464  52.248  1.00  0.00     0.001 A 
HETATM   31  C   UNL     1      27.418  44.210  53.389  1.00  0.00     0.077 A 
HETATM   32  C   UNL     1      28.317  44.325  54.453  1.00  0.00     0.037 A 
HETATM   33  C   UNL     1      29.569  43.711  54.390  1.00  0.00     0.003 A 
HETATM   34  C   UNL     1      29.942  42.994  53.260  1.00  0.00     0.001 A 
HETATM   35  C   UNL     1      29.059  42.878  52.188  1.00  0.00     0.012 A 
BRANCH  31  36
HETATM   36  O   UNL     1      26.173  44.779  53.354  1.00  0.00    -0.347 OA
BRANCH  36  37
HETATM   37  C   UNL     1      26.028  46.193  53.509  1.00  0.00     0.202 C 
BRANCH  37  38
HETATM   38  C   UNL     1      25.439  46.822  52.287  1.00  0.00    -0.011 C 
HETATM   39  C   UNL     1      26.114  47.045  51.151  1.00  0.00     0.009 C 
ENDBRANCH  37  38
ENDBRANCH  36  37
ENDBRANCH  31  36
ENDBRANCH  29  30
ENDBRANCH   1  29
TORSDOF 9
ENDMDL
MODEL 8
REMARK VINA RESULT:      -8.6      2.513      4.350
REMARK  9 active torsions:
REMARK  status: ('A' for Active; 'I' for Inactive)
REMARK    1  A    between atoms: C_2  and  C_3 
REMARK    2  A    between atoms: C_3  and  O_4 
REMARK    3  A    between atoms: O_4  and  C_5 
REMARK    4  A    between atoms: C_6  and  C_7 
REMARK    5  A    between atoms: C_7  and  N_8 
REMARK    6  A    between atoms: C_17  and  C_18 
REMARK    7  A    between atoms: C_18  and  N_19 
REMARK    8  A    between atoms: C_23  and  O_24 
REMARK    9  A    between atoms: C_23  and  C_25 
ROOT
HETATM    1  N   UNL     1      25.747  42.531  51.204  1.00  0.00    -0.061 N 
HETATM    2  H   UNL     1      25.832  42.415  52.220  1.00  0.00     0.280 HD
HETATM    3  C   UNL     1      24.267  42.720  50.961  1.00  0.00     0.276 C 
HETATM    4  C   UNL     1      23.872  43.054  49.550  1.00  0.00     0.002 A 
HETATM    5  C   UNL     1      24.098  42.134  48.526  1.00  0.00     0.076 A 
HETATM    6  O   UNL     1      24.698  40.933  48.781  1.00  0.00    -0.349 OA
HETATM    7  C   UNL     1      26.085  41.101  49.111  1.00  0.00     0.203 C 
HETATM    8  C   UNL     1      26.283  41.229  50.626  1.00  0.00     0.262 C 
HETATM    9  C   UNL     1      23.240  44.271  49.230  1.00  0.00     0.020 A 
HETATM   10  C   UNL     1      22.849  44.564  47.909  1.00  0.00    -0.032 A 
HETATM   11  C   UNL     1      23.057  43.596  46.915  1.00  0.00     0.011 A 
HETATM   12  C   UNL     1      23.669  42.382  47.226  1.00  0.00     0.038 A 
ENDROOT
BRANCH  10  13
HETATM   13  C   UNL     1      22.260  45.905  47.546  1.00  0.00     0.273 C 
BRANCH  13  14
HETATM   14  N   UNL     1      20.760  45.906  47.337  1.00  0.00    -0.067 N 
HETATM   15  H   UNL     1      20.545  45.106  46.725  1.00  0.00     0.280 HD
HETATM   16  C   UNL     1      20.002  45.704  48.627  1.00  0.00     0.238 C 
HETATM   17  C   UNL     1      18.501  45.774  48.386  1.00  0.00     0.071 C 
HETATM   18  C   UNL     1      18.063  47.088  47.709  1.00  0.00     0.089 C 
HETATM   19  C   UNL     1      18.836  47.156  46.377  1.00  0.00     0.071 C 
HETATM   20  C   UNL     1      20.337  47.158  46.598  1.00  0.00     0.238 C 
BRANCH  18  21
HETATM   21  O   UNL     1      16.686  46.924  47.369  1.00  0.00    -0.385 OA
HETATM   22  H   UNL     1      16.328  46.114  47.780  1.00  0.00     0.211 HD
ENDBRANCH  18  21
BRANCH  18  23
HETATM   23  C   UNL     1      18.203  48.348  48.557  1.00  0.00    -0.006 A 
HETATM   24  C   UNL     1      18.297  48.315  49.948  1.00  0.00     0.126 A 
HETATM   25  N   UNL     1      18.494  49.395  50.735  1.00  0.00    -0.272 NA
HETATM   26  C   UNL     1      18.511  50.602  50.136  1.00  0.00     0.116 A 
HETATM   27  C   UNL     1      18.359  50.768  48.775  1.00  0.00     0.020 A 
HETATM   28  C   UNL     1      18.200  49.631  47.982  1.00  0.00     0.013 A 
ENDBRANCH  18  23
ENDBRANCH  13  14
ENDBRANCH  10  13
BRANCH   1  29
HETATM   29  C   UNL     1      26.618  43.735  50.877  1.00  0.00     0.276 C 
BRANCH  29  30
HETATM   30  C   UNL     1      26.622  44.813  51.935  1.00  0.00     0.001 A 
HETATM   31  C   UNL     1      27.294  44.625  53.161  1.00  0.00     0.077 A 
HETATM   32  C   UNL     1      27.288  45.645  54.116  1.00  0.00     0.037 A 
HETATM   33  C   UNL     1      26.621  46.845  53.864  1.00  0.00     0.003 A 
HETATM   34  C   UNL     1      25.938  47.030  52.668  1.00  0.00     0.001 A 
HETATM   35  C   UNL     1      25.927  46.017  51.711  1.00  0.00     0.012 A 
BRANCH  31  36
HETATM   36  O   UNL     1      27.913  43.414  53.317  1.00  0.00    -0.347 OA
BRANCH  36  37
HETATM   37  C   UNL     1      29.340  43.341  53.377  1.00  0.00     0.202 C 
BRANCH  37  38
HETATM   38  C   UNL     1      29.815  42.966  54.744  1.00  0.00    -0.011 C 
HETATM   39  C   UNL     1      30.712  43.665  55.452  1.00  0.00     0.009 C 
ENDBRANCH  37  38
ENDBRANCH  36  37
ENDBRANCH  31  36
ENDBRANCH  29  30
ENDBRANCH   1  29
TORSDOF 9
ENDMDL
MODEL 9
REMARK VINA RESULT:      -8.3      4.119      9.105
REMARK  9 active torsions:
REMARK  status: ('A' for Active; 'I' for Inactive)
REMARK    1  A    between atoms: C_2  and  C_3 
REMARK    2  A    between atoms: C_3  and  O_4 
REMARK    3  A    between atoms: O_4  and  C_5 
REMARK    4  A    between atoms: C_6  and  C_7 
REMARK    5  A    between atoms: C_7  and  N_8 
REMARK    6  A    between atoms: C_17  and  C_18 
REMARK    7  A    between atoms: C_18  and  N_19 
REMARK    8  A    between atoms: C_23  and  O_24 
REMARK    9  A    between atoms: C_23  and  C_25 
ROOT
HETATM    1  N   UNL     1      25.160  46.279  51.521  1.00  0.00    -0.061 N 
HETATM    2  H   UNL     1      24.320  46.802  51.249  1.00  0.00     0.280 HD
HETATM    3  C   UNL     1      24.662  44.883  51.817  1.00  0.00     0.276 C 
HETATM    4  C   UNL     1      25.722  43.858  52.112  1.00  0.00     0.002 A 
HETATM    5  C   UNL     1      26.531  43.995  53.240  1.00  0.00     0.076 A 
HETATM    6  O   UNL     1      26.391  45.066  54.078  1.00  0.00    -0.349 OA
HETATM    7  C   UNL     1      26.835  46.280  53.453  1.00  0.00     0.203 C 
HETATM    8  C   UNL     1      25.675  47.002  52.758  1.00  0.00     0.262 C 
HETATM    9  C   UNL     1      25.904  42.729  51.290  1.00  0.00     0.020 A 
HETATM   10  C   UNL     1      26.882  41.761  51.588  1.00  0.00    -0.032 A 
HETATM   11  C   UNL     1      27.648  41.914  52.754  1.00  0.00     0.011 A 
HETATM   12  C   UNL     1      27.464  43.021  53.580  1.00  0.00     0.038 A 
ENDROOT
BRANCH  10  13
HETATM   13  C   UNL     1      27.145  40.601  50.659  1.00  0.00     0.273 C 
BRANCH  13  14
HETATM   14  N   UNL     1      27.053  40.934  49.184  1.00  0.00    -0.067 N 
HETATM   15  H   UNL     1      26.892  41.950  49.118  1.00  0.00     0.280 HD
HETATM   16  C   UNL     1      28.334  40.630  48.447  1.00  0.00     0.238 C 
HETATM   17  C   UNL     1      28.183  40.918  46.960  1.00  0.00     0.071 C 
HETATM   18  C   UNL     1      27.005  40.156  46.320  1.00  0.00     0.089 C 
HETATM   19  C   UNL     1      25.746  40.594  47.095  1.00  0.00     0.071 C 
HETATM   20  C   UNL     1      25.848  40.252  48.569  1.00  0.00     0.238 C 
BRANCH  18  21
HETATM   21  O   UNL     1      26.865  40.674  44.997  1.00  0.00    -0.385 OA
HETATM   22  H   UNL     1      26.069  40.307  44.569  1.00  0.00     0.211 HD
ENDBRANCH  18  21
BRANCH  18  23
HETATM   23  C   UNL     1      27.166  38.642  46.230  1.00  0.00    -0.006 A 
HETATM   24  C   UNL     1      28.406  38.009  46.308  1.00  0.00     0.126 A 
HETATM   25  N   UNL     1      28.593  36.672  46.306  1.00  0.00    -0.272 NA
HETATM   26  C   UNL     1      27.507  35.896  46.125  1.00  0.00     0.116 A 
HETATM   27  C   UNL     1      26.235  36.408  45.967  1.00  0.00     0.020 A 
HETATM   28  C   UNL     1      26.067  37.792  46.016  1.00  0.00     0.013 A 
ENDBRANCH  18  23
ENDBRANCH  13  14
ENDBRANCH  10  13
BRANCH   1  29
HETATM   29  C   UNL     1      26.094  46.396  50.326  1.00  0.00     0.276 C 
BRANCH  29  30
HETATM   30  C   UNL     1      26.057  47.734  49.627  1.00  0.00     0.001 A 
HETATM   31  C   UNL     1      24.833  48.312  49.230  1.00  0.00     0.077 A 
HETATM   32  C   UNL     1      24.831  49.557  48.595  1.00  0.00     0.037 A 
HETATM   33  C   UNL     1      26.031  50.227  48.348  1.00  0.00     0.003 A 
HETATM   34  C   UNL     1      27.243  49.652  48.715  1.00  0.00     0.001 A 
HETATM   35  C   UNL     1      27.260  48.408  49.341  1.00  0.00     0.012 A 
BRANCH  31  36
HETATM   36  O   UNL     1      23.712  47.577  49.509  1.00  0.00    -0.347 OA
BRANCH  36  37
HETATM   37  C   UNL     1      22.749  47.321  48.483  1.00  0.00     0.202 C 
BRANCH  37  38
HETATM   38  C   UNL     1      21.412  47.893  48.830  1.00  0.00    -0.011 C 
HETATM   39  C   UNL     1      21.145  49.204  48.905  1.00  0.00     0.009 C 
ENDBRANCH  37  38
ENDBRANCH  36  37
ENDBRANCH  31  36
ENDBRANCH  29  30
ENDBRANCH   1  29
TORSDOF 9
ENDMDL
MODEL 10
REMARK VINA RESULT:      -8.0     14.162     17.571
REMARK  9 active torsions:
REMARK  status: ('A' for Active; 'I' for Inactive)
REMARK    1  A    between atoms: C_2  and  C_3 
REMARK    2  A    between atoms: C_3  and  O_4 
REMARK    3  A    between atoms: O_4  and  C_5 
REMARK    4  A    between atoms: C_6  and  C_7 
REMARK    5  A    between atoms: C_7  and  N_8 
REMARK    6  A    between atoms: C_17  and  C_18 
REMARK    7  A    between atoms: C_18  and  N_19 
REMARK    8  A    between atoms: C_23  and  O_24 
REMARK    9  A    between atoms: C_23  and  C_25 
ROOT
HETATM    1  N   UNL     1      30.834  48.087  40.380  1.00  0.00    -0.061 N 
HETATM    2  H   UNL     1      30.600  47.182  39.958  1.00  0.00     0.280 HD
HETATM    3  C   UNL     1      32.217  47.893  40.958  1.00  0.00     0.276 C 
HETATM    4  C   UNL     1      32.869  49.123  41.526  1.00  0.00     0.002 A 
HETATM    5  C   UNL     1      32.308  49.763  42.631  1.00  0.00     0.076 A 
HETATM    6  O   UNL     1      31.154  49.301  43.199  1.00  0.00    -0.349 OA
HETATM    7  C   UNL     1      30.025  49.517  42.339  1.00  0.00     0.203 C 
HETATM    8  C   UNL     1      29.768  48.299  41.445  1.00  0.00     0.262 C 
HETATM    9  C   UNL     1      34.064  49.637  40.989  1.00  0.00     0.020 A 
HETATM   10  C   UNL     1      34.682  50.775  41.543  1.00  0.00    -0.032 A 
HETATM   11  C   UNL     1      34.110  51.366  42.679  1.00  0.00     0.011 A 
HETATM   12  C   UNL     1      32.933  50.854  43.226  1.00  0.00     0.038 A 
ENDROOT
BRANCH  10  13
HETATM   13  C   UNL     1      35.910  51.385  40.912  1.00  0.00     0.273 C 
BRANCH  13  14
HETATM   14  N   UNL     1      35.855  52.889  40.738  1.00  0.00    -0.067 N 
HETATM   15  H   UNL     1      35.107  53.233  41.358  1.00  0.00     0.280 HD
HETATM   16  C   UNL     1      37.138  53.562  41.162  1.00  0.00     0.238 C 
HETATM   17  C   UNL     1      37.068  55.062  40.914  1.00  0.00     0.071 C 
HETATM   18  C   UNL     1      36.739  55.412  39.449  1.00  0.00     0.089 C 
HETATM   19  C   UNL     1      35.384  54.742  39.147  1.00  0.00     0.071 C 
HETATM   20  C   UNL     1      35.452  53.236  39.320  1.00  0.00     0.238 C 
BRANCH  18  21
HETATM   21  O   UNL     1      36.509  56.821  39.417  1.00  0.00    -0.385 OA
HETATM   22  H   UNL     1      35.966  57.095  40.179  1.00  0.00     0.211 HD
ENDBRANCH  18  21
BRANCH  18  23
HETATM   23  C   UNL     1      37.822  55.077  38.429  1.00  0.00    -0.006 A 
HETATM   24  C   UNL     1      39.182  55.097  38.739  1.00  0.00     0.126 A 
HETATM   25  N   UNL     1      40.173  54.739  37.893  1.00  0.00    -0.272 NA
HETATM   26  C   UNL     1      39.824  54.427  36.630  1.00  0.00     0.116 A 
HETATM   27  C   UNL     1      38.518  54.438  36.186  1.00  0.00     0.020 A 
HETATM   28  C   UNL     1      37.512  54.770  37.094  1.00  0.00     0.013 A 
ENDBRANCH  18  23
ENDBRANCH  13  14
ENDBRANCH  10  13
BRANCH   1  29
HETATM   29  C   UNL     1      30.744  49.084  39.234  1.00  0.00     0.276 C 
BRANCH  29  30
HETATM   30  C   UNL     1      29.337  49.414  38.797  1.00  0.00     0.001 A 
HETATM   31  C   UNL     1      28.880  50.748  38.766  1.00  0.00     0.077 A 
HETATM   32  C   UNL     1      27.576  51.022  38.346  1.00  0.00     0.037 A 
HETATM   33  C   UNL     1      26.724  49.984  37.961  1.00  0.00     0.003 A 
HETATM   34  C   UNL     1      27.160  48.665  38.010  1.00  0.00     0.001 A 
HETATM   35  C   UNL     1      28.455  48.377  38.436  1.00  0.00     0.012 A 
BRANCH  31  36
HETATM   36  O   UNL     1      29.785  51.694  39.167  1.00  0.00    -0.347 OA
BRANCH  36  37
HETATM   37  C   UNL     1      29.468  52.575  40.248  1.00  0.00     0.202 C 
BRANCH  37  38
HETATM   38  C   UNL     1      30.702  53.095  40.912  1.00  0.00    -0.011 C 
HETATM   39  C   UNL     1      31.924  53.073  40.363  1.00  0.00     0.009 C 
ENDBRANCH  37  38
ENDBRANCH  36  37
ENDBRANCH  31  36
ENDBRANCH  29  30
ENDBRANCH   1  29
TORSDOF 9
ENDMDL
