MODEL 1
REMARK VINA RESULT:      -9.3      0.000      0.000
REMARK  8 active torsions:
REMARK  status: ('A' for Active; 'I' for Inactive)
REMARK    1  A    between atoms: C_2  and  O_3 
REMARK    2  A    between atoms: O_3  and  C_4 
REMARK    3  A    between atoms: C_7  and  N_8 
REMARK       I    between atoms: N_8  and  C_9 
REMARK    4  A    between atoms: C_9  and  C_10 
REMARK    5  A    between atoms: C_10  and  N_11 
REMARK    6  A    between atoms: C_14  and  C_15 
REMARK       I    between atoms: C_15  and  N_16 
REMARK    7  A    between atoms: N_16  and  C_17 
REMARK    8  A    between atoms: C_25  and  N_26 
ROOT
HETATM    1  N   UNL     1      24.312  46.149  49.745  1.00  0.00    -0.248 N 
HETATM    2  N   UNL     1      24.761  47.279  50.334  1.00  0.00     0.007 NA
HETATM    3  N   UNL     1      23.923  48.254  50.013  1.00  0.00    -0.150 NA
HETATM    4  C   UNL     1      22.949  47.733  49.184  1.00  0.00     0.187 A 
HETATM    5  C   UNL     1      23.215  46.393  48.959  1.00  0.00     0.151 A 
ENDROOT
BRANCH   1   6
HETATM    6  C   UNL     1      24.906  44.885  50.104  1.00  0.00     0.251 C 
BRANCH   6   7
HETATM    7  C   UNL     1      26.224  45.056  50.819  1.00  0.00     0.241 C 
HETATM    8  N   UNL     1      26.115  45.060  52.201  1.00  0.00    -0.326 N 
HETATM    9  H   UNL     1      25.184  45.204  52.587  1.00  0.00     0.169 HD
HETATM   10  O   UNL     1      27.270  45.114  50.175  1.00  0.00    -0.271 OA
BRANCH   8  11
HETATM   11  C   UNL     1      27.164  44.956  53.138  1.00  0.00     0.034 A 
HETATM   12  C   UNL     1      28.054  43.885  53.191  1.00  0.00     0.032 A 
HETATM   13  C   UNL     1      29.034  43.830  54.188  1.00  0.00     0.039 A 
HETATM   14  C   UNL     1      29.148  44.844  55.139  1.00  0.00     0.068 A 
HETATM   15  C   UNL     1      28.266  45.921  55.087  1.00  0.00     0.039 A 
HETATM   16  C   UNL     1      27.277  45.972  54.095  1.00  0.00     0.032 A 
BRANCH  14  17
HETATM   17  O   UNL     1      30.141  44.656  56.059  1.00  0.00    -0.352 OA
BRANCH  17  18
HETATM   18  C   UNL     1      30.966  43.504  55.901  1.00  0.00     0.171 C 
HETATM   19  C   UNL     1      31.756  43.317  57.185  1.00  0.00     0.034 C 
ENDBRANCH  17  18
ENDBRANCH  14  17
ENDBRANCH   8  11
ENDBRANCH   6   7
ENDBRANCH   1   6
BRANCH   5  20
HETATM   20  N   UNL     1      22.587  45.445  48.223  1.00  0.00    -0.382 N 
HETATM   21  H   UNL     1      23.070  44.551  48.087  1.00  0.00     0.157 HD
HETATM   22  H   UNL     1      21.575  45.332  48.222  1.00  0.00     0.157 HD
ENDBRANCH   5  20
BRANCH   4  23
HETATM   23  C   UNL     1      21.834  48.524  48.675  1.00  0.00     0.280 C 
HETATM   24  N   UNL     1      21.398  49.462  49.593  1.00  0.00    -0.320 N 
HETATM   25  H   UNL     1      22.071  49.681  50.320  1.00  0.00     0.169 HD
HETATM   26  O   UNL     1      21.405  48.379  47.535  1.00  0.00    -0.265 OA
BRANCH  24  27
HETATM   27  C   UNL     1      20.265  50.299  49.482  1.00  0.00     0.057 A 
HETATM   28  C   UNL     1      19.023  50.095  50.109  1.00  0.00     0.060 A 
HETATM   29 CL   UNL     1      18.743  48.894  51.324  1.00  0.00    -0.082 Cl
HETATM   30  C   UNL     1      17.974  51.002  49.899  1.00  0.00     0.026 A 
HETATM   31  C   UNL     1      18.156  52.127  49.097  1.00  0.00     0.002 A 
HETATM   32  C   UNL     1      19.397  52.365  48.517  1.00  0.00     0.002 A 
HETATM   33  C   UNL     1      20.446  51.464  48.718  1.00  0.00     0.031 A 
ENDBRANCH  24  27
ENDBRANCH   4  23
TORSDOF 8
ENDMDL
MODEL 2
REMARK VINA RESULT:      -9.1      1.754      2.114
REMARK  8 active torsions:
REMARK  status: ('A' for Active; 'I' for Inactive)
REMARK    1  A    between atoms: C_2  and  O_3 
REMARK    2  A    between atoms: O_3  and  C_4 
REMARK    3  A    between atoms: C_7  and  N_8 
REMARK       I    between atoms: N_8  and  C_9 
REMARK    4  A    between atoms: C_9  and  C_10 
REMARK    5  A    between atoms: C_10  and  N_11 
REMARK    6  A    between atoms: C_14  and  C_15 
REMARK       I    between atoms: C_15  and  N_16 
REMARK    7  A    between atoms: N_16  and  C_17 
REMARK    8  A    between atoms: C_25  and  N_26 
ROOT
HETATM    1  N   UNL     1      24.635  45.560  50.844  1.00  0.00    -0.248 N 
HETATM    2  N   UNL     1      25.420  46.539  51.348  1.00  0.00     0.007 NA
HETATM    3  N   UNL     1      25.065  47.673  50.763  1.00  0.00    -0.150 NA
HETATM    4  C   UNL     1      24.062  47.398  49.855  1.00  0.00     0.187 A 
HETATM    5  C   UNL     1      23.811  46.036  49.857  1.00  0.00     0.151 A 
ENDROOT
BRANCH   1   6
HETATM    6  C   UNL     1      24.651  44.258  51.462  1.00  0.00     0.251 C 
BRANCH   6   7
HETATM    7  C   UNL     1      25.413  44.252  52.765  1.00  0.00     0.241 C 
HETATM    8  N   UNL     1      26.790  44.254  52.607  1.00  0.00    -0.326 N 
HETATM    9  H   UNL     1      27.146  44.007  51.686  1.00  0.00     0.169 HD
HETATM   10  O   UNL     1      24.806  44.308  53.832  1.00  0.00    -0.271 OA
BRANCH   8  11
HETATM   11  C   UNL     1      27.760  44.492  53.602  1.00  0.00     0.034 A 
HETATM   12  C   UNL     1      27.818  45.655  54.368  1.00  0.00     0.032 A 
HETATM   13  C   UNL     1      28.848  45.838  55.298  1.00  0.00     0.039 A 
HETATM   14  C   UNL     1      29.827  44.862  55.486  1.00  0.00     0.068 A 
HETATM   15  C   UNL     1      29.770  43.695  54.729  1.00  0.00     0.039 A 
HETATM   16  C   UNL     1      28.746  43.515  53.789  1.00  0.00     0.032 A 
BRANCH  14  17
HETATM   17  O   UNL     1      30.776  45.177  56.416  1.00  0.00    -0.352 OA
BRANCH  17  18
HETATM   18  C   UNL     1      30.886  44.321  57.552  1.00  0.00     0.171 C 
HETATM   19  C   UNL     1      32.009  43.335  57.285  1.00  0.00     0.034 C 
ENDBRANCH  17  18
ENDBRANCH  14  17
ENDBRANCH   8  11
ENDBRANCH   6   7
ENDBRANCH   1   6
BRANCH   5  20
HETATM   20  N   UNL     1      22.948  45.263  49.155  1.00  0.00    -0.382 N 
HETATM   21  H   UNL     1      23.195  44.277  49.020  1.00  0.00     0.157 HD
HETATM   22  H   UNL     1      21.939  45.400  49.186  1.00  0.00     0.157 HD
ENDBRANCH   5  20
BRANCH   4  23
HETATM   23  C   UNL     1      23.403  48.431  49.064  1.00  0.00     0.280 C 
HETATM   24  N   UNL     1      22.137  48.725  49.540  1.00  0.00    -0.320 N 
HETATM   25  H   UNL     1      21.974  48.438  50.499  1.00  0.00     0.169 HD
HETATM   26  O   UNL     1      23.967  48.990  48.129  1.00  0.00    -0.265 OA
BRANCH  24  27
HETATM   27  C   UNL     1      21.179  49.574  48.942  1.00  0.00     0.057 A 
HETATM   28  C   UNL     1      20.455  49.303  47.767  1.00  0.00     0.060 A 
HETATM   29 CL   UNL     1      20.446  47.764  46.975  1.00  0.00    -0.082 Cl
HETATM   30  C   UNL     1      19.540  50.245  47.274  1.00  0.00     0.026 A 
HETATM   31  C   UNL     1      19.316  51.441  47.954  1.00  0.00     0.002 A 
HETATM   32  C   UNL     1      19.987  51.692  49.145  1.00  0.00     0.002 A 
HETATM   33  C   UNL     1      20.903  50.761  49.640  1.00  0.00     0.031 A 
ENDBRANCH  24  27
ENDBRANCH   4  23
TORSDOF 8
ENDMDL
MODEL 3
REMARK VINA RESULT:      -9.1      2.562      3.523
REMARK  8 active torsions:
REMARK  status: ('A' for Active; 'I' for Inactive)
REMARK    1  A    between atoms: C_2  and  O_3 
REMARK    2  A    between atoms: O_3  and  C_4 
REMARK    3  A    between atoms: C_7  and  N_8 
REMARK       I    between atoms: N_8  and  C_9 
REMARK    4  A    between atoms: C_9  and  C_10 
REMARK    5  A    between atoms: C_10  and  N_11 
REMARK    6  A    between atoms: C_14  and  C_15 
REMARK       I    between atoms: C_15  and  N_16 
REMARK    7  A    between atoms: N_16  and  C_17 
REMARK    8  A    between atoms: C_25  and  N_26 
ROOT
HETATM    1  N   UNL     1      26.099  43.859  49.919  1.00  0.00    -0.248 N 
HETATM    2  N   UNL     1      27.105  44.587  49.385  1.00  0.00     0.007 NA
HETATM    3  N   UNL     1      26.729  45.857  49.401  1.00  0.00    -0.150 NA
HETATM    4  C   UNL     1      25.453  45.925  49.926  1.00  0.00     0.187 A 
HETATM    5  C   UNL     1      25.014  44.644  50.215  1.00  0.00     0.151 A 
ENDROOT
BRANCH   1   6
HETATM    6  C   UNL     1      26.325  42.470  50.231  1.00  0.00     0.251 C 
BRANCH   6   7
HETATM    7  C   UNL     1      27.208  42.291  51.441  1.00  0.00     0.241 C 
HETATM    8  N   UNL     1      27.890  43.440  51.811  1.00  0.00    -0.326 N 
HETATM    9  H   UNL     1      27.939  44.186  51.120  1.00  0.00     0.169 HD
HETATM   10  O   UNL     1      27.223  41.216  52.038  1.00  0.00    -0.271 OA
BRANCH   8  11
HETATM   11  C   UNL     1      28.589  43.665  53.014  1.00  0.00     0.034 A 
HETATM   12  C   UNL     1      28.213  44.615  53.963  1.00  0.00     0.032 A 
HETATM   13  C   UNL     1      28.993  44.815  55.109  1.00  0.00     0.039 A 
HETATM   14  C   UNL     1      30.150  44.068  55.329  1.00  0.00     0.068 A 
HETATM   15  C   UNL     1      30.526  43.113  54.388  1.00  0.00     0.039 A 
HETATM   16  C   UNL     1      29.752  42.918  53.235  1.00  0.00     0.032 A 
BRANCH  14  17
HETATM   17  O   UNL     1      30.818  44.376  56.480  1.00  0.00    -0.352 OA
BRANCH  17  18
HETATM   18  C   UNL     1      30.488  45.609  57.116  1.00  0.00     0.171 C 
HETATM   19  C   UNL     1      30.308  45.336  58.599  1.00  0.00     0.034 C 
ENDBRANCH  17  18
ENDBRANCH  14  17
ENDBRANCH   8  11
ENDBRANCH   6   7
ENDBRANCH   1   6
BRANCH   5  20
HETATM   20  N   UNL     1      23.853  44.166  50.725  1.00  0.00    -0.382 N 
HETATM   21  H   UNL     1      23.153  43.814  50.065  1.00  0.00     0.157 HD
HETATM   22  H   UNL     1      23.805  43.685  51.621  1.00  0.00     0.157 HD
ENDBRANCH   5  20
BRANCH   4  23
HETATM   23  C   UNL     1      24.746  47.184  50.133  1.00  0.00     0.280 C 
HETATM   24  N   UNL     1      23.931  47.506  49.062  1.00  0.00    -0.320 N 
HETATM   25  H   UNL     1      23.701  46.722  48.461  1.00  0.00     0.169 HD
HETATM   26  O   UNL     1      24.846  47.819  51.177  1.00  0.00    -0.265 OA
BRANCH  24  27
HETATM   27  C   UNL     1      23.210  48.706  48.873  1.00  0.00     0.057 A 
HETATM   28  C   UNL     1      23.755  49.946  48.494  1.00  0.00     0.060 A 
HETATM   29 CL   UNL     1      25.389  50.157  47.963  1.00  0.00    -0.082 Cl
HETATM   30  C   UNL     1      22.922  51.065  48.355  1.00  0.00     0.026 A 
HETATM   31  C   UNL     1      21.547  50.959  48.559  1.00  0.00     0.002 A 
HETATM   32  C   UNL     1      20.993  49.725  48.880  1.00  0.00     0.002 A 
HETATM   33  C   UNL     1      21.817  48.605  49.025  1.00  0.00     0.031 A 
ENDBRANCH  24  27
ENDBRANCH   4  23
TORSDOF 8
ENDMDL
MODEL 4
REMARK VINA RESULT:      -8.8      2.634     10.675
REMARK  8 active torsions:
REMARK  status: ('A' for Active; 'I' for Inactive)
REMARK    1  A    between atoms: C_2  and  O_3 
REMARK    2  A    between atoms: O_3  and  C_4 
REMARK    3  A    between atoms: C_7  and  N_8 
REMARK       I    between atoms: N_8  and  C_9 
REMARK    4  A    between atoms: C_9  and  C_10 
REMARK    5  A    between atoms: C_10  and  N_11 
REMARK    6  A    between atoms: C_14  and  C_15 
REMARK       I    between atoms: C_15  and  N_16 
REMARK    7  A    between atoms: N_16  and  C_17 
REMARK    8  A    between atoms: C_25  and  N_26 
ROOT
HETATM    1  N   UNL     1      23.885  46.965  49.804  1.00  0.00    -0.248 N 
HETATM    2  N   UNL     1      24.638  47.940  50.359  1.00  0.00     0.007 NA
HETATM    3  N   UNL     1      25.337  47.391  51.342  1.00  0.00    -0.150 NA
HETATM    4  C   UNL     1      24.995  46.056  51.424  1.00  0.00     0.187 A 
HETATM    5  C   UNL     1      24.023  45.778  50.477  1.00  0.00     0.151 A 
ENDROOT
BRANCH   1   6
HETATM    6  C   UNL     1      23.191  47.231  48.568  1.00  0.00     0.251 C 
BRANCH   6   7
HETATM    7  C   UNL     1      21.822  47.824  48.797  1.00  0.00     0.241 C 
HETATM    8  N   UNL     1      21.849  49.108  49.318  1.00  0.00    -0.326 N 
HETATM    9  H   UNL     1      22.729  49.419  49.725  1.00  0.00     0.169 HD
HETATM   10  O   UNL     1      20.818  47.197  48.467  1.00  0.00    -0.271 OA
BRANCH   8  11
HETATM   11  C   UNL     1      20.770  50.011  49.414  1.00  0.00     0.034 A 
HETATM   12  C   UNL     1      19.660  49.809  50.232  1.00  0.00     0.032 A 
HETATM   13  C   UNL     1      18.604  50.728  50.228  1.00  0.00     0.039 A 
HETATM   14  C   UNL     1      18.643  51.863  49.419  1.00  0.00     0.068 A 
HETATM   15  C   UNL     1      19.753  52.073  48.604  1.00  0.00     0.039 A 
HETATM   16  C   UNL     1      20.807  51.149  48.599  1.00  0.00     0.032 A 
BRANCH  14  17
HETATM   17  O   UNL     1      17.541  52.666  49.507  1.00  0.00    -0.352 OA
BRANCH  17  18
HETATM   18  C   UNL     1      16.312  52.143  49.008  1.00  0.00     0.171 C 
HETATM   19  C   UNL     1      15.183  52.740  49.831  1.00  0.00     0.034 C 
ENDBRANCH  17  18
ENDBRANCH  14  17
ENDBRANCH   8  11
ENDBRANCH   6   7
ENDBRANCH   1   6
BRANCH   5  20
HETATM   20  N   UNL     1      23.353  44.646  50.156  1.00  0.00    -0.382 N 
HETATM   21  H   UNL     1      23.716  44.081  49.382  1.00  0.00     0.157 HD
HETATM   22  H   UNL     1      22.878  44.073  50.853  1.00  0.00     0.157 HD
ENDBRANCH   5  20
BRANCH   4  23
HETATM   23  C   UNL     1      25.612  45.135  52.372  1.00  0.00     0.280 C 
HETATM   24  N   UNL     1      26.959  45.393  52.548  1.00  0.00    -0.320 N 
HETATM   25  H   UNL     1      27.248  46.323  52.264  1.00  0.00     0.169 HD
HETATM   26  O   UNL     1      24.959  44.284  52.967  1.00  0.00    -0.265 OA
BRANCH  24  27
HETATM   27  C   UNL     1      27.883  44.622  53.288  1.00  0.00     0.057 A 
HETATM   28  C   UNL     1      28.516  45.012  54.482  1.00  0.00     0.060 A 
HETATM   29 CL   UNL     1      28.087  46.426  55.381  1.00  0.00    -0.082 Cl
HETATM   30  C   UNL     1      29.428  44.148  55.107  1.00  0.00     0.026 A 
HETATM   31  C   UNL     1      29.695  42.888  54.574  1.00  0.00     0.002 A 
HETATM   32  C   UNL     1      29.033  42.474  53.424  1.00  0.00     0.002 A 
HETATM   33  C   UNL     1      28.126  43.329  52.793  1.00  0.00     0.031 A 
ENDBRANCH  24  27
ENDBRANCH   4  23
TORSDOF 8
ENDMDL
MODEL 5
REMARK VINA RESULT:      -8.8      3.130     10.719
REMARK  8 active torsions:
REMARK  status: ('A' for Active; 'I' for Inactive)
REMARK    1  A    between atoms: C_2  and  O_3 
REMARK    2  A    between atoms: O_3  and  C_4 
REMARK    3  A    between atoms: C_7  and  N_8 
REMARK       I    between atoms: N_8  and  C_9 
REMARK    4  A    between atoms: C_9  and  C_10 
REMARK    5  A    between atoms: C_10  and  N_11 
REMARK    6  A    between atoms: C_14  and  C_15 
REMARK       I    between atoms: C_15  and  N_16 
REMARK    7  A    between atoms: N_16  and  C_17 
REMARK    8  A    between atoms: C_25  and  N_26 
ROOT
HETATM    1  N   UNL     1      25.929  46.216  51.217  1.00  0.00    -0.248 N 
HETATM    2  N   UNL     1      25.454  47.155  52.065  1.00  0.00     0.007 NA
HETATM    3  N   UNL     1      25.857  46.829  53.285  1.00  0.00    -0.150 NA
HETATM    4  C   UNL     1      26.571  45.650  53.205  1.00  0.00     0.187 A 
HETATM    5  C   UNL     1      26.581  45.215  51.890  1.00  0.00     0.151 A 
ENDROOT
BRANCH   1   6
HETATM    6  C   UNL     1      25.831  46.439  49.796  1.00  0.00     0.251 C 
BRANCH   6   7
HETATM    7  C   UNL     1      25.240  47.788  49.468  1.00  0.00     0.241 C 
HETATM    8  N   UNL     1      23.912  47.737  49.074  1.00  0.00    -0.326 N 
HETATM    9  H   UNL     1      23.550  46.825  48.802  1.00  0.00     0.169 HD
HETATM   10  O   UNL     1      25.912  48.806  49.620  1.00  0.00    -0.271 OA
BRANCH   8  11
HETATM   11  C   UNL     1      23.022  48.822  48.939  1.00  0.00     0.034 A 
HETATM   12  C   UNL     1      23.429  50.137  48.719  1.00  0.00     0.032 A 
HETATM   13  C   UNL     1      22.483  51.166  48.652  1.00  0.00     0.039 A 
HETATM   14  C   UNL     1      21.121  50.900  48.792  1.00  0.00     0.068 A 
HETATM   15  C   UNL     1      20.708  49.588  49.004  1.00  0.00     0.039 A 
HETATM   16  C   UNL     1      21.655  48.556  49.083  1.00  0.00     0.032 A 
BRANCH  14  17
HETATM   17  O   UNL     1      20.313  51.999  48.716  1.00  0.00    -0.352 OA
BRANCH  17  18
HETATM   18  C   UNL     1      18.936  51.778  48.419  1.00  0.00     0.171 C 
HETATM   19  C   UNL     1      18.113  52.384  49.542  1.00  0.00     0.034 C 
ENDBRANCH  17  18
ENDBRANCH  14  17
ENDBRANCH   8  11
ENDBRANCH   6   7
ENDBRANCH   1   6
BRANCH   5  20
HETATM   20  N   UNL     1      27.122  44.129  51.288  1.00  0.00    -0.382 N 
HETATM   21  H   UNL     1      27.728  44.287  50.477  1.00  0.00     0.157 HD
HETATM   22  H   UNL     1      27.390  43.293  51.804  1.00  0.00     0.157 HD
ENDBRANCH   5  20
BRANCH   4  23
HETATM   23  C   UNL     1      27.203  45.025  54.361  1.00  0.00     0.280 C 
HETATM   24  N   UNL     1      28.518  45.424  54.516  1.00  0.00    -0.320 N 
HETATM   25  H   UNL     1      28.755  46.284  54.032  1.00  0.00     0.169 HD
HETATM   26  O   UNL     1      26.583  44.284  55.117  1.00  0.00    -0.265 OA
BRANCH  24  27
HETATM   27  C   UNL     1      29.457  44.920  55.444  1.00  0.00     0.057 A 
HETATM   28  C   UNL     1      30.259  43.778  55.271  1.00  0.00     0.060 A 
HETATM   29 CL   UNL     1      30.402  42.920  53.774  1.00  0.00    -0.082 Cl
HETATM   30  C   UNL     1      31.143  43.381  56.285  1.00  0.00     0.026 A 
HETATM   31  C   UNL     1      31.260  44.125  57.458  1.00  0.00     0.002 A 
HETATM   32  C   UNL     1      30.510  45.285  57.615  1.00  0.00     0.002 A 
HETATM   33  C   UNL     1      29.624  45.685  56.611  1.00  0.00     0.031 A 
ENDBRANCH  24  27
ENDBRANCH   4  23
TORSDOF 8
ENDMDL
MODEL 6
REMARK VINA RESULT:      -8.6      2.815     10.559
REMARK  8 active torsions:
REMARK  status: ('A' for Active; 'I' for Inactive)
REMARK    1  A    between atoms: C_2  and  O_3 
REMARK    2  A    between atoms: O_3  and  C_4 
REMARK    3  A    between atoms: C_7  and  N_8 
REMARK       I    between atoms: N_8  and  C_9 
REMARK    4  A    between atoms: C_9  and  C_10 
REMARK    5  A    between atoms: C_10  and  N_11 
REMARK    6  A    between atoms: C_14  and  C_15 
REMARK       I    between atoms: C_15  and  N_16 
REMARK    7  A    between atoms: N_16  and  C_17 
REMARK    8  A    between atoms: C_25  and  N_26 
ROOT
HETATM    1  N   UNL     1      24.472  48.973  48.866  1.00  0.00    -0.248 N 
HETATM    2  N   UNL     1      23.460  48.159  49.241  1.00  0.00     0.007 NA
HETATM    3  N   UNL     1      23.998  47.114  49.854  1.00  0.00    -0.150 NA
HETATM    4  C   UNL     1      25.371  47.260  49.837  1.00  0.00     0.187 A 
HETATM    5  C   UNL     1      25.694  48.423  49.159  1.00  0.00     0.151 A 
ENDROOT
BRANCH   1   6
HETATM    6  C   UNL     1      24.166  50.293  48.374  1.00  0.00     0.251 C 
BRANCH   6   7
HETATM    7  C   UNL     1      22.959  50.891  49.054  1.00  0.00     0.241 C 
HETATM    8  N   UNL     1      21.796  50.806  48.305  1.00  0.00    -0.326 N 
HETATM    9  H   UNL     1      21.903  50.598  47.314  1.00  0.00     0.169 HD
HETATM   10  O   UNL     1      23.054  51.338  50.195  1.00  0.00    -0.271 OA
BRANCH   8  11
HETATM   11  C   UNL     1      20.479  51.045  48.748  1.00  0.00     0.034 A 
HETATM   12  C   UNL     1      19.762  52.206  48.461  1.00  0.00     0.032 A 
HETATM   13  C   UNL     1      18.477  52.390  48.986  1.00  0.00     0.039 A 
HETATM   14  C   UNL     1      17.885  51.419  49.793  1.00  0.00     0.068 A 
HETATM   15  C   UNL     1      18.594  50.254  50.077  1.00  0.00     0.039 A 
HETATM   16  C   UNL     1      19.885  50.072  49.561  1.00  0.00     0.032 A 
BRANCH  14  17
HETATM   17  O   UNL     1      16.635  51.735  50.244  1.00  0.00    -0.352 OA
BRANCH  17  18
HETATM   18  C   UNL     1      16.033  52.916  49.720  1.00  0.00     0.171 C 
HETATM   19  C   UNL     1      14.617  52.999  50.265  1.00  0.00     0.034 C 
ENDBRANCH  17  18
ENDBRANCH  14  17
ENDBRANCH   8  11
ENDBRANCH   6   7
ENDBRANCH   1   6
BRANCH   5  20
HETATM   20  N   UNL     1      26.877  49.009  48.856  1.00  0.00    -0.382 N 
HETATM   21  H   UNL     1      27.734  48.485  49.062  1.00  0.00     0.157 HD
HETATM   22  H   UNL     1      26.994  49.627  48.055  1.00  0.00     0.157 HD
ENDBRANCH   5  20
BRANCH   4  23
HETATM   23  C   UNL     1      26.278  46.309  50.469  1.00  0.00     0.280 C 
HETATM   24  N   UNL     1      25.902  46.013  51.767  1.00  0.00    -0.320 N 
HETATM   25  H   UNL     1      24.935  46.230  51.983  1.00  0.00     0.169 HD
HETATM   26  O   UNL     1      27.218  45.809  49.861  1.00  0.00    -0.265 OA
BRANCH  24  27
HETATM   27  C   UNL     1      26.621  45.238  52.705  1.00  0.00     0.057 A 
HETATM   28  C   UNL     1      27.260  45.722  53.860  1.00  0.00     0.060 A 
HETATM   29 CL   UNL     1      27.074  47.336  54.458  1.00  0.00    -0.082 Cl
HETATM   30  C   UNL     1      27.953  44.839  54.701  1.00  0.00     0.026 A 
HETATM   31  C   UNL     1      27.992  43.474  54.422  1.00  0.00     0.002 A 
HETATM   32  C   UNL     1      27.317  42.980  53.312  1.00  0.00     0.002 A 
HETATM   33  C   UNL     1      26.628  43.853  52.467  1.00  0.00     0.031 A 
ENDBRANCH  24  27
ENDBRANCH   4  23
TORSDOF 8
ENDMDL
MODEL 7
REMARK VINA RESULT:      -8.5      2.680     10.486
REMARK  8 active torsions:
REMARK  status: ('A' for Active; 'I' for Inactive)
REMARK    1  A    between atoms: C_2  and  O_3 
REMARK    2  A    between atoms: O_3  and  C_4 
REMARK    3  A    between atoms: C_7  and  N_8 
REMARK       I    between atoms: N_8  and  C_9 
REMARK    4  A    between atoms: C_9  and  C_10 
REMARK    5  A    between atoms: C_10  and  N_11 
REMARK    6  A    between atoms: C_14  and  C_15 
REMARK       I    between atoms: C_15  and  N_16 
REMARK    7  A    between atoms: N_16  and  C_17 
REMARK    8  A    between atoms: C_25  and  N_26 
ROOT
HETATM    1  N   UNL     1      24.644  44.507  50.505  1.00  0.00    -0.248 N 
HETATM    2  N   UNL     1      24.132  44.355  51.747  1.00  0.00     0.007 NA
HETATM    3  N   UNL     1      25.149  44.165  52.575  1.00  0.00    -0.150 NA
HETATM    4  C   UNL     1      26.316  44.169  51.837  1.00  0.00     0.187 A 
HETATM    5  C   UNL     1      26.004  44.335  50.497  1.00  0.00     0.151 A 
ENDROOT
BRANCH   1   6
HETATM    6  C   UNL     1      23.780  44.950  49.439  1.00  0.00     0.251 C 
BRANCH   6   7
HETATM    7  C   UNL     1      23.602  46.448  49.432  1.00  0.00     0.241 C 
HETATM    8  N   UNL     1      22.627  46.892  48.552  1.00  0.00    -0.326 N 
HETATM    9  H   UNL     1      22.319  46.233  47.839  1.00  0.00     0.169 HD
HETATM   10  O   UNL     1      24.249  47.148  50.208  1.00  0.00    -0.271 OA
BRANCH   8  11
HETATM   11  C   UNL     1      22.061  48.182  48.488  1.00  0.00     0.034 A 
HETATM   12  C   UNL     1      22.742  49.306  48.024  1.00  0.00     0.032 A 
HETATM   13  C   UNL     1      22.126  50.563  48.045  1.00  0.00     0.039 A 
HETATM   14  C   UNL     1      20.823  50.716  48.518  1.00  0.00     0.068 A 
HETATM   15  C   UNL     1      20.135  49.595  48.977  1.00  0.00     0.039 A 
HETATM   16  C   UNL     1      20.754  48.337  48.967  1.00  0.00     0.032 A 
BRANCH  14  17
HETATM   17  O   UNL     1      20.352  51.998  48.491  1.00  0.00    -0.352 OA
BRANCH  17  18
HETATM   18  C   UNL     1      18.997  52.204  48.884  1.00  0.00     0.171 C 
HETATM   19  C   UNL     1      18.171  52.404  47.625  1.00  0.00     0.034 C 
ENDBRANCH  17  18
ENDBRANCH  14  17
ENDBRANCH   8  11
ENDBRANCH   6   7
ENDBRANCH   1   6
BRANCH   5  20
HETATM   20  N   UNL     1      26.766  44.395  49.379  1.00  0.00    -0.382 N 
HETATM   21  H   UNL     1      27.382  45.206  49.266  1.00  0.00     0.157 HD
HETATM   22  H   UNL     1      27.149  43.564  48.931  1.00  0.00     0.157 HD
ENDBRANCH   5  20
BRANCH   4  23
HETATM   23  C   UNL     1      27.637  44.031  52.439  1.00  0.00     0.280 C 
HETATM   24  N   UNL     1      27.625  44.313  53.793  1.00  0.00    -0.320 N 
HETATM   25  H   UNL     1      26.707  44.265  54.222  1.00  0.00     0.169 HD
HETATM   26  O   UNL     1      28.607  43.648  51.793  1.00  0.00    -0.265 OA
BRANCH  24  27
HETATM   27  C   UNL     1      28.742  44.405  54.654  1.00  0.00     0.057 A 
HETATM   28  C   UNL     1      29.091  45.519  55.438  1.00  0.00     0.060 A 
HETATM   29 CL   UNL     1      28.070  46.898  55.661  1.00  0.00    -0.082 Cl
HETATM   30  C   UNL     1      30.241  45.479  56.240  1.00  0.00     0.026 A 
HETATM   31  C   UNL     1      31.030  44.331  56.295  1.00  0.00     0.002 A 
HETATM   32  C   UNL     1      30.662  43.207  55.566  1.00  0.00     0.002 A 
HETATM   33  C   UNL     1      29.520  43.240  54.760  1.00  0.00     0.031 A 
ENDBRANCH  24  27
ENDBRANCH   4  23
TORSDOF 8
ENDMDL
MODEL 8
REMARK VINA RESULT:      -8.2      3.227      9.891
REMARK  8 active torsions:
REMARK  status: ('A' for Active; 'I' for Inactive)
REMARK    1  A    between atoms: C_2  and  O_3 
REMARK    2  A    between atoms: O_3  and  C_4 
REMARK    3  A    between atoms: C_7  and  N_8 
REMARK       I    between atoms: N_8  and  C_9 
REMARK    4  A    between atoms: C_9  and  C_10 
REMARK    5  A    between atoms: C_10  and  N_11 
REMARK    6  A    between atoms: C_14  and  C_15 
REMARK       I    between atoms: C_15  and  N_16 
REMARK    7  A    between atoms: N_16  and  C_17 
REMARK    8  A    between atoms: C_25  and  N_26 
ROOT
HETATM    1  N   UNL     1      23.975  43.134  49.748  1.00  0.00    -0.248 N 
HETATM    2  N   UNL     1      23.423  43.370  50.959  1.00  0.00     0.007 NA
HETATM    3  N   UNL     1      24.406  43.699  51.785  1.00  0.00    -0.150 NA
HETATM    4  C   UNL     1      25.597  43.638  51.090  1.00  0.00     0.187 A 
HETATM    5  C   UNL     1      25.343  43.225  49.792  1.00  0.00     0.151 A 
ENDROOT
BRANCH   1   6
HETATM    6  C   UNL     1      23.114  42.973  48.603  1.00  0.00     0.251 C 
BRANCH   6   7
HETATM    7  C   UNL     1      22.750  44.294  47.971  1.00  0.00     0.241 C 
HETATM    8  N   UNL     1      22.108  45.169  48.833  1.00  0.00    -0.326 N 
HETATM    9  H   UNL     1      21.724  44.771  49.688  1.00  0.00     0.169 HD
HETATM   10  O   UNL     1      23.081  44.532  46.811  1.00  0.00    -0.271 OA
BRANCH   8  11
HETATM   11  C   UNL     1      21.862  46.542  48.626  1.00  0.00     0.034 A 
HETATM   12  C   UNL     1      20.617  47.063  48.277  1.00  0.00     0.032 A 
HETATM   13  C   UNL     1      20.469  48.434  48.034  1.00  0.00     0.039 A 
HETATM   14  C   UNL     1      21.554  49.304  48.145  1.00  0.00     0.068 A 
HETATM   15  C   UNL     1      22.798  48.790  48.500  1.00  0.00     0.039 A 
HETATM   16  C   UNL     1      22.951  47.415  48.733  1.00  0.00     0.032 A 
BRANCH  14  17
HETATM   17  O   UNL     1      21.268  50.611  47.870  1.00  0.00    -0.352 OA
BRANCH  17  18
HETATM   18  C   UNL     1      20.758  51.406  48.938  1.00  0.00     0.171 C 
HETATM   19  C   UNL     1      19.547  52.162  48.420  1.00  0.00     0.034 C 
ENDBRANCH  17  18
ENDBRANCH  14  17
ENDBRANCH   8  11
ENDBRANCH   6   7
ENDBRANCH   1   6
BRANCH   5  20
HETATM   20  N   UNL     1      26.149  42.997  48.728  1.00  0.00    -0.382 N 
HETATM   21  H   UNL     1      25.813  43.289  47.805  1.00  0.00     0.157 HD
HETATM   22  H   UNL     1      27.165  43.038  48.791  1.00  0.00     0.157 HD
ENDBRANCH   5  20
BRANCH   4  23
HETATM   23  C   UNL     1      26.882  43.985  51.685  1.00  0.00     0.280 C 
HETATM   24  N   UNL     1      26.895  43.784  53.053  1.00  0.00    -0.320 N 
HETATM   25  H   UNL     1      26.170  43.161  53.391  1.00  0.00     0.169 HD
HETATM   26  O   UNL     1      27.834  44.352  51.003  1.00  0.00    -0.265 OA
BRANCH  24  27
HETATM   27  C   UNL     1      27.924  44.136  53.955  1.00  0.00     0.057 A 
HETATM   28  C   UNL     1      29.140  43.451  54.129  1.00  0.00     0.060 A 
HETATM   29 CL   UNL     1      29.686  42.180  53.090  1.00  0.00    -0.082 Cl
HETATM   30  C   UNL     1      30.071  43.904  55.075  1.00  0.00     0.026 A 
HETATM   31  C   UNL     1      29.820  45.049  55.829  1.00  0.00     0.002 A 
HETATM   32  C   UNL     1      28.645  45.763  55.624  1.00  0.00     0.002 A 
HETATM   33  C   UNL     1      27.710  45.316  54.686  1.00  0.00     0.031 A 
ENDBRANCH  24  27
ENDBRANCH   4  23
TORSDOF 8
ENDMDL
MODEL 9
REMARK VINA RESULT:      -8.1      2.876     10.355
REMARK  8 active torsions:
REMARK  status: ('A' for Active; 'I' for Inactive)
REMARK    1  A    between atoms: C_2  and  O_3 
REMARK    2  A    between atoms: O_3  and  C_4 
REMARK    3  A    between atoms: C_7  and  N_8 
REMARK       I    between atoms: N_8  and  C_9 
REMARK    4  A    between atoms: C_9  and  C_10 
REMARK    5  A    between atoms: C_10  and  N_11 
REMARK    6  A    between atoms: C_14  and  C_15 
REMARK       I    between atoms: C_15  and  N_16 
REMARK    7  A    between atoms: N_16  and  C_17 
REMARK    8  A    between atoms: C_25  and  N_26 
ROOT
HETATM    1  N   UNL     1      23.602  45.729  49.440  1.00  0.00    -0.248 N 
HETATM    2  N   UNL     1      24.200  46.853  49.895  1.00  0.00     0.007 NA
HETATM    3  N   UNL     1      24.923  46.516  50.954  1.00  0.00    -0.150 NA
HETATM    4  C   UNL     1      24.752  45.166  51.185  1.00  0.00     0.187 A 
HETATM    5  C   UNL     1      23.864  44.656  50.252  1.00  0.00     0.151 A 
ENDROOT
BRANCH   1   6
HETATM    6  C   UNL     1      22.932  45.758  48.164  1.00  0.00     0.251 C 
BRANCH   6   7
HETATM    7  C   UNL     1      22.036  46.963  48.015  1.00  0.00     0.241 C 
HETATM    8  N   UNL     1      21.429  47.359  49.197  1.00  0.00    -0.326 N 
HETATM    9  H   UNL     1      21.432  46.686  49.961  1.00  0.00     0.169 HD
HETATM   10  O   UNL     1      21.949  47.534  46.930  1.00  0.00    -0.271 OA
BRANCH   8  11
HETATM   11  C   UNL     1      20.744  48.567  49.439  1.00  0.00     0.034 A 
HETATM   12  C   UNL     1      19.425  48.635  49.885  1.00  0.00     0.032 A 
HETATM   13  C   UNL     1      18.799  49.876  50.048  1.00  0.00     0.039 A 
HETATM   14  C   UNL     1      19.478  51.065  49.780  1.00  0.00     0.068 A 
HETATM   15  C   UNL     1      20.798  51.003  49.341  1.00  0.00     0.039 A 
HETATM   16  C   UNL     1      21.424  49.761  49.166  1.00  0.00     0.032 A 
BRANCH  14  17
HETATM   17  O   UNL     1      18.742  52.199  49.972  1.00  0.00    -0.352 OA
BRANCH  17  18
HETATM   18  C   UNL     1      17.838  52.574  48.934  1.00  0.00     0.171 C 
HETATM   19  C   UNL     1      16.427  52.481  49.488  1.00  0.00     0.034 C 
ENDBRANCH  17  18
ENDBRANCH  14  17
ENDBRANCH   8  11
ENDBRANCH   6   7
ENDBRANCH   1   6
BRANCH   5  20
HETATM   20  N   UNL     1      23.359  43.416  50.050  1.00  0.00    -0.382 N 
HETATM   21  H   UNL     1      24.012  42.674  49.776  1.00  0.00     0.157 HD
HETATM   22  H   UNL     1      22.574  43.049  50.586  1.00  0.00     0.157 HD
ENDBRANCH   5  20
BRANCH   4  23
HETATM   23  C   UNL     1      25.443  44.449  52.251  1.00  0.00     0.280 C 
HETATM   24  N   UNL     1      26.813  44.626  52.196  1.00  0.00    -0.320 N 
HETATM   25  H   UNL     1      27.110  45.433  51.657  1.00  0.00     0.169 HD
HETATM   26  O   UNL     1      24.832  43.824  53.112  1.00  0.00    -0.265 OA
BRANCH  24  27
HETATM   27  C   UNL     1      27.787  43.978  52.987  1.00  0.00     0.057 A 
HETATM   28  C   UNL     1      28.297  42.684  52.775  1.00  0.00     0.060 A 
HETATM   29 CL   UNL     1      27.982  41.746  51.355  1.00  0.00    -0.082 Cl
HETATM   30  C   UNL     1      29.256  42.155  53.652  1.00  0.00     0.026 A 
HETATM   31  C   UNL     1      29.737  42.911  54.720  1.00  0.00     0.002 A 
HETATM   32  C   UNL     1      29.279  44.210  54.905  1.00  0.00     0.002 A 
HETATM   33  C   UNL     1      28.320  44.743  54.038  1.00  0.00     0.031 A 
ENDBRANCH  24  27
ENDBRANCH   4  23
TORSDOF 8
ENDMDL
MODEL 10
REMARK VINA RESULT:      -8.0      2.844     10.015
REMARK  8 active torsions:
REMARK  status: ('A' for Active; 'I' for Inactive)
REMARK    1  A    between atoms: C_2  and  O_3 
REMARK    2  A    between atoms: O_3  and  C_4 
REMARK    3  A    between atoms: C_7  and  N_8 
REMARK       I    between atoms: N_8  and  C_9 
REMARK    4  A    between atoms: C_9  and  C_10 
REMARK    5  A    between atoms: C_10  and  N_11 
REMARK    6  A    between atoms: C_14  and  C_15 
REMARK       I    between atoms: C_15  and  N_16 
REMARK    7  A    between atoms: N_16  and  C_17 
REMARK    8  A    between atoms: C_25  and  N_26 
ROOT
HETATM    1  N   UNL     1      25.680  43.596  49.672  1.00  0.00    -0.248 N 
HETATM    2  N   UNL     1      26.440  44.656  49.316  1.00  0.00     0.007 NA
HETATM    3  N   UNL     1      27.462  44.712  50.156  1.00  0.00    -0.150 NA
HETATM    4  C   UNL     1      27.327  43.689  51.074  1.00  0.00     0.187 A 
HETATM    5  C   UNL     1      26.157  42.995  50.808  1.00  0.00     0.151 A 
ENDROOT
BRANCH   1   6
HETATM    6  C   UNL     1      24.621  43.164  48.794  1.00  0.00     0.251 C 
BRANCH   6   7
HETATM    7  C   UNL     1      23.826  44.322  48.243  1.00  0.00     0.241 C 
HETATM    8  N   UNL     1      23.579  45.323  49.169  1.00  0.00    -0.326 N 
HETATM    9  H   UNL     1      23.717  45.084  50.149  1.00  0.00     0.169 HD
HETATM   10  O   UNL     1      23.515  44.343  47.054  1.00  0.00    -0.271 OA
BRANCH   8  11
HETATM   11  C   UNL     1      23.086  46.619  48.912  1.00  0.00     0.034 A 
HETATM   12  C   UNL     1      21.875  46.875  48.271  1.00  0.00     0.032 A 
HETATM   13  C   UNL     1      21.484  48.193  48.004  1.00  0.00     0.039 A 
HETATM   14  C   UNL     1      22.286  49.270  48.378  1.00  0.00     0.068 A 
HETATM   15  C   UNL     1      23.494  49.020  49.025  1.00  0.00     0.039 A 
HETATM   16  C   UNL     1      23.893  47.701  49.284  1.00  0.00     0.032 A 
BRANCH  14  17
HETATM   17  O   UNL     1      21.787  50.497  48.045  1.00  0.00    -0.352 OA
BRANCH  17  18
HETATM   18  C   UNL     1      21.093  51.217  49.062  1.00  0.00     0.171 C 
HETATM   19  C   UNL     1      19.794  51.731  48.466  1.00  0.00     0.034 C 
ENDBRANCH  17  18
ENDBRANCH  14  17
ENDBRANCH   8  11
ENDBRANCH   6   7
ENDBRANCH   1   6
BRANCH   5  20
HETATM   20  N   UNL     1      25.566  41.934  51.406  1.00  0.00    -0.382 N 
HETATM   21  H   UNL     1      24.793  42.122  52.053  1.00  0.00     0.157 HD
HETATM   22  H   UNL     1      25.462  41.031  50.945  1.00  0.00     0.157 HD
ENDBRANCH   5  20
BRANCH   4  23
HETATM   23  C   UNL     1      28.307  43.426  52.121  1.00  0.00     0.280 C 
HETATM   24  N   UNL     1      28.169  44.291  53.192  1.00  0.00    -0.320 N 
HETATM   25  H   UNL     1      27.265  44.748  53.248  1.00  0.00     0.169 HD
HETATM   26  O   UNL     1      29.103  42.496  52.045  1.00  0.00    -0.265 OA
BRANCH  24  27
HETATM   27  C   UNL     1      29.025  44.403  54.311  1.00  0.00     0.057 A 
HETATM   28  C   UNL     1      29.084  45.491  55.200  1.00  0.00     0.060 A 
HETATM   29 CL   UNL     1      27.940  46.789  55.210  1.00  0.00    -0.082 Cl
HETATM   30  C   UNL     1      29.996  45.477  56.266  1.00  0.00     0.026 A 
HETATM   31  C   UNL     1      30.829  44.380  56.475  1.00  0.00     0.002 A 
HETATM   32  C   UNL     1      30.740  43.278  55.632  1.00  0.00     0.002 A 
HETATM   33  C   UNL     1      29.837  43.285  54.566  1.00  0.00     0.031 A 
ENDBRANCH  24  27
ENDBRANCH   4  23
TORSDOF 8
ENDMDL
