MODEL 1
REMARK VINA RESULT:     -10.6      0.000      0.000
REMARK  9 active torsions:
REMARK  status: ('A' for Active; 'I' for Inactive)
REMARK    1  A    between atoms: C_4  and  S_5 
REMARK    2  A    between atoms: S_5  and  C_6 
REMARK    3  A    between atoms: C_6  and  C_7 
REMARK       I    between atoms: C_7  and  N_8 
REMARK    4  A    between atoms: N_8  and  C_9 
REMARK    5  A    between atoms: C_10  and  O_11 
REMARK    6  A    between atoms: C_22  and  C_23 
REMARK    7  A    between atoms: C_29  and  C_30 
REMARK       I    between atoms: C_30  and  N_31 
REMARK    8  A    between atoms: N_31  and  C_32 
REMARK    9  A    between atoms: C_33  and  O_34 
ROOT
HETATM    1  C   UNL     1      22.504  45.054  47.847  1.00  0.00     0.069 C 
HETATM    2  C   UNL     1      23.358  45.736  48.891  1.00  0.00     0.019 C 
HETATM    3  N   UNL     1      24.278  44.922  49.525  1.00  0.00    -0.353 N 
HETATM    4  C   UNL     1      25.018  45.271  50.638  1.00  0.00     0.087 C 
HETATM    5  C   UNL     1      25.018  46.561  51.043  1.00  0.00     0.055 C 
HETATM    6  C   UNL     1      25.670  47.017  52.338  1.00  0.00     0.019 C 
HETATM    7  N   UNL     1      26.212  47.394  53.413  1.00  0.00    -0.096 N 
HETATM    8  C   UNL     1      24.312  47.630  50.204  1.00  0.00     0.104 C 
HETATM    9  C   UNL     1      23.305  47.056  49.203  1.00  0.00     0.046 C 
HETATM   10  H   UNL     1      24.289  43.934  49.290  1.00  0.00     0.166 HD
ENDROOT
BRANCH   4  11
HETATM   11  S   UNL     1      26.055  44.072  51.352  1.00  0.00    -0.102 SA
BRANCH  11  12
HETATM   12  C   UNL     1      25.103  43.390  52.714  1.00  0.00     0.184 C 
BRANCH  12  13
HETATM   13  C   UNL     1      25.331  44.026  54.076  1.00  0.00     0.231 C 
HETATM   14  N   UNL     1      26.481  43.773  54.784  1.00  0.00    -0.324 N 
HETATM   15  H   UNL     1      26.335  43.768  55.788  1.00  0.00     0.169 HD
HETATM   16  O   UNL     1      24.399  44.616  54.635  1.00  0.00    -0.272 OA
BRANCH  14  17
HETATM   17  C   UNL     1      27.727  43.292  54.340  1.00  0.00     0.070 C 
HETATM   18  C   UNL     1      28.882  44.067  54.551  1.00  0.00     0.095 C 
HETATM   19  C   UNL     1      30.127  43.572  54.141  1.00  0.00     0.041 C 
HETATM   20  C   UNL     1      30.215  42.355  53.460  1.00  0.00     0.026 C 
HETATM   21  C   UNL     1      29.057  41.650  53.159  1.00  0.00     0.036 C 
HETATM   22 CL   UNL     1      29.150  40.190  52.254  1.00  0.00    -0.084 Cl
HETATM   23  C   UNL     1      27.817  42.126  53.578  1.00  0.00     0.056 C 
BRANCH  18  24
HETATM   24  O   UNL     1      28.699  45.258  55.208  1.00  0.00    -0.354 OA
HETATM   25  C   UNL     1      29.824  45.760  55.921  1.00  0.00     0.210 C 
ENDBRANCH  18  24
ENDBRANCH  14  17
ENDBRANCH  12  13
ENDBRANCH  11  12
ENDBRANCH   4  11
BRANCH   8  26
HETATM   26  C   UNL     1      25.391  48.483  49.515  1.00  0.00    -0.044 A 
HETATM   27  C   UNL     1      26.761  48.253  49.747  1.00  0.00     0.008 A 
HETATM   28  C   UNL     1      27.733  49.070  49.170  1.00  0.00     0.001 A 
HETATM   29  C   UNL     1      27.354  50.136  48.360  1.00  0.00     0.000 A 
HETATM   30  C   UNL     1      26.002  50.385  48.127  1.00  0.00     0.001 A 
HETATM   31  C   UNL     1      25.026  49.568  48.702  1.00  0.00     0.008 A 
ENDBRANCH   8  26
BRANCH   9  32
HETATM   32  C   UNL     1      22.223  47.920  48.619  1.00  0.00     0.255 C 
HETATM   33  N   UNL     1      21.405  48.567  49.524  1.00  0.00    -0.321 N 
HETATM   34  H   UNL     1      21.348  48.231  50.472  1.00  0.00     0.169 HD
HETATM   35  O   UNL     1      22.029  47.921  47.404  1.00  0.00    -0.268 OA
BRANCH  33  36
HETATM   36  C   UNL     1      20.416  49.505  49.144  1.00  0.00     0.068 A 
HETATM   37  C   UNL     1      19.045  49.184  49.048  1.00  0.00     0.095 A 
HETATM   38  C   UNL     1      18.131  50.194  48.732  1.00  0.00     0.039 A 
HETATM   39  C   UNL     1      18.571  51.498  48.484  1.00  0.00     0.003 A 
HETATM   40  C   UNL     1      19.930  51.795  48.518  1.00  0.00     0.002 A 
HETATM   41  C   UNL     1      20.853  50.797  48.828  1.00  0.00     0.032 A 
BRANCH  37  42
HETATM   42  O   UNL     1      18.712  47.857  49.149  1.00  0.00    -0.354 OA
HETATM   43  C   UNL     1      18.543  47.129  47.943  1.00  0.00     0.210 C 
ENDBRANCH  37  42
ENDBRANCH  33  36
ENDBRANCH   9  32
TORSDOF 9
ENDMDL
MODEL 2
REMARK VINA RESULT:     -10.3      3.216      9.450
REMARK  9 active torsions:
REMARK  status: ('A' for Active; 'I' for Inactive)
REMARK    1  A    between atoms: C_4  and  S_5 
REMARK    2  A    between atoms: S_5  and  C_6 
REMARK    3  A    between atoms: C_6  and  C_7 
REMARK       I    between atoms: C_7  and  N_8 
REMARK    4  A    between atoms: N_8  and  C_9 
REMARK    5  A    between atoms: C_10  and  O_11 
REMARK    6  A    between atoms: C_22  and  C_23 
REMARK    7  A    between atoms: C_29  and  C_30 
REMARK       I    between atoms: C_30  and  N_31 
REMARK    8  A    between atoms: N_31  and  C_32 
REMARK    9  A    between atoms: C_33  and  O_34 
ROOT
HETATM    1  C   UNL     1      26.161  46.276  50.267  1.00  0.00     0.069 C 
HETATM    2  C   UNL     1      25.517  44.961  49.891  1.00  0.00     0.019 C 
HETATM    3  N   UNL     1      24.827  44.962  48.693  1.00  0.00    -0.353 N 
HETATM    4  C   UNL     1      24.001  43.949  48.247  1.00  0.00     0.087 C 
HETATM    5  C   UNL     1      24.001  42.769  48.909  1.00  0.00     0.055 C 
HETATM    6  C   UNL     1      23.021  41.650  48.595  1.00  0.00     0.019 C 
HETATM    7  N   UNL     1      22.208  40.722  48.335  1.00  0.00    -0.096 N 
HETATM    8  C   UNL     1      24.994  42.528  50.049  1.00  0.00     0.104 C 
HETATM    9  C   UNL     1      25.604  43.814  50.612  1.00  0.00     0.046 C 
HETATM   10  H   UNL     1      24.758  45.835  48.179  1.00  0.00     0.166 HD
ENDROOT
BRANCH   4  11
HETATM   11  S   UNL     1      23.141  44.178  46.754  1.00  0.00    -0.102 SA
BRANCH  11  12
HETATM   12  C   UNL     1      22.169  45.668  47.004  1.00  0.00     0.184 C 
BRANCH  12  13
HETATM   13  C   UNL     1      21.468  45.792  48.348  1.00  0.00     0.231 C 
HETATM   14  N   UNL     1      21.677  46.889  49.149  1.00  0.00    -0.324 N 
HETATM   15  H   UNL     1      21.636  46.670  50.139  1.00  0.00     0.169 HD
HETATM   16  O   UNL     1      20.862  44.818  48.810  1.00  0.00    -0.272 OA
BRANCH  14  17
HETATM   17  C   UNL     1      22.166  48.167  48.820  1.00  0.00     0.070 C 
HETATM   18  C   UNL     1      21.258  49.200  48.527  1.00  0.00     0.095 C 
HETATM   19  C   UNL     1      21.743  50.481  48.234  1.00  0.00     0.041 C 
HETATM   20  C   UNL     1      23.119  50.715  48.159  1.00  0.00     0.026 C 
HETATM   21  C   UNL     1      24.008  49.663  48.343  1.00  0.00     0.036 C 
HETATM   22 CL   UNL     1      25.699  49.928  48.176  1.00  0.00    -0.084 Cl
HETATM   23  C   UNL     1      23.533  48.391  48.650  1.00  0.00     0.056 C 
BRANCH  18  24
HETATM   24  O   UNL     1      19.927  48.874  48.603  1.00  0.00    -0.354 OA
HETATM   25  C   UNL     1      19.202  49.444  49.688  1.00  0.00     0.210 C 
ENDBRANCH  18  24
ENDBRANCH  14  17
ENDBRANCH  12  13
ENDBRANCH  11  12
ENDBRANCH   4  11
BRANCH   8  26
HETATM   26  C   UNL     1      26.069  41.549  49.545  1.00  0.00    -0.044 A 
HETATM   27  C   UNL     1      26.370  40.369  50.254  1.00  0.00     0.008 A 
HETATM   28  C   UNL     1      27.389  39.518  49.827  1.00  0.00     0.001 A 
HETATM   29  C   UNL     1      28.130  39.833  48.692  1.00  0.00     0.000 A 
HETATM   30  C   UNL     1      27.851  41.001  47.984  1.00  0.00     0.001 A 
HETATM   31  C   UNL     1      26.832  41.857  48.407  1.00  0.00     0.008 A 
ENDBRANCH   8  26
BRANCH   9  32
HETATM   32  C   UNL     1      26.236  43.834  51.976  1.00  0.00     0.255 C 
HETATM   33  N   UNL     1      27.616  43.834  52.007  1.00  0.00    -0.321 N 
HETATM   34  H   UNL     1      28.133  43.526  51.199  1.00  0.00     0.169 HD
HETATM   35  O   UNL     1      25.531  43.728  52.978  1.00  0.00    -0.268 OA
BRANCH  33  36
HETATM   36  C   UNL     1      28.365  43.969  53.200  1.00  0.00     0.068 A 
HETATM   37  C   UNL     1      29.332  43.029  53.615  1.00  0.00     0.095 A 
HETATM   38  C   UNL     1      30.073  43.280  54.774  1.00  0.00     0.039 A 
HETATM   39  C   UNL     1      29.839  44.433  55.529  1.00  0.00     0.003 A 
HETATM   40  C   UNL     1      28.840  45.326  55.151  1.00  0.00     0.002 A 
HETATM   41  C   UNL     1      28.091  45.086  54.000  1.00  0.00     0.032 A 
BRANCH  37  42
HETATM   42  O   UNL     1      29.392  41.853  52.911  1.00  0.00    -0.354 OA
HETATM   43  C   UNL     1      28.502  40.814  53.290  1.00  0.00     0.210 C 
ENDBRANCH  37  42
ENDBRANCH  33  36
ENDBRANCH   9  32
TORSDOF 9
ENDMDL
MODEL 3
REMARK VINA RESULT:     -10.1      4.023      9.716
REMARK  9 active torsions:
REMARK  status: ('A' for Active; 'I' for Inactive)
REMARK    1  A    between atoms: C_4  and  S_5 
REMARK    2  A    between atoms: S_5  and  C_6 
REMARK    3  A    between atoms: C_6  and  C_7 
REMARK       I    between atoms: C_7  and  N_8 
REMARK    4  A    between atoms: N_8  and  C_9 
REMARK    5  A    between atoms: C_10  and  O_11 
REMARK    6  A    between atoms: C_22  and  C_23 
REMARK    7  A    between atoms: C_29  and  C_30 
REMARK       I    between atoms: C_30  and  N_31 
REMARK    8  A    between atoms: N_31  and  C_32 
REMARK    9  A    between atoms: C_33  and  O_34 
ROOT
HETATM    1  C   UNL     1      22.309  44.434  49.312  1.00  0.00     0.069 C 
HETATM    2  C   UNL     1      23.532  45.296  49.519  1.00  0.00     0.019 C 
HETATM    3  N   UNL     1      23.333  46.655  49.356  1.00  0.00    -0.353 N 
HETATM    4  C   UNL     1      24.332  47.606  49.299  1.00  0.00     0.087 C 
HETATM    5  C   UNL     1      25.595  47.246  49.622  1.00  0.00     0.055 C 
HETATM    6  C   UNL     1      26.786  48.173  49.443  1.00  0.00     0.019 C 
HETATM    7  N   UNL     1      27.774  48.943  49.293  1.00  0.00    -0.096 N 
HETATM    8  C   UNL     1      25.879  45.843  50.165  1.00  0.00     0.104 C 
HETATM    9  C   UNL     1      24.759  44.838  49.880  1.00  0.00     0.046 C 
HETATM   10  H   UNL     1      22.413  46.974  49.068  1.00  0.00     0.166 HD
ENDROOT
BRANCH   4  11
HETATM   11  S   UNL     1      23.886  49.257  48.990  1.00  0.00    -0.102 SA
BRANCH  11  12
HETATM   12  C   UNL     1      22.124  49.332  49.335  1.00  0.00     0.184 C 
BRANCH  12  13
HETATM   13  C   UNL     1      21.627  50.602  50.007  1.00  0.00     0.231 C 
HETATM   14  N   UNL     1      20.499  51.241  49.551  1.00  0.00    -0.324 N 
HETATM   15  H   UNL     1      20.543  52.249  49.661  1.00  0.00     0.169 HD
HETATM   16  O   UNL     1      22.343  51.170  50.840  1.00  0.00    -0.272 OA
BRANCH  14  17
HETATM   17  C   UNL     1      19.442  50.753  48.761  1.00  0.00     0.070 C 
HETATM   18  C   UNL     1      18.376  50.074  49.376  1.00  0.00     0.095 C 
HETATM   19  C   UNL     1      17.306  49.619  48.594  1.00  0.00     0.041 C 
HETATM   20  C   UNL     1      17.332  49.771  47.205  1.00  0.00     0.026 C 
HETATM   21  C   UNL     1      18.440  50.345  46.595  1.00  0.00     0.036 C 
HETATM   22 CL   UNL     1      18.513  50.464  44.881  1.00  0.00    -0.084 Cl
HETATM   23  C   UNL     1      19.499  50.814  47.368  1.00  0.00     0.056 C 
BRANCH  18  24
HETATM   24  O   UNL     1      18.445  49.951  50.742  1.00  0.00    -0.354 OA
HETATM   25  C   UNL     1      18.590  48.628  51.246  1.00  0.00     0.210 C 
ENDBRANCH  18  24
ENDBRANCH  14  17
ENDBRANCH  12  13
ENDBRANCH  11  12
ENDBRANCH   4  11
BRANCH   8  26
HETATM   26  C   UNL     1      26.178  45.965  51.669  1.00  0.00    -0.044 A 
HETATM   27  C   UNL     1      26.970  45.009  52.335  1.00  0.00     0.008 A 
HETATM   28  C   UNL     1      27.185  45.090  53.710  1.00  0.00     0.001 A 
HETATM   29  C   UNL     1      26.608  46.121  54.446  1.00  0.00     0.000 A 
HETATM   30  C   UNL     1      25.814  47.071  53.804  1.00  0.00     0.001 A 
HETATM   31  C   UNL     1      25.595  46.994  52.427  1.00  0.00     0.008 A 
ENDBRANCH   8  26
BRANCH   9  32
HETATM   32  C   UNL     1      25.020  43.359  49.930  1.00  0.00     0.255 C 
HETATM   33  N   UNL     1      25.768  42.838  48.893  1.00  0.00    -0.321 N 
HETATM   34  H   UNL     1      25.851  43.352  48.031  1.00  0.00     0.169 HD
HETATM   35  O   UNL     1      24.473  42.669  50.789  1.00  0.00    -0.268 OA
BRANCH  33  36
HETATM   36  C   UNL     1      26.201  41.492  48.849  1.00  0.00     0.068 A 
HETATM   37  C   UNL     1      27.179  40.967  49.721  1.00  0.00     0.095 A 
HETATM   38  C   UNL     1      27.496  39.607  49.650  1.00  0.00     0.039 A 
HETATM   39  C   UNL     1      26.874  38.782  48.708  1.00  0.00     0.003 A 
HETATM   40  C   UNL     1      25.957  39.317  47.807  1.00  0.00     0.002 A 
HETATM   41  C   UNL     1      25.635  40.673  47.865  1.00  0.00     0.032 A 
BRANCH  37  42
HETATM   42  O   UNL     1      27.854  41.867  50.507  1.00  0.00    -0.354 OA
HETATM   43  C   UNL     1      28.155  41.481  51.839  1.00  0.00     0.210 C 
ENDBRANCH  37  42
ENDBRANCH  33  36
ENDBRANCH   9  32
TORSDOF 9
ENDMDL
MODEL 4
REMARK VINA RESULT:     -10.0      3.113      9.209
REMARK  9 active torsions:
REMARK  status: ('A' for Active; 'I' for Inactive)
REMARK    1  A    between atoms: C_4  and  S_5 
REMARK    2  A    between atoms: S_5  and  C_6 
REMARK    3  A    between atoms: C_6  and  C_7 
REMARK       I    between atoms: C_7  and  N_8 
REMARK    4  A    between atoms: N_8  and  C_9 
REMARK    5  A    between atoms: C_10  and  O_11 
REMARK    6  A    between atoms: C_22  and  C_23 
REMARK    7  A    between atoms: C_29  and  C_30 
REMARK       I    between atoms: C_30  and  N_31 
REMARK    8  A    between atoms: N_31  and  C_32 
REMARK    9  A    between atoms: C_33  and  O_34 
ROOT
HETATM    1  C   UNL     1      25.941  46.524  50.463  1.00  0.00     0.069 C 
HETATM    2  C   UNL     1      25.391  45.176  50.061  1.00  0.00     0.019 C 
HETATM    3  N   UNL     1      24.728  45.145  48.848  1.00  0.00    -0.353 N 
HETATM    4  C   UNL     1      23.978  44.086  48.375  1.00  0.00     0.087 C 
HETATM    5  C   UNL     1      24.039  42.902  49.025  1.00  0.00     0.055 C 
HETATM    6  C   UNL     1      23.140  41.727  48.680  1.00  0.00     0.019 C 
HETATM    7  N   UNL     1      22.393  40.751  48.392  1.00  0.00    -0.096 N 
HETATM    8  C   UNL     1      25.021  42.712  50.184  1.00  0.00     0.104 C 
HETATM    9  C   UNL     1      25.536  44.028  50.773  1.00  0.00     0.046 C 
HETATM   10  H   UNL     1      24.615  46.018  48.340  1.00  0.00     0.166 HD
ENDROOT
BRANCH   4  11
HETATM   11  S   UNL     1      23.138  44.276  46.865  1.00  0.00    -0.102 SA
BRANCH  11  12
HETATM   12  C   UNL     1      22.176  45.781  47.058  1.00  0.00     0.184 C 
BRANCH  12  13
HETATM   13  C   UNL     1      21.403  45.919  48.361  1.00  0.00     0.231 C 
HETATM   14  N   UNL     1      21.564  47.027  49.157  1.00  0.00    -0.324 N 
HETATM   15  H   UNL     1      21.472  46.821  50.146  1.00  0.00     0.169 HD
HETATM   16  O   UNL     1      20.776  44.949  48.802  1.00  0.00    -0.272 OA
BRANCH  14  17
HETATM   17  C   UNL     1      22.065  48.303  48.838  1.00  0.00     0.070 C 
HETATM   18  C   UNL     1      21.171  49.377  48.681  1.00  0.00     0.095 C 
HETATM   19  C   UNL     1      21.672  50.654  48.398  1.00  0.00     0.041 C 
HETATM   20  C   UNL     1      23.042  50.848  48.199  1.00  0.00     0.026 C 
HETATM   21  C   UNL     1      23.906  49.761  48.248  1.00  0.00     0.036 C 
HETATM   22 CL   UNL     1      25.581  49.980  47.927  1.00  0.00    -0.084 Cl
HETATM   23  C   UNL     1      23.417  48.492  48.545  1.00  0.00     0.056 C 
BRANCH  18  24
HETATM   24  O   UNL     1      19.843  49.090  48.873  1.00  0.00    -0.354 OA
HETATM   25  C   UNL     1      19.234  49.676  50.019  1.00  0.00     0.210 C 
ENDBRANCH  18  24
ENDBRANCH  14  17
ENDBRANCH  12  13
ENDBRANCH  11  12
ENDBRANCH   4  11
BRANCH   8  26
HETATM   26  C   UNL     1      26.166  41.809  49.695  1.00  0.00    -0.044 A 
HETATM   27  C   UNL     1      26.820  40.921  50.572  1.00  0.00     0.008 A 
HETATM   28  C   UNL     1      27.899  40.151  50.139  1.00  0.00     0.001 A 
HETATM   29  C   UNL     1      28.350  40.261  48.827  1.00  0.00     0.000 A 
HETATM   30  C   UNL     1      27.721  41.142  47.948  1.00  0.00     0.001 A 
HETATM   31  C   UNL     1      26.640  41.914  48.378  1.00  0.00     0.008 A 
ENDBRANCH   8  26
BRANCH   9  32
HETATM   32  C   UNL     1      26.135  44.074  52.150  1.00  0.00     0.255 C 
HETATM   33  N   UNL     1      27.506  44.224  52.212  1.00  0.00    -0.321 N 
HETATM   34  H   UNL     1      28.069  44.000  51.408  1.00  0.00     0.169 HD
HETATM   35  O   UNL     1      25.428  43.859  53.133  1.00  0.00    -0.268 OA
BRANCH  33  36
HETATM   36  C   UNL     1      28.213  44.403  53.425  1.00  0.00     0.068 A 
HETATM   37  C   UNL     1      27.994  45.494  54.292  1.00  0.00     0.095 A 
HETATM   38  C   UNL     1      28.691  45.552  55.504  1.00  0.00     0.039 A 
HETATM   39  C   UNL     1      29.615  44.558  55.839  1.00  0.00     0.003 A 
HETATM   40  C   UNL     1      29.875  43.517  54.952  1.00  0.00     0.002 A 
HETATM   41  C   UNL     1      29.190  43.450  53.739  1.00  0.00     0.032 A 
BRANCH  37  42
HETATM   42  O   UNL     1      27.193  46.505  53.824  1.00  0.00    -0.354 OA
HETATM   43  C   UNL     1      26.421  47.224  54.773  1.00  0.00     0.210 C 
ENDBRANCH  37  42
ENDBRANCH  33  36
ENDBRANCH   9  32
TORSDOF 9
ENDMDL
MODEL 5
REMARK VINA RESULT:      -9.8      4.174     10.144
REMARK  9 active torsions:
REMARK  status: ('A' for Active; 'I' for Inactive)
REMARK    1  A    between atoms: C_4  and  S_5 
REMARK    2  A    between atoms: S_5  and  C_6 
REMARK    3  A    between atoms: C_6  and  C_7 
REMARK       I    between atoms: C_7  and  N_8 
REMARK    4  A    between atoms: N_8  and  C_9 
REMARK    5  A    between atoms: C_10  and  O_11 
REMARK    6  A    between atoms: C_22  and  C_23 
REMARK    7  A    between atoms: C_29  and  C_30 
REMARK       I    between atoms: C_30  and  N_31 
REMARK    8  A    between atoms: N_31  and  C_32 
REMARK    9  A    between atoms: C_33  and  O_34 
ROOT
HETATM    1  C   UNL     1      24.132  41.844  48.353  1.00  0.00     0.069 C 
HETATM    2  C   UNL     1      24.813  43.078  48.898  1.00  0.00     0.019 C 
HETATM    3  N   UNL     1      24.023  44.211  48.959  1.00  0.00    -0.353 N 
HETATM    4  C   UNL     1      24.478  45.486  49.229  1.00  0.00     0.087 C 
HETATM    5  C   UNL     1      25.746  45.647  49.668  1.00  0.00     0.055 C 
HETATM    6  C   UNL     1      26.389  47.013  49.844  1.00  0.00     0.019 C 
HETATM    7  N   UNL     1      26.922  48.148  49.990  1.00  0.00    -0.096 N 
HETATM    8  C   UNL     1      26.612  44.424  49.981  1.00  0.00     0.104 C 
HETATM    9  C   UNL     1      26.093  43.129  49.350  1.00  0.00     0.046 C 
HETATM   10  H   UNL     1      23.075  44.155  48.599  1.00  0.00     0.166 HD
ENDROOT
BRANCH   4  11
HETATM   11  S   UNL     1      23.342  46.801  49.165  1.00  0.00    -0.102 SA
BRANCH  11  12
HETATM   12  C   UNL     1      22.066  46.253  48.026  1.00  0.00     0.184 C 
BRANCH  12  13
HETATM   13  C   UNL     1      20.852  45.583  48.651  1.00  0.00     0.231 C 
HETATM   14  N   UNL     1      19.778  46.330  49.072  1.00  0.00    -0.324 N 
HETATM   15  H   UNL     1      19.317  45.937  49.886  1.00  0.00     0.169 HD
HETATM   16  O   UNL     1      20.910  44.387  48.961  1.00  0.00    -0.272 OA
BRANCH  14  17
HETATM   17  C   UNL     1      19.389  47.633  48.712  1.00  0.00     0.070 C 
HETATM   18  C   UNL     1      18.690  47.839  47.509  1.00  0.00     0.095 C 
HETATM   19  C   UNL     1      18.271  49.131  47.168  1.00  0.00     0.041 C 
HETATM   20  C   UNL     1      18.609  50.220  47.977  1.00  0.00     0.026 C 
HETATM   21  C   UNL     1      19.393  50.022  49.106  1.00  0.00     0.036 C 
HETATM   22 CL   UNL     1      19.877  51.366  50.063  1.00  0.00    -0.084 Cl
HETATM   23  C   UNL     1      19.799  48.738  49.460  1.00  0.00     0.056 C 
BRANCH  18  24
HETATM   24  O   UNL     1      18.421  46.716  46.767  1.00  0.00    -0.354 OA
HETATM   25  C   UNL     1      19.023  46.658  45.477  1.00  0.00     0.210 C 
ENDBRANCH  18  24
ENDBRANCH  14  17
ENDBRANCH  12  13
ENDBRANCH  11  12
ENDBRANCH   4  11
BRANCH   8  26
HETATM   26  C   UNL     1      26.745  44.311  51.509  1.00  0.00    -0.044 A 
HETATM   27  C   UNL     1      27.990  44.059  52.116  1.00  0.00     0.008 A 
HETATM   28  C   UNL     1      28.094  43.895  53.498  1.00  0.00     0.001 A 
HETATM   29  C   UNL     1      26.956  43.970  54.295  1.00  0.00     0.000 A 
HETATM   30  C   UNL     1      25.713  44.210  53.709  1.00  0.00     0.001 A 
HETATM   31  C   UNL     1      25.605  44.375  52.326  1.00  0.00     0.008 A 
ENDBRANCH   8  26
BRANCH   9  32
HETATM   32  C   UNL     1      26.998  41.944  49.166  1.00  0.00     0.255 C 
HETATM   33  N   UNL     1      27.054  41.051  50.217  1.00  0.00    -0.321 N 
HETATM   34  H   UNL     1      26.761  41.343  51.135  1.00  0.00     0.169 HD
HETATM   35  O   UNL     1      27.727  41.878  48.176  1.00  0.00    -0.268 OA
BRANCH  33  36
HETATM   36  C   UNL     1      27.763  39.828  50.160  1.00  0.00     0.068 A 
HETATM   37  C   UNL     1      27.381  38.753  49.329  1.00  0.00     0.095 A 
HETATM   38  C   UNL     1      28.183  37.607  49.287  1.00  0.00     0.039 A 
HETATM   39  C   UNL     1      29.331  37.515  50.080  1.00  0.00     0.003 A 
HETATM   40  C   UNL     1      29.669  38.552  50.945  1.00  0.00     0.002 A 
HETATM   41  C   UNL     1      28.876  39.698  51.000  1.00  0.00     0.032 A 
BRANCH  37  42
HETATM   42  O   UNL     1      26.164  38.856  48.705  1.00  0.00    -0.354 OA
HETATM   43  C   UNL     1      26.138  38.733  47.291  1.00  0.00     0.210 C 
ENDBRANCH  37  42
ENDBRANCH  33  36
ENDBRANCH   9  32
TORSDOF 9
ENDMDL
MODEL 6
REMARK VINA RESULT:      -9.8      2.443      3.206
REMARK  9 active torsions:
REMARK  status: ('A' for Active; 'I' for Inactive)
REMARK    1  A    between atoms: C_4  and  S_5 
REMARK    2  A    between atoms: S_5  and  C_6 
REMARK    3  A    between atoms: C_6  and  C_7 
REMARK       I    between atoms: C_7  and  N_8 
REMARK    4  A    between atoms: N_8  and  C_9 
REMARK    5  A    between atoms: C_10  and  O_11 
REMARK    6  A    between atoms: C_22  and  C_23 
REMARK    7  A    between atoms: C_29  and  C_30 
REMARK       I    between atoms: C_30  and  N_31 
REMARK    8  A    between atoms: N_31  and  C_32 
REMARK    9  A    between atoms: C_33  and  O_34 
ROOT
HETATM    1  C   UNL     1      23.808  43.734  47.676  1.00  0.00     0.069 C 
HETATM    2  C   UNL     1      24.252  44.721  48.731  1.00  0.00     0.019 C 
HETATM    3  N   UNL     1      25.421  44.394  49.393  1.00  0.00    -0.353 N 
HETATM    4  C   UNL     1      25.906  45.032  50.517  1.00  0.00     0.087 C 
HETATM    5  C   UNL     1      25.329  46.190  50.910  1.00  0.00     0.055 C 
HETATM    6  C   UNL     1      25.685  46.886  52.214  1.00  0.00     0.019 C 
HETATM    7  N   UNL     1      25.980  47.462  53.296  1.00  0.00    -0.096 N 
HETATM    8  C   UNL     1      24.246  46.841  50.045  1.00  0.00     0.104 C 
HETATM    9  C   UNL     1      23.617  45.884  49.029  1.00  0.00     0.046 C 
HETATM   10  H   UNL     1      25.870  43.511  49.167  1.00  0.00     0.166 HD
ENDROOT
BRANCH   4  11
HETATM   11  S   UNL     1      27.347  44.410  51.264  1.00  0.00    -0.102 SA
BRANCH  11  12
HETATM   12  C   UNL     1      26.795  43.716  52.827  1.00  0.00     0.184 C 
BRANCH  12  13
HETATM   13  C   UNL     1      27.671  42.625  53.422  1.00  0.00     0.231 C 
HETATM   14  N   UNL     1      28.718  42.942  54.254  1.00  0.00    -0.324 N 
HETATM   15  H   UNL     1      29.501  42.303  54.166  1.00  0.00     0.169 HD
HETATM   16  O   UNL     1      27.567  41.465  53.004  1.00  0.00    -0.272 OA
BRANCH  14  17
HETATM   17  C   UNL     1      28.957  44.113  54.997  1.00  0.00     0.070 C 
HETATM   18  C   UNL     1      30.137  44.222  55.754  1.00  0.00     0.095 C 
HETATM   19  C   UNL     1      30.392  45.402  56.465  1.00  0.00     0.041 C 
HETATM   20  C   UNL     1      29.449  46.434  56.484  1.00  0.00     0.026 C 
HETATM   21  C   UNL     1      28.239  46.272  55.823  1.00  0.00     0.036 C 
HETATM   22 CL   UNL     1      27.043  47.505  55.906  1.00  0.00    -0.084 Cl
HETATM   23  C   UNL     1      27.985  45.109  55.100  1.00  0.00     0.056 C 
BRANCH  18  24
HETATM   24  O   UNL     1      30.994  43.152  55.694  1.00  0.00    -0.354 OA
HETATM   25  C   UNL     1      31.720  42.862  56.885  1.00  0.00     0.210 C 
ENDBRANCH  18  24
ENDBRANCH  14  17
ENDBRANCH  12  13
ENDBRANCH  11  12
ENDBRANCH   4  11
BRANCH   8  26
HETATM   26  C   UNL     1      24.856  48.082  49.371  1.00  0.00    -0.044 A 
HETATM   27  C   UNL     1      24.045  49.031  48.720  1.00  0.00     0.008 A 
HETATM   28  C   UNL     1      24.608  50.121  48.056  1.00  0.00     0.001 A 
HETATM   29  C   UNL     1      25.990  50.276  48.022  1.00  0.00     0.000 A 
HETATM   30  C   UNL     1      26.810  49.340  48.653  1.00  0.00     0.001 A 
HETATM   31  C   UNL     1      26.250  48.248  49.319  1.00  0.00     0.008 A 
ENDBRANCH   8  26
BRANCH   9  32
HETATM   32  C   UNL     1      22.279  46.184  48.414  1.00  0.00     0.255 C 
HETATM   33  N   UNL     1      21.173  45.785  49.138  1.00  0.00    -0.321 N 
HETATM   34  H   UNL     1      21.271  45.080  49.850  1.00  0.00     0.169 HD
HETATM   35  O   UNL     1      22.218  46.642  47.274  1.00  0.00    -0.268 OA
BRANCH  33  36
HETATM   36  C   UNL     1      19.845  46.094  48.759  1.00  0.00     0.068 A 
HETATM   37  C   UNL     1      19.029  45.211  48.020  1.00  0.00     0.095 A 
HETATM   38  C   UNL     1      17.705  45.574  47.750  1.00  0.00     0.039 A 
HETATM   39  C   UNL     1      17.205  46.807  48.180  1.00  0.00     0.003 A 
HETATM   40  C   UNL     1      18.033  47.701  48.852  1.00  0.00     0.002 A 
HETATM   41  C   UNL     1      19.356  47.354  49.125  1.00  0.00     0.032 A 
BRANCH  37  42
HETATM   42  O   UNL     1      19.635  44.096  47.501  1.00  0.00    -0.354 OA
HETATM   43  C   UNL     1      19.950  44.104  46.117  1.00  0.00     0.210 C 
ENDBRANCH  37  42
ENDBRANCH  33  36
ENDBRANCH   9  32
TORSDOF 9
ENDMDL
MODEL 7
REMARK VINA RESULT:      -9.7      3.690      4.716
REMARK  9 active torsions:
REMARK  status: ('A' for Active; 'I' for Inactive)
REMARK    1  A    between atoms: C_4  and  S_5 
REMARK    2  A    between atoms: S_5  and  C_6 
REMARK    3  A    between atoms: C_6  and  C_7 
REMARK       I    between atoms: C_7  and  N_8 
REMARK    4  A    between atoms: N_8  and  C_9 
REMARK    5  A    between atoms: C_10  and  O_11 
REMARK    6  A    between atoms: C_22  and  C_23 
REMARK    7  A    between atoms: C_29  and  C_30 
REMARK       I    between atoms: C_30  and  N_31 
REMARK    8  A    between atoms: N_31  and  C_32 
REMARK    9  A    between atoms: C_33  and  O_34 
ROOT
HETATM    1  C   UNL     1      23.519  43.788  47.437  1.00  0.00     0.069 C 
HETATM    2  C   UNL     1      24.034  44.672  48.549  1.00  0.00     0.019 C 
HETATM    3  N   UNL     1      25.191  44.232  49.166  1.00  0.00    -0.353 N 
HETATM    4  C   UNL     1      25.728  44.761  50.323  1.00  0.00     0.087 C 
HETATM    5  C   UNL     1      25.227  45.921  50.804  1.00  0.00     0.055 C 
HETATM    6  C   UNL     1      25.640  46.503  52.146  1.00  0.00     0.019 C 
HETATM    7  N   UNL     1      25.984  46.984  53.260  1.00  0.00    -0.096 N 
HETATM    8  C   UNL     1      24.173  46.692  50.005  1.00  0.00     0.104 C 
HETATM    9  C   UNL     1      23.474  45.846  48.937  1.00  0.00     0.046 C 
HETATM   10  H   UNL     1      25.583  43.342  48.873  1.00  0.00     0.166 HD
ENDROOT
BRANCH   4  11
HETATM   11  S   UNL     1      27.139  44.006  51.001  1.00  0.00    -0.102 SA
BRANCH  11  12
HETATM   12  C   UNL     1      26.942  42.256  50.646  1.00  0.00     0.184 C 
BRANCH  12  13
HETATM   13  C   UNL     1      28.159  41.379  50.903  1.00  0.00     0.231 C 
HETATM   14  N   UNL     1      28.407  40.278  50.119  1.00  0.00    -0.324 N 
HETATM   15  H   UNL     1      28.848  39.520  50.629  1.00  0.00     0.169 HD
HETATM   16  O   UNL     1      28.819  41.542  51.935  1.00  0.00    -0.272 OA
BRANCH  14  17
HETATM   17  C   UNL     1      27.935  39.962  48.832  1.00  0.00     0.070 C 
HETATM   18  C   UNL     1      27.078  38.860  48.661  1.00  0.00     0.095 C 
HETATM   19  C   UNL     1      26.579  38.566  47.385  1.00  0.00     0.041 C 
HETATM   20  C   UNL     1      26.988  39.314  46.277  1.00  0.00     0.026 C 
HETATM   21  C   UNL     1      27.920  40.331  46.439  1.00  0.00     0.036 C 
HETATM   22 CL   UNL     1      28.485  41.204  45.070  1.00  0.00    -0.084 Cl
HETATM   23  C   UNL     1      28.407  40.640  47.707  1.00  0.00     0.056 C 
BRANCH  18  24
HETATM   24  O   UNL     1      26.747  38.169  49.800  1.00  0.00    -0.354 OA
HETATM   25  C   UNL     1      27.092  36.788  49.819  1.00  0.00     0.210 C 
ENDBRANCH  18  24
ENDBRANCH  14  17
ENDBRANCH  12  13
ENDBRANCH  11  12
ENDBRANCH   4  11
BRANCH   8  26
HETATM   26  C   UNL     1      24.846  47.939  49.407  1.00  0.00    -0.044 A 
HETATM   27  C   UNL     1      24.086  48.960  48.803  1.00  0.00     0.008 A 
HETATM   28  C   UNL     1      24.706  50.057  48.206  1.00  0.00     0.001 A 
HETATM   29  C   UNL     1      26.095  50.150  48.193  1.00  0.00     0.000 A 
HETATM   30  C   UNL     1      26.863  49.144  48.777  1.00  0.00     0.001 A 
HETATM   31  C   UNL     1      26.246  48.043  49.376  1.00  0.00     0.008 A 
ENDBRANCH   8  26
BRANCH   9  32
HETATM   32  C   UNL     1      22.148  46.266  48.367  1.00  0.00     0.255 C 
HETATM   33  N   UNL     1      21.031  45.902  49.093  1.00  0.00    -0.321 N 
HETATM   34  H   UNL     1      21.095  45.153  49.764  1.00  0.00     0.169 HD
HETATM   35  O   UNL     1      22.098  46.789  47.255  1.00  0.00    -0.268 OA
BRANCH  33  36
HETATM   36  C   UNL     1      19.720  46.317  48.759  1.00  0.00     0.068 A 
HETATM   37  C   UNL     1      18.770  45.463  48.158  1.00  0.00     0.095 A 
HETATM   38  C   UNL     1      17.476  45.941  47.926  1.00  0.00     0.039 A 
HETATM   39  C   UNL     1      17.135  47.256  48.259  1.00  0.00     0.003 A 
HETATM   40  C   UNL     1      18.093  48.113  48.793  1.00  0.00     0.002 A 
HETATM   41  C   UNL     1      19.388  47.651  49.025  1.00  0.00     0.032 A 
BRANCH  37  42
HETATM   42  O   UNL     1      19.224  44.245  47.719  1.00  0.00    -0.354 OA
HETATM   43  C   UNL     1      19.479  44.101  46.330  1.00  0.00     0.210 C 
ENDBRANCH  37  42
ENDBRANCH  33  36
ENDBRANCH   9  32
TORSDOF 9
ENDMDL
MODEL 8
REMARK VINA RESULT:      -9.5      3.670      9.588
REMARK  9 active torsions:
REMARK  status: ('A' for Active; 'I' for Inactive)
REMARK    1  A    between atoms: C_4  and  S_5 
REMARK    2  A    between atoms: S_5  and  C_6 
REMARK    3  A    between atoms: C_6  and  C_7 
REMARK       I    between atoms: C_7  and  N_8 
REMARK    4  A    between atoms: N_8  and  C_9 
REMARK    5  A    between atoms: C_10  and  O_11 
REMARK    6  A    between atoms: C_22  and  C_23 
REMARK    7  A    between atoms: C_29  and  C_30 
REMARK       I    between atoms: C_30  and  N_31 
REMARK    8  A    between atoms: N_31  and  C_32 
REMARK    9  A    between atoms: C_33  and  O_34 
ROOT
HETATM    1  C   UNL     1      25.896  46.511  50.629  1.00  0.00     0.069 C 
HETATM    2  C   UNL     1      25.401  45.162  50.161  1.00  0.00     0.019 C 
HETATM    3  N   UNL     1      24.712  45.168  48.962  1.00  0.00    -0.353 N 
HETATM    4  C   UNL     1      24.003  44.102  48.445  1.00  0.00     0.087 C 
HETATM    5  C   UNL     1      24.135  42.888  49.024  1.00  0.00     0.055 C 
HETATM    6  C   UNL     1      23.285  41.691  48.630  1.00  0.00     0.019 C 
HETATM    7  N   UNL     1      22.579  40.698  48.302  1.00  0.00    -0.096 N 
HETATM    8  C   UNL     1      25.152  42.680  50.150  1.00  0.00     0.104 C 
HETATM    9  C   UNL     1      25.617  43.985  50.803  1.00  0.00     0.046 C 
HETATM   10  H   UNL     1      24.545  46.061  48.509  1.00  0.00     0.166 HD
ENDROOT
BRANCH   4  11
HETATM   11  S   UNL     1      23.119  44.336  46.966  1.00  0.00    -0.102 SA
BRANCH  11  12
HETATM   12  C   UNL     1      22.085  45.774  47.269  1.00  0.00     0.184 C 
BRANCH  12  13
HETATM   13  C   UNL     1      21.128  45.676  48.446  1.00  0.00     0.231 C 
HETATM   14  N   UNL     1      20.621  46.809  49.035  1.00  0.00    -0.324 N 
HETATM   15  H   UNL     1      20.469  46.704  50.032  1.00  0.00     0.169 HD
HETATM   16  O   UNL     1      20.957  44.584  49.001  1.00  0.00    -0.272 OA
BRANCH  14  17
HETATM   17  C   UNL     1      20.521  48.120  48.531  1.00  0.00     0.070 C 
HETATM   18  C   UNL     1      21.573  49.027  48.753  1.00  0.00     0.095 C 
HETATM   19  C   UNL     1      21.489  50.321  48.221  1.00  0.00     0.041 C 
HETATM   20  C   UNL     1      20.340  50.732  47.540  1.00  0.00     0.026 C 
HETATM   21  C   UNL     1      19.262  49.864  47.422  1.00  0.00     0.036 C 
HETATM   22 CL   UNL     1      17.816  50.390  46.654  1.00  0.00    -0.084 Cl
HETATM   23  C   UNL     1      19.344  48.572  47.933  1.00  0.00     0.056 C 
BRANCH  18  24
HETATM   24  O   UNL     1      22.652  48.544  49.449  1.00  0.00    -0.354 OA
HETATM   25  C   UNL     1      23.931  48.999  49.020  1.00  0.00     0.210 C 
ENDBRANCH  18  24
ENDBRANCH  14  17
ENDBRANCH  12  13
ENDBRANCH  11  12
ENDBRANCH   4  11
BRANCH   8  26
HETATM   26  C   UNL     1      26.327  41.863  49.586  1.00  0.00    -0.044 A 
HETATM   27  C   UNL     1      26.667  41.922  48.220  1.00  0.00     0.008 A 
HETATM   28  C   UNL     1      27.692  41.131  47.702  1.00  0.00     0.001 A 
HETATM   29  C   UNL     1      28.389  40.262  48.536  1.00  0.00     0.000 A 
HETATM   30  C   UNL     1      28.060  40.183  49.888  1.00  0.00     0.001 A 
HETATM   31  C   UNL     1      27.034  40.974  50.411  1.00  0.00     0.008 A 
ENDBRANCH   8  26
BRANCH   9  32
HETATM   32  C   UNL     1      26.246  43.982  52.168  1.00  0.00     0.255 C 
HETATM   33  N   UNL     1      27.623  44.081  52.204  1.00  0.00    -0.321 N 
HETATM   34  H   UNL     1      28.160  43.853  51.383  1.00  0.00     0.169 HD
HETATM   35  O   UNL     1      25.552  43.773  53.161  1.00  0.00    -0.268 OA
BRANCH  33  36
HETATM   36  C   UNL     1      28.360  44.210  53.404  1.00  0.00     0.068 A 
HETATM   37  C   UNL     1      28.220  45.307  54.281  1.00  0.00     0.095 A 
HETATM   38  C   UNL     1      28.941  45.315  55.480  1.00  0.00     0.039 A 
HETATM   39  C   UNL     1      29.811  44.267  55.793  1.00  0.00     0.003 A 
HETATM   40  C   UNL     1      29.994  43.219  54.895  1.00  0.00     0.002 A 
HETATM   41  C   UNL     1      29.285  43.199  53.695  1.00  0.00     0.032 A 
BRANCH  37  42
HETATM   42  O   UNL     1      27.472  46.365  53.833  1.00  0.00    -0.354 OA
HETATM   43  C   UNL     1      26.448  46.853  54.687  1.00  0.00     0.210 C 
ENDBRANCH  37  42
ENDBRANCH  33  36
ENDBRANCH   9  32
TORSDOF 9
ENDMDL
MODEL 9
REMARK VINA RESULT:      -9.5      3.583      9.584
REMARK  9 active torsions:
REMARK  status: ('A' for Active; 'I' for Inactive)
REMARK    1  A    between atoms: C_4  and  S_5 
REMARK    2  A    between atoms: S_5  and  C_6 
REMARK    3  A    between atoms: C_6  and  C_7 
REMARK       I    between atoms: C_7  and  N_8 
REMARK    4  A    between atoms: N_8  and  C_9 
REMARK    5  A    between atoms: C_10  and  O_11 
REMARK    6  A    between atoms: C_22  and  C_23 
REMARK    7  A    between atoms: C_29  and  C_30 
REMARK       I    between atoms: C_30  and  N_31 
REMARK    8  A    between atoms: N_31  and  C_32 
REMARK    9  A    between atoms: C_33  and  O_34 
ROOT
HETATM    1  C   UNL     1      25.623  46.854  50.652  1.00  0.00     0.069 C 
HETATM    2  C   UNL     1      25.150  45.475  50.254  1.00  0.00     0.019 C 
HETATM    3  N   UNL     1      24.550  45.392  49.011  1.00  0.00    -0.353 N 
HETATM    4  C   UNL     1      23.870  44.293  48.526  1.00  0.00     0.087 C 
HETATM    5  C   UNL     1      23.948  43.126  49.204  1.00  0.00     0.055 C 
HETATM    6  C   UNL     1      23.117  41.906  48.842  1.00  0.00     0.019 C 
HETATM    7  N   UNL     1      22.427  40.894  48.540  1.00  0.00    -0.096 N 
HETATM    8  C   UNL     1      24.879  43.001  50.414  1.00  0.00     0.104 C 
HETATM    9  C   UNL     1      25.309  44.350  50.997  1.00  0.00     0.046 C 
HETATM   10  H   UNL     1      24.425  46.249  48.480  1.00  0.00     0.166 HD
ENDROOT
BRANCH   4  11
HETATM   11  S   UNL     1      23.098  44.416  46.974  1.00  0.00    -0.102 SA
BRANCH  11  12
HETATM   12  C   UNL     1      21.926  45.768  47.147  1.00  0.00     0.184 C 
BRANCH  12  13
HETATM   13  C   UNL     1      20.964  45.674  48.320  1.00  0.00     0.231 C 
HETATM   14  N   UNL     1      20.426  46.809  48.878  1.00  0.00    -0.324 N 
HETATM   15  H   UNL     1      20.269  46.723  49.877  1.00  0.00     0.169 HD
HETATM   16  O   UNL     1      20.815  44.592  48.900  1.00  0.00    -0.272 OA
BRANCH  14  17
HETATM   17  C   UNL     1      20.298  48.104  48.343  1.00  0.00     0.070 C 
HETATM   18  C   UNL     1      21.311  49.051  48.576  1.00  0.00     0.095 C 
HETATM   19  C   UNL     1      21.201  50.330  48.013  1.00  0.00     0.041 C 
HETATM   20  C   UNL     1      20.060  50.687  47.289  1.00  0.00     0.026 C 
HETATM   21  C   UNL     1      19.016  49.780  47.157  1.00  0.00     0.036 C 
HETATM   22 CL   UNL     1      17.578  50.240  46.334  1.00  0.00    -0.084 Cl
HETATM   23  C   UNL     1      19.125  48.503  47.699  1.00  0.00     0.056 C 
BRANCH  18  24
HETATM   24  O   UNL     1      22.383  48.620  49.316  1.00  0.00    -0.354 OA
HETATM   25  C   UNL     1      23.670  48.885  48.768  1.00  0.00     0.210 C 
ENDBRANCH  18  24
ENDBRANCH  14  17
ENDBRANCH  12  13
ENDBRANCH  11  12
ENDBRANCH   4  11
BRANCH   8  26
HETATM   26  C   UNL     1      26.084  42.138  50.000  1.00  0.00    -0.044 A 
HETATM   27  C   UNL     1      26.562  42.141  48.676  1.00  0.00     0.008 A 
HETATM   28  C   UNL     1      27.614  41.309  48.292  1.00  0.00     0.001 A 
HETATM   29  C   UNL     1      28.200  40.454  49.221  1.00  0.00     0.000 A 
HETATM   30  C   UNL     1      27.733  40.432  50.535  1.00  0.00     0.001 A 
HETATM   31  C   UNL     1      26.680  41.264  50.923  1.00  0.00     0.008 A 
ENDBRANCH   8  26
BRANCH   9  32
HETATM   32  C   UNL     1      25.837  44.449  52.401  1.00  0.00     0.255 C 
HETATM   33  N   UNL     1      27.175  44.767  52.526  1.00  0.00    -0.321 N 
HETATM   34  H   UNL     1      27.796  44.628  51.745  1.00  0.00     0.169 HD
HETATM   35  O   UNL     1      25.120  44.132  53.349  1.00  0.00    -0.268 OA
BRANCH  33  36
HETATM   36  C   UNL     1      27.800  45.014  53.771  1.00  0.00     0.068 A 
HETATM   37  C   UNL     1      28.725  44.124  54.359  1.00  0.00     0.095 A 
HETATM   38  C   UNL     1      29.345  44.483  55.561  1.00  0.00     0.039 A 
HETATM   39  C   UNL     1      29.032  45.694  56.186  1.00  0.00     0.003 A 
HETATM   40  C   UNL     1      28.073  46.539  55.635  1.00  0.00     0.002 A 
HETATM   41  C   UNL     1      27.444  46.191  54.440  1.00  0.00     0.032 A 
BRANCH  37  42
HETATM   42  O   UNL     1      28.860  42.893  53.769  1.00  0.00    -0.354 OA
HETATM   43  C   UNL     1      30.007  42.674  52.963  1.00  0.00     0.210 C 
ENDBRANCH  37  42
ENDBRANCH  33  36
ENDBRANCH   9  32
TORSDOF 9
ENDMDL
MODEL 10
REMARK VINA RESULT:      -9.5      3.722      9.761
REMARK  9 active torsions:
REMARK  status: ('A' for Active; 'I' for Inactive)
REMARK    1  A    between atoms: C_4  and  S_5 
REMARK    2  A    between atoms: S_5  and  C_6 
REMARK    3  A    between atoms: C_6  and  C_7 
REMARK       I    between atoms: C_7  and  N_8 
REMARK    4  A    between atoms: N_8  and  C_9 
REMARK    5  A    between atoms: C_10  and  O_11 
REMARK    6  A    between atoms: C_22  and  C_23 
REMARK    7  A    between atoms: C_29  and  C_30 
REMARK       I    between atoms: C_30  and  N_31 
REMARK    8  A    between atoms: N_31  and  C_32 
REMARK    9  A    between atoms: C_33  and  O_34 
ROOT
HETATM    1  C   UNL     1      22.715  43.418  49.301  1.00  0.00     0.069 C 
HETATM    2  C   UNL     1      23.784  44.454  49.563  1.00  0.00     0.019 C 
HETATM    3  N   UNL     1      23.360  45.769  49.508  1.00  0.00    -0.353 N 
HETATM    4  C   UNL     1      24.187  46.874  49.515  1.00  0.00     0.087 C 
HETATM    5  C   UNL     1      25.499  46.705  49.798  1.00  0.00     0.055 C 
HETATM    6  C   UNL     1      26.517  47.828  49.680  1.00  0.00     0.019 C 
HETATM    7  N   UNL     1      27.361  48.760  49.582  1.00  0.00    -0.096 N 
HETATM    8  C   UNL     1      26.022  45.332  50.227  1.00  0.00     0.104 C 
HETATM    9  C   UNL     1      25.077  44.180  49.875  1.00  0.00     0.046 C 
HETATM   10  H   UNL     1      22.393  45.951  49.255  1.00  0.00     0.166 HD
ENDROOT
BRANCH   4  11
HETATM   11  S   UNL     1      23.469  48.447  49.341  1.00  0.00    -0.102 SA
BRANCH  11  12
HETATM   12  C   UNL     1      21.863  48.141  48.594  1.00  0.00     0.184 C 
BRANCH  12  13
HETATM   13  C   UNL     1      21.214  49.325  47.894  1.00  0.00     0.231 C 
HETATM   14  N   UNL     1      19.948  49.220  47.368  1.00  0.00    -0.324 N 
HETATM   15  H   UNL     1      19.820  49.780  46.532  1.00  0.00     0.169 HD
HETATM   16  O   UNL     1      21.895  50.321  47.624  1.00  0.00    -0.272 OA
BRANCH  14  17
HETATM   17  C   UNL     1      18.924  48.300  47.658  1.00  0.00     0.070 C 
HETATM   18  C   UNL     1      18.161  48.462  48.828  1.00  0.00     0.095 C 
HETATM   19  C   UNL     1      17.117  47.567  49.099  1.00  0.00     0.041 C 
HETATM   20  C   UNL     1      16.883  46.478  48.255  1.00  0.00     0.026 C 
HETATM   21  C   UNL     1      17.712  46.264  47.161  1.00  0.00     0.036 C 
HETATM   22 CL   UNL     1      17.478  44.884  46.163  1.00  0.00    -0.084 Cl
HETATM   23  C   UNL     1      18.740  47.159  46.876  1.00  0.00     0.056 C 
BRANCH  18  24
HETATM   24  O   UNL     1      18.475  49.546  49.609  1.00  0.00    -0.354 OA
HETATM   25  C   UNL     1      18.903  49.259  50.937  1.00  0.00     0.210 C 
ENDBRANCH  18  24
ENDBRANCH  14  17
ENDBRANCH  12  13
ENDBRANCH  11  12
ENDBRANCH   4  11
BRANCH   8  26
HETATM   26  C   UNL     1      26.331  45.389  51.733  1.00  0.00    -0.044 A 
HETATM   27  C   UNL     1      25.644  46.275  52.585  1.00  0.00     0.008 A 
HETATM   28  C   UNL     1      25.972  46.368  53.938  1.00  0.00     0.001 A 
HETATM   29  C   UNL     1      26.997  45.585  54.460  1.00  0.00     0.000 A 
HETATM   30  C   UNL     1      27.695  44.710  53.629  1.00  0.00     0.001 A 
HETATM   31  C   UNL     1      27.369  44.613  52.274  1.00  0.00     0.008 A 
ENDBRANCH   8  26
BRANCH   9  32
HETATM   32  C   UNL     1      25.579  42.765  49.807  1.00  0.00     0.255 C 
HETATM   33  N   UNL     1      26.566  42.514  48.875  1.00  0.00    -0.321 N 
HETATM   34  H   UNL     1      26.699  43.150  48.106  1.00  0.00     0.169 HD
HETATM   35  O   UNL     1      25.027  41.886  50.468  1.00  0.00    -0.268 OA
BRANCH  33  36
HETATM   36  C   UNL     1      27.228  41.268  48.762  1.00  0.00     0.068 A 
HETATM   37  C   UNL     1      28.042  40.732  49.783  1.00  0.00     0.095 A 
HETATM   38  C   UNL     1      28.601  39.461  49.610  1.00  0.00     0.039 A 
HETATM   39  C   UNL     1      28.381  38.743  48.431  1.00  0.00     0.003 A 
HETATM   40  C   UNL     1      27.630  39.303  47.401  1.00  0.00     0.002 A 
HETATM   41  C   UNL     1      27.070  40.571  47.558  1.00  0.00     0.032 A 
BRANCH  37  42
HETATM   42  O   UNL     1      28.337  41.558  50.837  1.00  0.00    -0.354 OA
HETATM   43  C   UNL     1      28.118  41.056  52.146  1.00  0.00     0.210 C 
ENDBRANCH  37  42
ENDBRANCH  33  36
ENDBRANCH   9  32
TORSDOF 9
ENDMDL
