MODEL 1
REMARK VINA RESULT:      -8.1      0.000      0.000
REMARK  2 active torsions:
REMARK  status: ('A' for Active; 'I' for Inactive)
REMARK    1  A    between atoms: C_3  and  C_4 
REMARK       I    between atoms: C_4  and  N_5 
REMARK    2  A    between atoms: N_5  and  C_6 
ROOT
HETATM    1  C   UNL     1      26.421  45.127  52.193  1.00  0.00     0.051 C 
HETATM    2  C   UNL     1      26.928  43.832  51.606  1.00  0.00    -0.021 A 
HETATM    3  C   UNL     1      27.720  42.957  52.489  1.00  0.00     0.061 A 
HETATM    4  C   UNL     1      28.109  41.732  52.066  1.00  0.00     0.022 A 
HETATM    5  C   UNL     1      28.775  40.667  52.900  1.00  0.00     0.069 C 
HETATM    6  N   UNL     1      27.856  41.360  50.763  1.00  0.00    -0.349 N 
HETATM    7  C   UNL     1      27.168  42.120  49.845  1.00  0.00     0.121 A 
HETATM    8  S   UNL     1      27.011  41.490  48.298  1.00  0.00    -0.059 SA
HETATM    9  C   UNL     1      26.627  43.426  50.350  1.00  0.00     0.075 A 
HETATM   10  C   UNL     1      25.579  44.126  49.501  1.00  0.00     0.023 C 
HETATM   11  N   UNL     1      24.710  44.708  48.796  1.00  0.00    -0.096 N 
HETATM   12  H   UNL     1      28.169  40.450  50.435  1.00  0.00     0.166 HD
ENDROOT
BRANCH   3  13
HETATM   13  C   UNL     1      28.003  43.351  53.913  1.00  0.00     0.258 C 
HETATM   14  N   UNL     1      29.291  43.822  54.086  1.00  0.00    -0.323 N 
HETATM   15  H   UNL     1      29.882  43.854  53.266  1.00  0.00     0.169 HD
HETATM   16  O   UNL     1      27.131  43.228  54.762  1.00  0.00    -0.267 OA
BRANCH  14  17
HETATM   17  C   UNL     1      29.918  44.151  55.307  1.00  0.00     0.035 A 
HETATM   18  C   UNL     1      29.675  45.328  56.016  1.00  0.00     0.029 A 
HETATM   19  C   UNL     1      30.319  45.567  57.234  1.00  0.00     0.002 A 
HETATM   20  C   UNL     1      31.206  44.628  57.755  1.00  0.00     0.000 A 
HETATM   21  C   UNL     1      31.457  43.452  57.055  1.00  0.00     0.002 A 
HETATM   22  C   UNL     1      30.823  43.218  55.832  1.00  0.00     0.029 A 
ENDBRANCH  14  17
ENDBRANCH   3  13
TORSDOF 2
ENDMDL
MODEL 2
REMARK VINA RESULT:      -8.0      1.083      2.813
REMARK  2 active torsions:
REMARK  status: ('A' for Active; 'I' for Inactive)
REMARK    1  A    between atoms: C_3  and  C_4 
REMARK       I    between atoms: C_4  and  N_5 
REMARK    2  A    between atoms: N_5  and  C_6 
ROOT
HETATM    1  C   UNL     1      28.673  40.662  53.203  1.00  0.00     0.051 C 
HETATM    2  C   UNL     1      27.963  41.493  52.162  1.00  0.00    -0.021 A 
HETATM    3  C   UNL     1      27.553  42.854  52.552  1.00  0.00     0.061 A 
HETATM    4  C   UNL     1      27.015  43.693  51.637  1.00  0.00     0.022 A 
HETATM    5  C   UNL     1      26.701  45.154  51.838  1.00  0.00     0.069 C 
HETATM    6  N   UNL     1      26.750  43.223  50.368  1.00  0.00    -0.349 N 
HETATM    7  C   UNL     1      27.050  41.958  49.917  1.00  0.00     0.121 A 
HETATM    8  S   UNL     1      26.599  41.582  48.345  1.00  0.00    -0.059 SA
HETATM    9  C   UNL     1      27.760  41.066  50.894  1.00  0.00     0.075 A 
HETATM   10  C   UNL     1      28.417  39.810  50.345  1.00  0.00     0.023 C 
HETATM   11  N   UNL     1      28.962  38.768  49.892  1.00  0.00    -0.096 N 
HETATM   12  H   UNL     1      26.323  43.844  49.686  1.00  0.00     0.166 HD
ENDROOT
BRANCH   3  13
HETATM   13  C   UNL     1      27.837  43.379  53.932  1.00  0.00     0.258 C 
HETATM   14  N   UNL     1      29.151  43.781  54.086  1.00  0.00    -0.323 N 
HETATM   15  H   UNL     1      29.757  43.688  53.282  1.00  0.00     0.169 HD
HETATM   16  O   UNL     1      26.944  43.403  54.769  1.00  0.00    -0.267 OA
BRANCH  14  17
HETATM   17  C   UNL     1      29.777  44.197  55.280  1.00  0.00     0.035 A 
HETATM   18  C   UNL     1      29.493  45.397  55.934  1.00  0.00     0.029 A 
HETATM   19  C   UNL     1      30.140  45.724  57.129  1.00  0.00     0.002 A 
HETATM   20  C   UNL     1      31.073  44.850  57.684  1.00  0.00     0.000 A 
HETATM   21  C   UNL     1      31.366  43.653  57.038  1.00  0.00     0.002 A 
HETATM   22  C   UNL     1      30.728  43.331  55.838  1.00  0.00     0.029 A 
ENDBRANCH  14  17
ENDBRANCH   3  13
TORSDOF 2
ENDMDL
MODEL 3
REMARK VINA RESULT:      -7.8      1.510      2.779
REMARK  2 active torsions:
REMARK  status: ('A' for Active; 'I' for Inactive)
REMARK    1  A    between atoms: C_3  and  C_4 
REMARK       I    between atoms: C_4  and  N_5 
REMARK    2  A    between atoms: N_5  and  C_6 
ROOT
HETATM    1  C   UNL     1      27.542  42.022  52.178  1.00  0.00     0.051 C 
HETATM    2  C   UNL     1      26.675  43.197  51.793  1.00  0.00    -0.021 A 
HETATM    3  C   UNL     1      26.499  44.261  52.799  1.00  0.00     0.061 A 
HETATM    4  C   UNL     1      25.831  45.394  52.483  1.00  0.00     0.022 A 
HETATM    5  C   UNL     1      25.710  46.629  53.338  1.00  0.00     0.069 C 
HETATM    6  N   UNL     1      25.219  45.492  51.251  1.00  0.00    -0.349 N 
HETATM    7  C   UNL     1      25.282  44.538  50.261  1.00  0.00     0.121 A 
HETATM    8  S   UNL     1      24.425  44.845  48.852  1.00  0.00    -0.059 SA
HETATM    9  C   UNL     1      26.128  43.336  50.564  1.00  0.00     0.075 A 
HETATM   10  C   UNL     1      26.513  42.439  49.398  1.00  0.00     0.023 C 
HETATM   11  N   UNL     1      26.832  41.694  48.433  1.00  0.00    -0.096 N 
HETATM   12  H   UNL     1      24.695  46.332  51.021  1.00  0.00     0.166 HD
ENDROOT
BRANCH   3  13
HETATM   13  C   UNL     1      27.162  44.166  54.145  1.00  0.00     0.258 C 
HETATM   14  N   UNL     1      28.467  44.620  54.127  1.00  0.00    -0.323 N 
HETATM   15  H   UNL     1      28.823  44.960  53.243  1.00  0.00     0.169 HD
HETATM   16  O   UNL     1      26.540  43.715  55.098  1.00  0.00    -0.267 OA
BRANCH  14  17
HETATM   17  C   UNL     1      29.406  44.551  55.178  1.00  0.00     0.035 A 
HETATM   18  C   UNL     1      29.531  45.518  56.177  1.00  0.00     0.029 A 
HETATM   19  C   UNL     1      30.471  45.362  57.201  1.00  0.00     0.002 A 
HETATM   20  C   UNL     1      31.288  44.234  57.238  1.00  0.00     0.000 A 
HETATM   21  C   UNL     1      31.172  43.265  56.246  1.00  0.00     0.002 A 
HETATM   22  C   UNL     1      30.242  43.427  55.216  1.00  0.00     0.029 A 
ENDBRANCH  14  17
ENDBRANCH   3  13
TORSDOF 2
ENDMDL
MODEL 4
REMARK VINA RESULT:      -7.6      3.152      7.006
REMARK  2 active torsions:
REMARK  status: ('A' for Active; 'I' for Inactive)
REMARK    1  A    between atoms: C_3  and  C_4 
REMARK       I    between atoms: C_4  and  N_5 
REMARK    2  A    between atoms: N_5  and  C_6 
ROOT
HETATM    1  C   UNL     1      30.504  42.823  53.526  1.00  0.00     0.051 C 
HETATM    2  C   UNL     1      29.627  43.815  54.250  1.00  0.00    -0.021 A 
HETATM    3  C   UNL     1      28.356  44.189  53.602  1.00  0.00     0.061 A 
HETATM    4  C   UNL     1      27.470  44.983  54.245  1.00  0.00     0.022 A 
HETATM    5  C   UNL     1      26.072  45.317  53.790  1.00  0.00     0.069 C 
HETATM    6  N   UNL     1      27.818  45.531  55.462  1.00  0.00    -0.349 N 
HETATM    7  C   UNL     1      28.996  45.284  56.130  1.00  0.00     0.121 A 
HETATM    8  S   UNL     1      29.233  46.092  57.581  1.00  0.00    -0.059 SA
HETATM    9  C   UNL     1      29.926  44.305  55.476  1.00  0.00     0.075 A 
HETATM   10  C   UNL     1      31.054  43.737  56.322  1.00  0.00     0.023 C 
HETATM   11  N   UNL     1      31.990  43.267  57.023  1.00  0.00    -0.096 N 
HETATM   12  H   UNL     1      27.164  46.148  55.936  1.00  0.00     0.166 HD
ENDROOT
BRANCH   3  13
HETATM   13  C   UNL     1      27.965  43.598  52.276  1.00  0.00     0.258 C 
HETATM   14  N   UNL     1      27.510  42.298  52.388  1.00  0.00    -0.323 N 
HETATM   15  H   UNL     1      27.485  41.899  53.318  1.00  0.00     0.169 HD
HETATM   16  O   UNL     1      28.077  44.266  51.256  1.00  0.00    -0.267 OA
BRANCH  14  17
HETATM   17  C   UNL     1      27.188  41.416  51.335  1.00  0.00     0.035 A 
HETATM   18  C   UNL     1      25.973  41.431  50.648  1.00  0.00     0.029 A 
HETATM   19  C   UNL     1      25.742  40.539  49.596  1.00  0.00     0.002 A 
HETATM   20  C   UNL     1      26.727  39.629  49.219  1.00  0.00     0.000 A 
HETATM   21  C   UNL     1      27.941  39.604  49.899  1.00  0.00     0.002 A 
HETATM   22  C   UNL     1      28.168  40.487  50.957  1.00  0.00     0.029 A 
ENDBRANCH  14  17
ENDBRANCH   3  13
TORSDOF 2
ENDMDL
MODEL 5
REMARK VINA RESULT:      -7.3      2.247      3.520
REMARK  2 active torsions:
REMARK  status: ('A' for Active; 'I' for Inactive)
REMARK    1  A    between atoms: C_3  and  C_4 
REMARK       I    between atoms: C_4  and  N_5 
REMARK    2  A    between atoms: N_5  and  C_6 
ROOT
HETATM    1  C   UNL     1      25.995  42.134  51.412  1.00  0.00     0.051 C 
HETATM    2  C   UNL     1      25.350  43.472  51.144  1.00  0.00    -0.021 A 
HETATM    3  C   UNL     1      25.559  44.533  52.147  1.00  0.00     0.061 A 
HETATM    4  C   UNL     1      25.107  45.787  51.917  1.00  0.00     0.022 A 
HETATM    5  C   UNL     1      25.382  47.006  52.760  1.00  0.00     0.069 C 
HETATM    6  N   UNL     1      24.349  46.032  50.791  1.00  0.00    -0.349 N 
HETATM    7  C   UNL     1      24.057  45.103  49.818  1.00  0.00     0.121 A 
HETATM    8  S   UNL     1      23.082  45.608  48.551  1.00  0.00    -0.059 SA
HETATM    9  C   UNL     1      24.664  43.744  50.010  1.00  0.00     0.075 A 
HETATM   10  C   UNL     1      24.668  42.804  48.815  1.00  0.00     0.023 C 
HETATM   11  N   UNL     1      24.671  42.024  47.824  1.00  0.00    -0.096 N 
HETATM   12  H   UNL     1      23.988  46.969  50.629  1.00  0.00     0.166 HD
ENDROOT
BRANCH   3  13
HETATM   13  C   UNL     1      26.382  44.277  53.379  1.00  0.00     0.258 C 
HETATM   14  N   UNL     1      27.719  44.581  53.195  1.00  0.00    -0.323 N 
HETATM   15  H   UNL     1      27.988  44.934  52.286  1.00  0.00     0.169 HD
HETATM   16  O   UNL     1      25.847  43.840  54.388  1.00  0.00    -0.267 OA
BRANCH  14  17
HETATM   17  C   UNL     1      28.776  44.339  54.097  1.00  0.00     0.035 A 
HETATM   18  C   UNL     1      29.637  43.243  54.015  1.00  0.00     0.029 A 
HETATM   19  C   UNL     1      30.679  43.090  54.934  1.00  0.00     0.002 A 
HETATM   20  C   UNL     1      30.874  44.036  55.939  1.00  0.00     0.000 A 
HETATM   21  C   UNL     1      30.020  45.131  56.030  1.00  0.00     0.002 A 
HETATM   22  C   UNL     1      28.971  45.278  55.119  1.00  0.00     0.029 A 
ENDBRANCH  14  17
ENDBRANCH   3  13
TORSDOF 2
ENDMDL
MODEL 6
REMARK VINA RESULT:      -7.2      2.739      4.174
REMARK  2 active torsions:
REMARK  status: ('A' for Active; 'I' for Inactive)
REMARK    1  A    between atoms: C_3  and  C_4 
REMARK       I    between atoms: C_4  and  N_5 
REMARK    2  A    between atoms: N_5  and  C_6 
ROOT
HETATM    1  C   UNL     1      25.201  47.143  51.565  1.00  0.00     0.051 C 
HETATM    2  C   UNL     1      24.637  46.114  50.616  1.00  0.00    -0.021 A 
HETATM    3  C   UNL     1      24.923  44.698  50.911  1.00  0.00     0.061 A 
HETATM    4  C   UNL     1      24.356  43.718  50.170  1.00  0.00     0.022 A 
HETATM    5  C   UNL     1      24.418  42.238  50.446  1.00  0.00     0.069 C 
HETATM    6  N   UNL     1      23.602  44.061  49.068  1.00  0.00    -0.349 N 
HETATM    7  C   UNL     1      23.313  45.349  48.679  1.00  0.00     0.121 A 
HETATM    8  S   UNL     1      22.410  45.538  47.277  1.00  0.00    -0.059 SA
HETATM    9  C   UNL     1      23.838  46.435  49.572  1.00  0.00     0.075 A 
HETATM   10  C   UNL     1      23.262  47.831  49.391  1.00  0.00     0.023 C 
HETATM   11  N   UNL     1      22.786  48.988  49.241  1.00  0.00    -0.096 N 
HETATM   12  H   UNL     1      23.194  43.326  48.495  1.00  0.00     0.166 HD
ENDROOT
BRANCH   3  13
HETATM   13  C   UNL     1      25.744  44.312  52.110  1.00  0.00     0.258 C 
HETATM   14  N   UNL     1      27.102  44.336  51.853  1.00  0.00    -0.323 N 
HETATM   15  H   UNL     1      27.388  44.607  50.921  1.00  0.00     0.169 HD
HETATM   16  O   UNL     1      25.187  44.014  53.158  1.00  0.00    -0.267 OA
BRANCH  14  17
HETATM   17  C   UNL     1      28.138  43.908  52.710  1.00  0.00     0.035 A 
HETATM   18  C   UNL     1      29.041  42.892  52.396  1.00  0.00     0.029 A 
HETATM   19  C   UNL     1      30.057  42.545  53.292  1.00  0.00     0.002 A 
HETATM   20  C   UNL     1      30.182  43.217  54.507  1.00  0.00     0.000 A 
HETATM   21  C   UNL     1      29.284  44.229  54.830  1.00  0.00     0.002 A 
HETATM   22  C   UNL     1      28.262  44.568  53.940  1.00  0.00     0.029 A 
ENDBRANCH  14  17
ENDBRANCH   3  13
TORSDOF 2
ENDMDL
MODEL 7
REMARK VINA RESULT:      -7.0      2.954      6.565
REMARK  2 active torsions:
REMARK  status: ('A' for Active; 'I' for Inactive)
REMARK    1  A    between atoms: C_3  and  C_4 
REMARK       I    between atoms: C_4  and  N_5 
REMARK    2  A    between atoms: N_5  and  C_6 
ROOT
HETATM    1  C   UNL     1      29.995  42.907  54.825  1.00  0.00     0.051 C 
HETATM    2  C   UNL     1      28.905  43.880  54.447  1.00  0.00    -0.021 A 
HETATM    3  C   UNL     1      27.869  43.401  53.514  1.00  0.00     0.061 A 
HETATM    4  C   UNL     1      26.802  44.179  53.221  1.00  0.00     0.022 A 
HETATM    5  C   UNL     1      25.589  43.772  52.424  1.00  0.00     0.069 C 
HETATM    6  N   UNL     1      26.754  45.466  53.713  1.00  0.00    -0.349 N 
HETATM    7  C   UNL     1      27.691  46.026  54.552  1.00  0.00     0.121 A 
HETATM    8  S   UNL     1      27.457  47.627  54.997  1.00  0.00    -0.059 SA
HETATM    9  C   UNL     1      28.810  45.122  54.978  1.00  0.00     0.075 A 
HETATM   10  C   UNL     1      29.660  45.566  56.158  1.00  0.00     0.023 C 
HETATM   11  N   UNL     1      30.365  45.934  57.136  1.00  0.00    -0.096 N 
HETATM   12  H   UNL     1      25.965  46.062  53.475  1.00  0.00     0.166 HD
ENDROOT
BRANCH   3  13
HETATM   13  C   UNL     1      27.910  42.000  52.971  1.00  0.00     0.258 C 
HETATM   14  N   UNL     1      28.407  41.945  51.682  1.00  0.00    -0.323 N 
HETATM   15  H   UNL     1      28.685  42.822  51.260  1.00  0.00     0.169 HD
HETATM   16  O   UNL     1      27.518  41.068  53.661  1.00  0.00    -0.267 OA
BRANCH  14  17
HETATM   17  C   UNL     1      28.460  40.816  50.838  1.00  0.00     0.035 A 
HETATM   18  C   UNL     1      27.879  40.761  49.570  1.00  0.00     0.029 A 
HETATM   19  C   UNL     1      27.999  39.610  48.785  1.00  0.00     0.002 A 
HETATM   20  C   UNL     1      28.708  38.508  49.258  1.00  0.00     0.000 A 
HETATM   21  C   UNL     1      29.289  38.552  50.522  1.00  0.00     0.002 A 
HETATM   22  C   UNL     1      29.159  39.697  51.312  1.00  0.00     0.029 A 
ENDBRANCH  14  17
ENDBRANCH   3  13
TORSDOF 2
ENDMDL
MODEL 8
REMARK VINA RESULT:      -7.0      3.509      5.012
REMARK  2 active torsions:
REMARK  status: ('A' for Active; 'I' for Inactive)
REMARK    1  A    between atoms: C_3  and  C_4 
REMARK       I    between atoms: C_4  and  N_5 
REMARK    2  A    between atoms: N_5  and  C_6 
ROOT
HETATM    1  C   UNL     1      26.303  47.965  49.927  1.00  0.00     0.051 C 
HETATM    2  C   UNL     1      25.094  47.106  49.645  1.00  0.00    -0.021 A 
HETATM    3  C   UNL     1      25.214  45.663  49.924  1.00  0.00     0.061 A 
HETATM    4  C   UNL     1      24.138  44.853  49.803  1.00  0.00     0.022 A 
HETATM    5  C   UNL     1      24.059  43.402  50.206  1.00  0.00     0.069 C 
HETATM    6  N   UNL     1      22.960  45.370  49.305  1.00  0.00    -0.349 N 
HETATM    7  C   UNL     1      22.757  46.689  48.971  1.00  0.00     0.121 A 
HETATM    8  S   UNL     1      21.255  47.094  48.342  1.00  0.00    -0.059 SA
HETATM    9  C   UNL     1      23.913  47.613  49.223  1.00  0.00     0.075 A 
HETATM   10  C   UNL     1      23.632  49.107  49.206  1.00  0.00     0.023 C 
HETATM   11  N   UNL     1      23.400  50.346  49.191  1.00  0.00    -0.096 N 
HETATM   12  H   UNL     1      22.156  44.758  49.190  1.00  0.00     0.166 HD
ENDROOT
BRANCH   3  13
HETATM   13  C   UNL     1      26.493  45.087  50.467  1.00  0.00     0.258 C 
HETATM   14  N   UNL     1      26.440  44.872  51.832  1.00  0.00    -0.323 N 
HETATM   15  H   UNL     1      25.577  45.112  52.301  1.00  0.00     0.169 HD
HETATM   16  O   UNL     1      27.431  44.870  49.712  1.00  0.00    -0.267 OA
BRANCH  14  17
HETATM   17  C   UNL     1      27.500  44.467  52.670  1.00  0.00     0.035 A 
HETATM   18  C   UNL     1      27.760  45.023  53.924  1.00  0.00     0.029 A 
HETATM   19  C   UNL     1      28.817  44.546  54.705  1.00  0.00     0.002 A 
HETATM   20  C   UNL     1      29.618  43.505  54.242  1.00  0.00     0.000 A 
HETATM   21  C   UNL     1      29.369  42.946  52.992  1.00  0.00     0.002 A 
HETATM   22  C   UNL     1      28.320  43.430  52.206  1.00  0.00     0.029 A 
ENDBRANCH  14  17
ENDBRANCH   3  13
TORSDOF 2
ENDMDL
MODEL 9
REMARK VINA RESULT:      -6.9     13.548     14.465
REMARK  2 active torsions:
REMARK  status: ('A' for Active; 'I' for Inactive)
REMARK    1  A    between atoms: C_3  and  C_4 
REMARK       I    between atoms: C_4  and  N_5 
REMARK    2  A    between atoms: N_5  and  C_6 
ROOT
HETATM    1  C   UNL     1      30.240  48.549  39.042  1.00  0.00     0.051 C 
HETATM    2  C   UNL     1      28.931  49.158  39.480  1.00  0.00    -0.021 A 
HETATM    3  C   UNL     1      28.998  50.398  40.276  1.00  0.00     0.061 A 
HETATM    4  C   UNL     1      27.865  51.060  40.605  1.00  0.00     0.022 A 
HETATM    5  C   UNL     1      27.778  52.412  41.266  1.00  0.00     0.069 C 
HETATM    6  N   UNL     1      26.645  50.502  40.288  1.00  0.00    -0.349 N 
HETATM    7  C   UNL     1      26.471  49.328  39.590  1.00  0.00     0.121 A 
HETATM    8  S   UNL     1      24.894  48.810  39.351  1.00  0.00    -0.059 SA
HETATM    9  C   UNL     1      27.727  48.657  39.116  1.00  0.00     0.075 A 
HETATM   10  C   UNL     1      27.587  47.573  38.060  1.00  0.00     0.023 C 
HETATM   11  N   UNL     1      27.471  46.673  37.184  1.00  0.00    -0.096 N 
HETATM   12  H   UNL     1      25.791  50.985  40.556  1.00  0.00     0.166 HD
ENDROOT
BRANCH   3  13
HETATM   13  C   UNL     1      30.323  51.016  40.628  1.00  0.00     0.258 C 
HETATM   14  N   UNL     1      30.832  50.536  41.820  1.00  0.00    -0.323 N 
HETATM   15  H   UNL     1      30.281  49.841  42.308  1.00  0.00     0.169 HD
HETATM   16  O   UNL     1      30.819  51.853  39.886  1.00  0.00    -0.267 OA
BRANCH  14  17
HETATM   17  C   UNL     1      31.980  50.994  42.500  1.00  0.00     0.035 A 
HETATM   18  C   UNL     1      31.953  51.605  43.755  1.00  0.00     0.029 A 
HETATM   19  C   UNL     1      33.140  52.007  44.374  1.00  0.00     0.002 A 
HETATM   20  C   UNL     1      34.365  51.795  43.745  1.00  0.00     0.000 A 
HETATM   21  C   UNL     1      34.403  51.189  42.494  1.00  0.00     0.002 A 
HETATM   22  C   UNL     1      33.216  50.798  41.870  1.00  0.00     0.029 A 
ENDBRANCH  14  17
ENDBRANCH   3  13
TORSDOF 2
ENDMDL
MODEL 10
REMARK VINA RESULT:      -6.9      7.293     10.217
REMARK  2 active torsions:
REMARK  status: ('A' for Active; 'I' for Inactive)
REMARK    1  A    between atoms: C_3  and  C_4 
REMARK       I    between atoms: C_4  and  N_5 
REMARK    2  A    between atoms: N_5  and  C_6 
ROOT
HETATM    1  C   UNL     1      19.468  47.119  48.476  1.00  0.00     0.051 C 
HETATM    2  C   UNL     1      19.676  48.589  48.749  1.00  0.00    -0.021 A 
HETATM    3  C   UNL     1      21.063  49.088  48.726  1.00  0.00     0.061 A 
HETATM    4  C   UNL     1      21.315  50.411  48.849  1.00  0.00     0.022 A 
HETATM    5  C   UNL     1      22.652  51.088  48.683  1.00  0.00     0.069 C 
HETATM    6  N   UNL     1      20.270  51.272  49.112  1.00  0.00    -0.349 N 
HETATM    7  C   UNL     1      18.947  50.903  49.199  1.00  0.00     0.121 A 
HETATM    8  S   UNL     1      17.842  52.110  49.569  1.00  0.00    -0.059 SA
HETATM    9  C   UNL     1      18.653  49.454  48.939  1.00  0.00     0.075 A 
HETATM   10  C   UNL     1      17.206  49.069  48.677  1.00  0.00     0.023 C 
HETATM   11  N   UNL     1      16.006  48.748  48.461  1.00  0.00    -0.096 N 
HETATM   12  H   UNL     1      20.459  52.264  49.229  1.00  0.00     0.166 HD
ENDROOT
BRANCH   3  13
HETATM   13  C   UNL     1      22.212  48.159  48.441  1.00  0.00     0.258 C 
HETATM   14  N   UNL     1      22.916  47.822  49.582  1.00  0.00    -0.323 N 
HETATM   15  H   UNL     1      22.592  48.217  50.455  1.00  0.00     0.169 HD
HETATM   16  O   UNL     1      22.431  47.798  47.293  1.00  0.00    -0.267 OA
BRANCH  14  17
HETATM   17  C   UNL     1      24.115  47.081  49.653  1.00  0.00     0.035 A 
HETATM   18  C   UNL     1      24.183  45.693  49.526  1.00  0.00     0.029 A 
HETATM   19  C   UNL     1      25.416  45.036  49.582  1.00  0.00     0.002 A 
HETATM   20  C   UNL     1      26.592  45.763  49.757  1.00  0.00     0.000 A 
HETATM   21  C   UNL     1      26.534  47.147  49.887  1.00  0.00     0.002 A 
HETATM   22  C   UNL     1      25.301  47.803  49.843  1.00  0.00     0.029 A 
ENDBRANCH  14  17
ENDBRANCH   3  13
TORSDOF 2
ENDMDL
