MODEL 1
REMARK VINA RESULT:      -8.5      0.000      0.000
REMARK  3 active torsions:
REMARK  status: ('A' for Active; 'I' for Inactive)
REMARK    1  A    between atoms: C_6  and  N_7 
REMARK    2  A    between atoms: N_7  and  C_8 
REMARK    3  A    between atoms: C_8  and  C_9 
ROOT
HETATM    1  C   UNL     1      29.858  45.563  56.263  1.00  0.00     0.024 A 
HETATM    2  C   UNL     1      30.384  44.295  56.009  1.00  0.00     0.046 A 
HETATM    3  C   UNL     1      31.460  43.783  56.808  1.00  0.00     0.099 C 
HETATM    4  N   UNL     1      32.319  43.319  57.432  1.00  0.00    -0.191 NA
HETATM    5  C   UNL     1      29.850  43.500  54.980  1.00  0.00     0.047 A 
HETATM    6  C   UNL     1      28.807  43.967  54.169  1.00  0.00     0.032 A 
HETATM    7  C   UNL     1      28.269  45.240  54.473  1.00  0.00     0.055 A 
HETATM    8 CL   UNL     1      26.934  45.858  53.562  1.00  0.00    -0.082 Cl
HETATM    9  C   UNL     1      28.793  46.033  55.496  1.00  0.00     0.027 A 
ENDROOT
BRANCH   6  10
HETATM   10  N   UNL     1      28.187  43.163  53.186  1.00  0.00    -0.286 NA
HETATM   11  H   UNL     1      28.464  43.517  52.261  1.00  0.00     0.128 HD
BRANCH  10  12
HETATM   12  C   UNL     1      28.274  41.697  53.254  1.00  0.00     0.149 C 
BRANCH  12  13
HETATM   13  C   UNL     1      28.284  41.161  51.832  1.00  0.00     0.029 A 
HETATM   14  N   UNL     1      28.858  39.912  51.672  1.00  0.00    -0.338 N 
HETATM   15  H   UNL     1      29.240  39.447  52.498  1.00  0.00     0.168 HD
HETATM   16  C   UNL     1      28.924  39.349  50.494  1.00  0.00     0.158 A 
HETATM   17  N   UNL     1      28.451  39.945  49.420  1.00  0.00    -0.269 N 
HETATM   18  S   UNL     1      29.627  37.792  50.192  1.00  0.00    -0.064 SA
HETATM   19  C   UNL     1      27.844  41.218  49.440  1.00  0.00     0.255 A 
HETATM   20  C   UNL     1      28.614  39.190  48.275  1.00  0.00     0.109 A 
HETATM   21  O   UNL     1      27.413  41.739  48.428  1.00  0.00    -0.268 OA
HETATM   22  C   UNL     1      27.790  41.828  50.780  1.00  0.00     0.101 A 
HETATM   23  C   UNL     1      29.221  38.016  48.503  1.00  0.00     0.071 A 
ENDBRANCH  12  13
ENDBRANCH  10  12
ENDBRANCH   6  10
TORSDOF 3
ENDMDL
MODEL 2
REMARK VINA RESULT:      -8.2      1.780      2.893
REMARK  3 active torsions:
REMARK  status: ('A' for Active; 'I' for Inactive)
REMARK    1  A    between atoms: C_6  and  N_7 
REMARK    2  A    between atoms: N_7  and  C_8 
REMARK    3  A    between atoms: C_8  and  C_9 
ROOT
HETATM    1  C   UNL     1      28.507  46.475  55.568  1.00  0.00     0.024 A 
HETATM    2  C   UNL     1      27.656  46.048  54.547  1.00  0.00     0.046 A 
HETATM    3  C   UNL     1      26.586  46.890  54.095  1.00  0.00     0.099 C 
HETATM    4  N   UNL     1      25.716  47.536  53.685  1.00  0.00    -0.191 NA
HETATM    5  C   UNL     1      27.853  44.796  53.939  1.00  0.00     0.047 A 
HETATM    6  C   UNL     1      28.879  43.938  54.359  1.00  0.00     0.032 A 
HETATM    7  C   UNL     1      29.749  44.413  55.370  1.00  0.00     0.055 A 
HETATM    8 CL   UNL     1      31.082  43.443  55.896  1.00  0.00    -0.082 Cl
HETATM    9  C   UNL     1      29.559  45.658  55.976  1.00  0.00     0.027 A 
ENDROOT
BRANCH   6  10
HETATM   10  N   UNL     1      29.163  42.715  53.713  1.00  0.00    -0.286 NA
HETATM   11  H   UNL     1      30.001  42.308  54.150  1.00  0.00     0.128 HD
BRANCH  10  12
HETATM   12  C   UNL     1      28.109  41.708  53.520  1.00  0.00     0.149 C 
BRANCH  12  13
HETATM   13  C   UNL     1      28.095  41.319  52.050  1.00  0.00     0.029 A 
HETATM   14  N   UNL     1      28.669  40.095  51.755  1.00  0.00    -0.338 N 
HETATM   15  H   UNL     1      29.068  39.551  52.522  1.00  0.00     0.168 HD
HETATM   16  C   UNL     1      28.716  39.655  50.525  1.00  0.00     0.158 A 
HETATM   17  N   UNL     1      28.222  40.354  49.525  1.00  0.00    -0.269 N 
HETATM   18  S   UNL     1      29.417  38.139  50.054  1.00  0.00    -0.064 SA
HETATM   19  C   UNL     1      27.612  41.616  49.685  1.00  0.00     0.255 A 
HETATM   20  C   UNL     1      28.366  39.720  48.307  1.00  0.00     0.109 A 
HETATM   21  O   UNL     1      27.162  42.235  48.739  1.00  0.00    -0.268 OA
HETATM   22  C   UNL     1      27.581  42.087  51.080  1.00  0.00     0.101 A 
HETATM   23  C   UNL     1      28.980  38.532  48.404  1.00  0.00     0.071 A 
ENDBRANCH  12  13
ENDBRANCH  10  12
ENDBRANCH   6  10
TORSDOF 3
ENDMDL
MODEL 3
REMARK VINA RESULT:      -8.0      5.835      7.213
REMARK  3 active torsions:
REMARK  status: ('A' for Active; 'I' for Inactive)
REMARK    1  A    between atoms: C_6  and  N_7 
REMARK    2  A    between atoms: N_7  and  C_8 
REMARK    3  A    between atoms: C_8  and  C_9 
ROOT
HETATM    1  C   UNL     1      28.998  45.177  55.092  1.00  0.00     0.024 A 
HETATM    2  C   UNL     1      28.478  44.353  54.093  1.00  0.00     0.046 A 
HETATM    3  C   UNL     1      29.117  43.109  53.772  1.00  0.00     0.099 C 
HETATM    4  N   UNL     1      29.589  42.090  53.484  1.00  0.00    -0.191 NA
HETATM    5  C   UNL     1      27.310  44.725  53.405  1.00  0.00     0.047 A 
HETATM    6  C   UNL     1      26.661  45.937  53.679  1.00  0.00     0.032 A 
HETATM    7  C   UNL     1      27.189  46.734  54.722  1.00  0.00     0.055 A 
HETATM    8 CL   UNL     1      26.406  48.211  55.169  1.00  0.00    -0.082 Cl
HETATM    9  C   UNL     1      28.349  46.367  55.411  1.00  0.00     0.027 A 
ENDROOT
BRANCH   6  10
HETATM   10  N   UNL     1      25.438  46.301  53.073  1.00  0.00    -0.286 NA
HETATM   11  H   UNL     1      25.354  47.325  53.113  1.00  0.00     0.128 HD
BRANCH  10  12
HETATM   12  C   UNL     1      25.074  45.778  51.748  1.00  0.00     0.149 C 
BRANCH  12  13
HETATM   13  C   UNL     1      25.159  46.922  50.752  1.00  0.00     0.029 A 
HETATM   14  N   UNL     1      23.945  47.389  50.279  1.00  0.00    -0.338 N 
HETATM   15  H   UNL     1      23.091  46.936  50.611  1.00  0.00     0.168 HD
HETATM   16  C   UNL     1      23.892  48.370  49.417  1.00  0.00     0.158 A 
HETATM   17  N   UNL     1      24.985  48.950  48.969  1.00  0.00    -0.269 N 
HETATM   18  S   UNL     1      22.422  49.020  48.763  1.00  0.00    -0.064 SA
HETATM   19  C   UNL     1      26.285  48.574  49.366  1.00  0.00     0.255 A 
HETATM   20  C   UNL     1      24.721  49.964  48.070  1.00  0.00     0.109 A 
HETATM   21  O   UNL     1      27.275  49.134  48.934  1.00  0.00    -0.268 OA
HETATM   22  C   UNL     1      26.311  47.461  50.332  1.00  0.00     0.101 A 
HETATM   23  C   UNL     1      23.410  50.138  47.845  1.00  0.00     0.071 A 
ENDBRANCH  12  13
ENDBRANCH  10  12
ENDBRANCH   6  10
TORSDOF 3
ENDMDL
MODEL 4
REMARK VINA RESULT:      -8.0      3.702      4.782
REMARK  3 active torsions:
REMARK  status: ('A' for Active; 'I' for Inactive)
REMARK    1  A    between atoms: C_6  and  N_7 
REMARK    2  A    between atoms: N_7  and  C_8 
REMARK    3  A    between atoms: C_8  and  C_9 
ROOT
HETATM    1  C   UNL     1      28.578  46.444  55.322  1.00  0.00     0.024 A 
HETATM    2  C   UNL     1      27.268  46.289  54.866  1.00  0.00     0.046 A 
HETATM    3  C   UNL     1      26.385  47.418  54.797  1.00  0.00     0.099 C 
HETATM    4  N   UNL     1      25.638  48.299  54.711  1.00  0.00    -0.191 NA
HETATM    5  C   UNL     1      26.807  45.027  54.452  1.00  0.00     0.047 A 
HETATM    6  C   UNL     1      27.632  43.896  54.514  1.00  0.00     0.032 A 
HETATM    7  C   UNL     1      28.966  44.090  54.945  1.00  0.00     0.055 A 
HETATM    8 CL   UNL     1      30.069  42.757  54.984  1.00  0.00    -0.082 Cl
HETATM    9  C   UNL     1      29.431  45.342  55.356  1.00  0.00     0.027 A 
ENDROOT
BRANCH   6  10
HETATM   10  N   UNL     1      27.234  42.633  54.023  1.00  0.00    -0.286 NA
HETATM   11  H   UNL     1      26.211  42.562  54.113  1.00  0.00     0.128 HD
BRANCH  10  12
HETATM   12  C   UNL     1      27.696  42.160  52.710  1.00  0.00     0.149 C 
BRANCH  12  13
HETATM   13  C   UNL     1      26.990  42.977  51.641  1.00  0.00     0.029 A 
HETATM   14  N   UNL     1      25.674  42.624  51.397  1.00  0.00    -0.338 N 
HETATM   15  H   UNL     1      25.276  41.846  51.928  1.00  0.00     0.168 HD
HETATM   16  C   UNL     1      24.965  43.256  50.499  1.00  0.00     0.158 A 
HETATM   17  N   UNL     1      25.470  44.247  49.797  1.00  0.00    -0.269 N 
HETATM   18  S   UNL     1      23.313  42.884  50.118  1.00  0.00    -0.064 SA
HETATM   19  C   UNL     1      26.796  44.708  49.943  1.00  0.00     0.255 A 
HETATM   20  C   UNL     1      24.565  44.785  48.903  1.00  0.00     0.109 A 
HETATM   21  O   UNL     1      27.231  45.630  49.279  1.00  0.00    -0.268 OA
HETATM   22  C   UNL     1      27.571  43.972  50.957  1.00  0.00     0.101 A 
HETATM   23  C   UNL     1      23.368  44.180  48.941  1.00  0.00     0.071 A 
ENDBRANCH  12  13
ENDBRANCH  10  12
ENDBRANCH   6  10
TORSDOF 3
ENDMDL
MODEL 5
REMARK VINA RESULT:      -7.9      4.430      5.524
REMARK  3 active torsions:
REMARK  status: ('A' for Active; 'I' for Inactive)
REMARK    1  A    between atoms: C_6  and  N_7 
REMARK    2  A    between atoms: N_7  and  C_8 
REMARK    3  A    between atoms: C_8  and  C_9 
ROOT
HETATM    1  C   UNL     1      30.834  43.775  55.603  1.00  0.00     0.024 A 
HETATM    2  C   UNL     1      29.959  44.789  55.996  1.00  0.00     0.046 A 
HETATM    3  C   UNL     1      30.245  45.585  57.154  1.00  0.00     0.099 C 
HETATM    4  N   UNL     1      30.436  46.264  58.073  1.00  0.00    -0.191 NA
HETATM    5  C   UNL     1      28.799  45.051  55.247  1.00  0.00     0.047 A 
HETATM    6  C   UNL     1      28.476  44.289  54.116  1.00  0.00     0.032 A 
HETATM    7  C   UNL     1      29.400  43.293  53.720  1.00  0.00     0.055 A 
HETATM    8 CL   UNL     1      29.110  42.356  52.295  1.00  0.00    -0.082 Cl
HETATM    9  C   UNL     1      30.557  43.029  54.459  1.00  0.00     0.027 A 
ENDROOT
BRANCH   6  10
HETATM   10  N   UNL     1      27.369  44.582  53.289  1.00  0.00    -0.286 NA
HETATM   11  H   UNL     1      26.780  43.741  53.233  1.00  0.00     0.128 HD
BRANCH  10  12
HETATM   12  C   UNL     1      26.565  45.792  53.516  1.00  0.00     0.149 C 
BRANCH  12  13
HETATM   13  C   UNL     1      25.720  46.032  52.275  1.00  0.00     0.029 A 
HETATM   14  N   UNL     1      25.029  44.929  51.805  1.00  0.00    -0.338 N 
HETATM   15  H   UNL     1      25.140  44.042  52.301  1.00  0.00     0.168 HD
HETATM   16  C   UNL     1      24.270  45.014  50.744  1.00  0.00     0.158 A 
HETATM   17  N   UNL     1      24.133  46.145  50.086  1.00  0.00    -0.269 N 
HETATM   18  S   UNL     1      23.371  43.689  50.075  1.00  0.00    -0.064 SA
HETATM   19  C   UNL     1      24.780  47.344  50.455  1.00  0.00     0.255 A 
HETATM   20  C   UNL     1      23.290  46.031  48.998  1.00  0.00     0.109 A 
HETATM   21  O   UNL     1      24.628  48.374  49.825  1.00  0.00    -0.268 OA
HETATM   22  C   UNL     1      25.633  47.213  51.649  1.00  0.00     0.101 A 
HETATM   23  C   UNL     1      22.796  44.794  48.845  1.00  0.00     0.071 A 
ENDBRANCH  12  13
ENDBRANCH  10  12
ENDBRANCH   6  10
TORSDOF 3
ENDMDL
MODEL 6
REMARK VINA RESULT:      -7.9      2.399      2.873
REMARK  3 active torsions:
REMARK  status: ('A' for Active; 'I' for Inactive)
REMARK    1  A    between atoms: C_6  and  N_7 
REMARK    2  A    between atoms: N_7  and  C_8 
REMARK    3  A    between atoms: C_8  and  C_9 
ROOT
HETATM    1  C   UNL     1      29.643  45.023  55.756  1.00  0.00     0.024 A 
HETATM    2  C   UNL     1      30.521  43.941  55.677  1.00  0.00     0.046 A 
HETATM    3  C   UNL     1      31.485  43.712  56.715  1.00  0.00     0.099 C 
HETATM    4  N   UNL     1      32.272  43.476  57.532  1.00  0.00    -0.191 NA
HETATM    5  C   UNL     1      30.456  43.055  54.588  1.00  0.00     0.047 A 
HETATM    6  C   UNL     1      29.537  43.249  53.548  1.00  0.00     0.032 A 
HETATM    7  C   UNL     1      28.635  44.332  53.673  1.00  0.00     0.055 A 
HETATM    8 CL   UNL     1      27.425  44.599  52.465  1.00  0.00    -0.082 Cl
HETATM    9  C   UNL     1      28.693  45.215  54.754  1.00  0.00     0.027 A 
ENDROOT
BRANCH   6  10
HETATM   10  N   UNL     1      29.383  42.330  52.485  1.00  0.00    -0.286 NA
HETATM   11  H   UNL     1      30.317  42.105  52.118  1.00  0.00     0.128 HD
BRANCH  10  12
HETATM   12  C   UNL     1      28.560  41.123  52.653  1.00  0.00     0.149 C 
BRANCH  12  13
HETATM   13  C   UNL     1      27.644  41.009  51.446  1.00  0.00     0.029 A 
HETATM   14  N   UNL     1      26.478  41.753  51.514  1.00  0.00    -0.338 N 
HETATM   15  H   UNL     1      26.307  42.306  52.356  1.00  0.00     0.168 HD
HETATM   16  C   UNL     1      25.612  41.734  50.535  1.00  0.00     0.158 A 
HETATM   17  N   UNL     1      25.813  41.012  49.453  1.00  0.00    -0.269 N 
HETATM   18  S   UNL     1      24.123  42.625  50.529  1.00  0.00    -0.064 SA
HETATM   19  C   UNL     1      26.955  40.208  49.255  1.00  0.00     0.255 A 
HETATM   20  C   UNL     1      24.787  41.126  48.537  1.00  0.00     0.109 A 
HETATM   21  O   UNL     1      27.111  39.555  48.240  1.00  0.00    -0.268 OA
HETATM   22  C   UNL     1      27.908  40.245  50.378  1.00  0.00     0.101 A 
HETATM   23  C   UNL     1      23.806  41.945  48.946  1.00  0.00     0.071 A 
ENDBRANCH  12  13
ENDBRANCH  10  12
ENDBRANCH   6  10
TORSDOF 3
ENDMDL
MODEL 7
REMARK VINA RESULT:      -7.7      4.049      5.101
REMARK  3 active torsions:
REMARK  status: ('A' for Active; 'I' for Inactive)
REMARK    1  A    between atoms: C_6  and  N_7 
REMARK    2  A    between atoms: N_7  and  C_8 
REMARK    3  A    between atoms: C_8  and  C_9 
ROOT
HETATM    1  C   UNL     1      29.950  45.726  56.427  1.00  0.00     0.024 A 
HETATM    2  C   UNL     1      30.306  44.427  56.061  1.00  0.00     0.046 A 
HETATM    3  C   UNL     1      31.417  43.775  56.692  1.00  0.00     0.099 C 
HETATM    4  N   UNL     1      32.297  43.199  57.180  1.00  0.00    -0.191 NA
HETATM    5  C   UNL     1      29.566  43.738  55.085  1.00  0.00     0.047 A 
HETATM    6  C   UNL     1      28.480  44.343  54.436  1.00  0.00     0.032 A 
HETATM    7  C   UNL     1      28.119  45.646  54.853  1.00  0.00     0.055 A 
HETATM    8 CL   UNL     1      26.749  46.436  54.150  1.00  0.00    -0.082 Cl
HETATM    9  C   UNL     1      28.850  46.335  55.825  1.00  0.00     0.027 A 
ENDROOT
BRANCH   6  10
HETATM   10  N   UNL     1      27.660  43.652  53.517  1.00  0.00    -0.286 NA
HETATM   11  H   UNL     1      26.678  43.834  53.764  1.00  0.00     0.128 HD
BRANCH  10  12
HETATM   12  C   UNL     1      27.887  43.776  52.070  1.00  0.00     0.149 C 
BRANCH  12  13
HETATM   13  C   UNL     1      26.644  44.395  51.451  1.00  0.00     0.029 A 
HETATM   14  N   UNL     1      26.811  45.665  50.928  1.00  0.00    -0.338 N 
HETATM   15  H   UNL     1      27.733  46.100  51.001  1.00  0.00     0.168 HD
HETATM   16  C   UNL     1      25.812  46.298  50.371  1.00  0.00     0.158 A 
HETATM   17  N   UNL     1      24.616  45.756  50.286  1.00  0.00    -0.269 N 
HETATM   18  S   UNL     1      25.920  47.892  49.693  1.00  0.00    -0.064 SA
HETATM   19  C   UNL     1      24.307  44.471  50.779  1.00  0.00     0.255 A 
HETATM   20  C   UNL     1      23.699  46.580  49.664  1.00  0.00     0.109 A 
HETATM   21  O   UNL     1      23.190  43.998  50.681  1.00  0.00    -0.268 OA
HETATM   22  C   UNL     1      25.451  43.787  51.407  1.00  0.00     0.101 A 
HETATM   23  C   UNL     1      24.223  47.755  49.284  1.00  0.00     0.071 A 
ENDBRANCH  12  13
ENDBRANCH  10  12
ENDBRANCH   6  10
TORSDOF 3
ENDMDL
MODEL 8
REMARK VINA RESULT:      -7.7      3.129      4.222
REMARK  3 active torsions:
REMARK  status: ('A' for Active; 'I' for Inactive)
REMARK    1  A    between atoms: C_6  and  N_7 
REMARK    2  A    between atoms: N_7  and  C_8 
REMARK    3  A    between atoms: C_8  and  C_9 
ROOT
HETATM    1  C   UNL     1      28.546  46.710  55.755  1.00  0.00     0.024 A 
HETATM    2  C   UNL     1      27.585  46.276  54.842  1.00  0.00     0.046 A 
HETATM    3  C   UNL     1      26.505  47.139  54.459  1.00  0.00     0.099 C 
HETATM    4  N   UNL     1      25.622  47.802  54.108  1.00  0.00    -0.191 NA
HETATM    5  C   UNL     1      27.677  44.993  54.273  1.00  0.00     0.047 A 
HETATM    6  C   UNL     1      28.709  44.114  54.629  1.00  0.00     0.032 A 
HETATM    7  C   UNL     1      29.690  44.595  55.528  1.00  0.00     0.055 A 
HETATM    8 CL   UNL     1      31.034  43.596  55.964  1.00  0.00    -0.082 Cl
HETATM    9  C   UNL     1      29.605  45.870  56.095  1.00  0.00     0.027 A 
ENDROOT
BRANCH   6  10
HETATM   10  N   UNL     1      28.884  42.855  54.012  1.00  0.00    -0.286 NA
HETATM   11  H   UNL     1      28.030  42.302  54.165  1.00  0.00     0.128 HD
BRANCH  10  12
HETATM   12  C   UNL     1      29.350  42.761  52.621  1.00  0.00     0.149 C 
BRANCH  12  13
HETATM   13  C   UNL     1      28.159  42.394  51.751  1.00  0.00     0.029 A 
HETATM   14  N   UNL     1      27.542  43.455  51.112  1.00  0.00    -0.338 N 
HETATM   15  H   UNL     1      27.909  44.396  51.273  1.00  0.00     0.168 HD
HETATM   16  C   UNL     1      26.507  43.263  50.338  1.00  0.00     0.158 A 
HETATM   17  N   UNL     1      26.014  42.059  50.136  1.00  0.00    -0.269 N 
HETATM   18  S   UNL     1      25.664  44.527  49.500  1.00  0.00    -0.064 SA
HETATM   19  C   UNL     1      26.543  40.892  50.726  1.00  0.00     0.255 A 
HETATM   20  C   UNL     1      24.924  42.064  49.288  1.00  0.00     0.109 A 
HETATM   21  O   UNL     1      26.064  39.794  50.516  1.00  0.00    -0.268 OA
HETATM   22  C   UNL     1      27.704  41.143  51.598  1.00  0.00     0.101 A 
HETATM   23  C   UNL     1      24.601  43.292  48.855  1.00  0.00     0.071 A 
ENDBRANCH  12  13
ENDBRANCH  10  12
ENDBRANCH   6  10
TORSDOF 3
ENDMDL
MODEL 9
REMARK VINA RESULT:      -7.6      2.536      2.884
REMARK  3 active torsions:
REMARK  status: ('A' for Active; 'I' for Inactive)
REMARK    1  A    between atoms: C_6  and  N_7 
REMARK    2  A    between atoms: N_7  and  C_8 
REMARK    3  A    between atoms: C_8  and  C_9 
ROOT
HETATM    1  C   UNL     1      30.118  45.628  56.435  1.00  0.00     0.024 A 
HETATM    2  C   UNL     1      30.455  44.309  56.128  1.00  0.00     0.046 A 
HETATM    3  C   UNL     1      31.514  43.647  56.835  1.00  0.00     0.099 C 
HETATM    4  N   UNL     1      32.351  43.065  57.385  1.00  0.00    -0.191 NA
HETATM    5  C   UNL     1      29.748  43.610  55.134  1.00  0.00     0.047 A 
HETATM    6  C   UNL     1      28.715  44.223  54.411  1.00  0.00     0.032 A 
HETATM    7  C   UNL     1      28.370  45.547  54.770  1.00  0.00     0.055 A 
HETATM    8 CL   UNL     1      27.061  46.350  53.972  1.00  0.00    -0.082 Cl
HETATM    9  C   UNL     1      29.068  46.246  55.759  1.00  0.00     0.027 A 
ENDROOT
BRANCH   6  10
HETATM   10  N   UNL     1      27.925  43.525  53.471  1.00  0.00    -0.286 NA
HETATM   11  H   UNL     1      26.941  43.783  53.626  1.00  0.00     0.128 HD
BRANCH  10  12
HETATM   12  C   UNL     1      28.271  43.541  52.043  1.00  0.00     0.149 C 
BRANCH  12  13
HETATM   13  C   UNL     1      27.059  43.062  51.261  1.00  0.00     0.029 A 
HETATM   14  N   UNL     1      27.340  42.360  50.101  1.00  0.00    -0.338 N 
HETATM   15  H   UNL     1      28.320  42.225  49.844  1.00  0.00     0.168 HD
HETATM   16  C   UNL     1      26.378  41.899  49.346  1.00  0.00     0.158 A 
HETATM   17  N   UNL     1      25.112  42.082  49.657  1.00  0.00    -0.269 N 
HETATM   18  S   UNL     1      26.628  41.015  47.874  1.00  0.00    -0.064 SA
HETATM   19  C   UNL     1      24.686  42.779  50.806  1.00  0.00     0.255 A 
HETATM   20  C   UNL     1      24.250  41.520  48.736  1.00  0.00     0.109 A 
HETATM   21  O   UNL     1      23.506  42.928  51.066  1.00  0.00    -0.268 OA
HETATM   22  C   UNL     1      25.793  43.292  51.633  1.00  0.00     0.101 A 
HETATM   23  C   UNL     1      24.886  40.912  47.724  1.00  0.00     0.071 A 
ENDBRANCH  12  13
ENDBRANCH  10  12
ENDBRANCH   6  10
TORSDOF 3
ENDMDL
MODEL 10
REMARK VINA RESULT:      -7.6     14.026     16.188
REMARK  3 active torsions:
REMARK  status: ('A' for Active; 'I' for Inactive)
REMARK    1  A    between atoms: C_6  and  N_7 
REMARK    2  A    between atoms: N_7  and  C_8 
REMARK    3  A    between atoms: C_8  and  C_9 
ROOT
HETATM    1  C   UNL     1      28.464  51.645  38.219  1.00  0.00     0.024 A 
HETATM    2  C   UNL     1      28.025  50.391  38.646  1.00  0.00     0.046 A 
HETATM    3  C   UNL     1      26.623  50.121  38.787  1.00  0.00     0.099 C 
HETATM    4  N   UNL     1      25.503  49.850  38.905  1.00  0.00    -0.191 NA
HETATM    5  C   UNL     1      28.954  49.372  38.924  1.00  0.00     0.047 A 
HETATM    6  C   UNL     1      30.333  49.597  38.810  1.00  0.00     0.032 A 
HETATM    7  C   UNL     1      30.747  50.866  38.338  1.00  0.00     0.055 A 
HETATM    8 CL   UNL     1      32.429  51.200  38.105  1.00  0.00    -0.082 Cl
HETATM    9  C   UNL     1      29.828  51.881  38.059  1.00  0.00     0.027 A 
ENDROOT
BRANCH   6  10
HETATM   10  N   UNL     1      31.290  48.574  38.992  1.00  0.00    -0.286 NA
HETATM   11  H   UNL     1      32.181  48.894  38.591  1.00  0.00     0.128 HD
BRANCH  10  12
HETATM   12  C   UNL     1      31.481  47.954  40.311  1.00  0.00     0.149 C 
BRANCH  12  13
HETATM   13  C   UNL     1      32.205  48.953  41.199  1.00  0.00     0.029 A 
HETATM   14  N   UNL     1      33.489  49.281  40.798  1.00  0.00    -0.338 N 
HETATM   15  H   UNL     1      33.863  48.831  39.960  1.00  0.00     0.168 HD
HETATM   16  C   UNL     1      34.210  50.129  41.483  1.00  0.00     0.158 A 
HETATM   17  N   UNL     1      33.746  50.701  42.574  1.00  0.00    -0.269 N 
HETATM   18  S   UNL     1      35.827  50.599  41.066  1.00  0.00    -0.064 SA
HETATM   19  C   UNL     1      32.458  50.457  43.094  1.00  0.00     0.255 A 
HETATM   20  C   UNL     1      34.656  51.565  43.151  1.00  0.00     0.109 A 
HETATM   21  O   UNL     1      32.059  51.006  44.104  1.00  0.00    -0.268 OA
HETATM   22  C   UNL     1      31.673  49.492  42.304  1.00  0.00     0.101 A 
HETATM   23  C   UNL     1      35.815  51.632  42.480  1.00  0.00     0.071 A 
ENDBRANCH  12  13
ENDBRANCH  10  12
ENDBRANCH   6  10
TORSDOF 3
ENDMDL
