MODEL 1
REMARK VINA RESULT:      -9.3      0.000      0.000
REMARK  6 active torsions:
REMARK  status: ('A' for Active; 'I' for Inactive)
REMARK    1  A    between atoms: C_3  and  C_4 
REMARK    2  A    between atoms: C_9  and  N_10 
REMARK       I    between atoms: N_10  and  C_11 
REMARK       I    between atoms: C_11  and  N_12 
REMARK    3  A    between atoms: N_12  and  C_13 
REMARK    4  A    between atoms: C_13  and  C_14 
REMARK    5  A    between atoms: C_14  and  C_15 
REMARK    6  A    between atoms: N_17  and  C_18 
ROOT
HETATM    1  N   UNL     1      22.547  48.738  49.640  1.00  0.00    -0.309 N 
HETATM    2  C   UNL     1      23.043  47.692  48.918  1.00  0.00     0.320 C 
HETATM    3  N   UNL     1      24.063  46.990  49.482  1.00  0.00    -0.343 N 
HETATM    4  O   UNL     1      22.649  47.311  47.819  1.00  0.00    -0.247 OA
HETATM    5  H   UNL     1      23.004  48.943  50.510  1.00  0.00     0.170 HD
HETATM    6  H   UNL     1      24.327  46.209  48.892  1.00  0.00     0.164 HD
ENDROOT
BRANCH   3   7
HETATM    7  C   UNL     1      24.763  47.121  50.754  1.00  0.00     0.129 C 
BRANCH   7   8
HETATM    8  C   UNL     1      25.013  45.762  51.417  1.00  0.00     0.061 C 
BRANCH   8   9
HETATM    9  C   UNL     1      25.954  45.830  52.570  1.00  0.00    -0.020 A 
HETATM   10  C   UNL     1      27.044  45.025  52.833  1.00  0.00     0.127 A 
HETATM   11  N   UNL     1      27.601  45.443  54.024  1.00  0.00    -0.245 N 
HETATM   12  N   UNL     1      26.914  46.502  54.530  1.00  0.00    -0.180 NA
HETATM   13  C   UNL     1      25.930  46.722  53.660  1.00  0.00     0.148 A 
BRANCH  11  14
HETATM   14  C   UNL     1      28.723  44.898  54.710  1.00  0.00     0.058 A 
HETATM   15  C   UNL     1      29.317  45.575  55.784  1.00  0.00     0.031 A 
HETATM   16  C   UNL     1      30.426  45.022  56.431  1.00  0.00     0.002 A 
HETATM   17  C   UNL     1      30.946  43.798  56.015  1.00  0.00     0.000 A 
HETATM   18  C   UNL     1      30.358  43.119  54.950  1.00  0.00     0.002 A 
HETATM   19  C   UNL     1      29.249  43.664  54.299  1.00  0.00     0.031 A 
ENDBRANCH  11  14
ENDBRANCH   8   9
ENDBRANCH   7   8
ENDBRANCH   3   7
BRANCH   1  20
HETATM   20  C   UNL     1      21.466  49.582  49.311  1.00  0.00     0.036 A 
HETATM   21  C   UNL     1      21.601  50.912  48.920  1.00  0.00     0.030 A 
HETATM   22  C   UNL     1      20.474  51.679  48.606  1.00  0.00     0.018 A 
HETATM   23  C   UNL     1      19.188  51.123  48.663  1.00  0.00     0.015 A 
HETATM   24  C   UNL     1      19.032  49.777  49.045  1.00  0.00    -0.046 A 
HETATM   25  C   UNL     1      17.686  49.109  49.124  1.00  0.00     0.049 C 
HETATM   26  C   UNL     1      20.179  49.028  49.378  1.00  0.00     0.037 A 
BRANCH  23  27
HETATM   27  C   UNL     1      18.013  51.985  48.334  1.00  0.00     0.156 C 
HETATM   28  C   UNL     1      17.331  52.723  49.457  1.00  0.00     0.097 C 
HETATM   29  O   UNL     1      17.602  52.068  47.180  1.00  0.00    -0.293 OA
ENDBRANCH  23  27
ENDBRANCH   1  20
TORSDOF 6
ENDMDL
MODEL 2
REMARK VINA RESULT:      -9.2      2.886     10.866
REMARK  6 active torsions:
REMARK  status: ('A' for Active; 'I' for Inactive)
REMARK    1  A    between atoms: C_3  and  C_4 
REMARK    2  A    between atoms: C_9  and  N_10 
REMARK       I    between atoms: N_10  and  C_11 
REMARK       I    between atoms: C_11  and  N_12 
REMARK    3  A    between atoms: N_12  and  C_13 
REMARK    4  A    between atoms: C_13  and  C_14 
REMARK    5  A    between atoms: C_14  and  C_15 
REMARK    6  A    between atoms: N_17  and  C_18 
ROOT
HETATM    1  N   UNL     1      25.865  45.786  52.027  1.00  0.00    -0.309 N 
HETATM    2  C   UNL     1      24.759  44.998  51.892  1.00  0.00     0.320 C 
HETATM    3  N   UNL     1      24.099  45.070  50.704  1.00  0.00    -0.343 N 
HETATM    4  O   UNL     1      24.312  44.218  52.728  1.00  0.00    -0.247 OA
HETATM    5  H   UNL     1      26.080  46.397  51.260  1.00  0.00     0.170 HD
HETATM    6  H   UNL     1      23.325  44.416  50.686  1.00  0.00     0.164 HD
ENDROOT
BRANCH   3   7
HETATM    7  C   UNL     1      24.339  45.840  49.490  1.00  0.00     0.129 C 
BRANCH   7   8
HETATM    8  C   UNL     1      23.038  46.170  48.750  1.00  0.00     0.061 C 
BRANCH   8   9
HETATM    9  C   UNL     1      22.569  47.567  48.971  1.00  0.00    -0.020 A 
HETATM   10  C   UNL     1      21.279  48.055  48.912  1.00  0.00     0.127 A 
HETATM   11  N   UNL     1      21.329  49.411  49.161  1.00  0.00    -0.245 N 
HETATM   12  N   UNL     1      22.608  49.810  49.393  1.00  0.00    -0.180 NA
HETATM   13  C   UNL     1      23.341  48.706  49.271  1.00  0.00     0.148 A 
BRANCH  11  14
HETATM   14  C   UNL     1      20.253  50.343  49.178  1.00  0.00     0.058 A 
HETATM   15  C   UNL     1      20.319  51.543  48.458  1.00  0.00     0.031 A 
HETATM   16  C   UNL     1      19.251  52.446  48.504  1.00  0.00     0.002 A 
HETATM   17  C   UNL     1      18.119  52.158  49.263  1.00  0.00     0.000 A 
HETATM   18  C   UNL     1      18.045  50.966  49.979  1.00  0.00     0.002 A 
HETATM   19  C   UNL     1      19.107  50.058  49.937  1.00  0.00     0.031 A 
ENDBRANCH  11  14
ENDBRANCH   8   9
ENDBRANCH   7   8
ENDBRANCH   3   7
BRANCH   1  20
HETATM   20  C   UNL     1      26.748  45.857  53.124  1.00  0.00     0.036 A 
HETATM   21  C   UNL     1      26.856  46.956  53.973  1.00  0.00     0.030 A 
HETATM   22  C   UNL     1      27.759  46.942  55.043  1.00  0.00     0.018 A 
HETATM   23  C   UNL     1      28.560  45.819  55.291  1.00  0.00     0.015 A 
HETATM   24  C   UNL     1      28.458  44.694  54.450  1.00  0.00    -0.046 A 
HETATM   25  C   UNL     1      29.280  43.452  54.655  1.00  0.00     0.049 C 
HETATM   26  C   UNL     1      27.558  44.738  53.365  1.00  0.00     0.037 A 
BRANCH  23  27
HETATM   27  C   UNL     1      29.520  45.855  56.436  1.00  0.00     0.156 C 
HETATM   28  C   UNL     1      28.962  45.951  57.833  1.00  0.00     0.097 C 
HETATM   29  O   UNL     1      30.731  45.832  56.238  1.00  0.00    -0.293 OA
ENDBRANCH  23  27
ENDBRANCH   1  20
TORSDOF 6
ENDMDL
MODEL 3
REMARK VINA RESULT:      -9.2      3.370      4.906
REMARK  6 active torsions:
REMARK  status: ('A' for Active; 'I' for Inactive)
REMARK    1  A    between atoms: C_3  and  C_4 
REMARK    2  A    between atoms: C_9  and  N_10 
REMARK       I    between atoms: N_10  and  C_11 
REMARK       I    between atoms: C_11  and  N_12 
REMARK    3  A    between atoms: N_12  and  C_13 
REMARK    4  A    between atoms: C_13  and  C_14 
REMARK    5  A    between atoms: C_14  and  C_15 
REMARK    6  A    between atoms: N_17  and  C_18 
ROOT
HETATM    1  N   UNL     1      24.840  44.552  50.046  1.00  0.00    -0.309 N 
HETATM    2  C   UNL     1      24.645  44.018  51.287  1.00  0.00     0.320 C 
HETATM    3  N   UNL     1      25.040  42.728  51.465  1.00  0.00    -0.343 N 
HETATM    4  O   UNL     1      24.165  44.590  52.261  1.00  0.00    -0.247 OA
HETATM    5  H   UNL     1      25.213  43.940  49.344  1.00  0.00     0.170 HD
HETATM    6  H   UNL     1      24.897  42.441  52.427  1.00  0.00     0.164 HD
ENDROOT
BRANCH   3   7
HETATM    7  C   UNL     1      25.661  41.757  50.573  1.00  0.00     0.129 C 
BRANCH   7   8
HETATM    8  C   UNL     1      27.174  41.974  50.449  1.00  0.00     0.061 C 
BRANCH   8   9
HETATM    9  C   UNL     1      27.864  42.097  51.763  1.00  0.00    -0.020 A 
HETATM   10  C   UNL     1      28.208  43.247  52.444  1.00  0.00     0.127 A 
HETATM   11  N   UNL     1      28.854  42.874  53.605  1.00  0.00    -0.245 N 
HETATM   12  N   UNL     1      28.925  41.519  53.701  1.00  0.00    -0.180 NA
HETATM   13  C   UNL     1      28.339  41.065  52.596  1.00  0.00     0.148 A 
BRANCH  11  14
HETATM   14  C   UNL     1      29.413  43.714  54.609  1.00  0.00     0.058 A 
HETATM   15  C   UNL     1      28.873  44.978  54.884  1.00  0.00     0.031 A 
HETATM   16  C   UNL     1      29.451  45.787  55.867  1.00  0.00     0.002 A 
HETATM   17  C   UNL     1      30.562  45.343  56.579  1.00  0.00     0.000 A 
HETATM   18  C   UNL     1      31.102  44.086  56.314  1.00  0.00     0.002 A 
HETATM   19  C   UNL     1      30.530  43.272  55.334  1.00  0.00     0.031 A 
ENDBRANCH  11  14
ENDBRANCH   8   9
ENDBRANCH   7   8
ENDBRANCH   3   7
BRANCH   1  20
HETATM   20  C   UNL     1      24.572  45.870  49.620  1.00  0.00     0.036 A 
HETATM   21  C   UNL     1      23.322  46.318  49.200  1.00  0.00     0.030 A 
HETATM   22  C   UNL     1      23.142  47.646  48.795  1.00  0.00     0.018 A 
HETATM   23  C   UNL     1      24.209  48.554  48.818  1.00  0.00     0.015 A 
HETATM   24  C   UNL     1      25.477  48.123  49.249  1.00  0.00    -0.046 A 
HETATM   25  C   UNL     1      26.669  49.039  49.306  1.00  0.00     0.049 C 
HETATM   26  C   UNL     1      25.642  46.776  49.631  1.00  0.00     0.037 A 
BRANCH  23  27
HETATM   27  C   UNL     1      23.972  49.957  48.363  1.00  0.00     0.156 C 
HETATM   28  C   UNL     1      23.138  50.861  49.235  1.00  0.00     0.097 C 
HETATM   29  O   UNL     1      24.427  50.354  47.294  1.00  0.00    -0.293 OA
ENDBRANCH  23  27
ENDBRANCH   1  20
TORSDOF 6
ENDMDL
MODEL 4
REMARK VINA RESULT:      -9.1      1.479      2.092
REMARK  6 active torsions:
REMARK  status: ('A' for Active; 'I' for Inactive)
REMARK    1  A    between atoms: C_3  and  C_4 
REMARK    2  A    between atoms: C_9  and  N_10 
REMARK       I    between atoms: N_10  and  C_11 
REMARK       I    between atoms: C_11  and  N_12 
REMARK    3  A    between atoms: N_12  and  C_13 
REMARK    4  A    between atoms: C_13  and  C_14 
REMARK    5  A    between atoms: C_14  and  C_15 
REMARK    6  A    between atoms: N_17  and  C_18 
ROOT
HETATM    1  N   UNL     1      22.645  49.186  49.497  1.00  0.00    -0.309 N 
HETATM    2  C   UNL     1      23.732  49.097  48.677  1.00  0.00     0.320 C 
HETATM    3  N   UNL     1      24.765  48.327  49.113  1.00  0.00    -0.343 N 
HETATM    4  O   UNL     1      23.864  49.630  47.578  1.00  0.00    -0.247 OA
HETATM    5  H   UNL     1      22.708  48.717  50.382  1.00  0.00     0.170 HD
HETATM    6  H   UNL     1      25.500  48.288  48.416  1.00  0.00     0.164 HD
ENDROOT
BRANCH   3   7
HETATM    7  C   UNL     1      24.960  47.535  50.321  1.00  0.00     0.129 C 
BRANCH   7   8
HETATM    8  C   UNL     1      24.691  46.045  50.084  1.00  0.00     0.061 C 
BRANCH   8   9
HETATM    9  C   UNL     1      25.793  45.161  50.556  1.00  0.00    -0.020 A 
HETATM   10  C   UNL     1      26.486  45.221  51.748  1.00  0.00     0.127 A 
HETATM   11  N   UNL     1      27.434  44.218  51.737  1.00  0.00    -0.245 N 
HETATM   12  N   UNL     1      27.365  43.505  50.581  1.00  0.00    -0.180 NA
HETATM   13  C   UNL     1      26.389  44.078  49.881  1.00  0.00     0.148 A 
BRANCH  11  14
HETATM   14  C   UNL     1      28.398  43.908  52.737  1.00  0.00     0.058 A 
HETATM   15  C   UNL     1      29.429  42.991  52.493  1.00  0.00     0.031 A 
HETATM   16  C   UNL     1      30.355  42.696  53.499  1.00  0.00     0.002 A 
HETATM   17  C   UNL     1      30.259  43.310  54.745  1.00  0.00     0.000 A 
HETATM   18  C   UNL     1      29.239  44.225  54.994  1.00  0.00     0.002 A 
HETATM   19  C   UNL     1      28.311  44.526  53.994  1.00  0.00     0.031 A 
ENDBRANCH  11  14
ENDBRANCH   8   9
ENDBRANCH   7   8
ENDBRANCH   3   7
BRANCH   1  20
HETATM   20  C   UNL     1      21.434  49.867  49.257  1.00  0.00     0.036 A 
HETATM   21  C   UNL     1      21.347  51.218  48.929  1.00  0.00     0.030 A 
HETATM   22  C   UNL     1      20.102  51.816  48.703  1.00  0.00     0.018 A 
HETATM   23  C   UNL     1      18.920  51.067  48.787  1.00  0.00     0.015 A 
HETATM   24  C   UNL     1      18.988  49.698  49.107  1.00  0.00    -0.046 A 
HETATM   25  C   UNL     1      17.765  48.829  49.211  1.00  0.00     0.049 C 
HETATM   26  C   UNL     1      20.250  49.121  49.352  1.00  0.00     0.037 A 
BRANCH  23  27
HETATM   27  C   UNL     1      17.613  51.752  48.553  1.00  0.00     0.156 C 
HETATM   28  C   UNL     1      16.960  52.463  49.711  1.00  0.00     0.097 C 
HETATM   29  O   UNL     1      17.076  51.715  47.450  1.00  0.00    -0.293 OA
ENDBRANCH  23  27
ENDBRANCH   1  20
TORSDOF 6
ENDMDL
MODEL 5
REMARK VINA RESULT:      -8.9      5.687      9.439
REMARK  6 active torsions:
REMARK  status: ('A' for Active; 'I' for Inactive)
REMARK    1  A    between atoms: C_3  and  C_4 
REMARK    2  A    between atoms: C_9  and  N_10 
REMARK       I    between atoms: N_10  and  C_11 
REMARK       I    between atoms: C_11  and  N_12 
REMARK    3  A    between atoms: N_12  and  C_13 
REMARK    4  A    between atoms: C_13  and  C_14 
REMARK    5  A    between atoms: C_14  and  C_15 
REMARK    6  A    between atoms: N_17  and  C_18 
ROOT
HETATM    1  N   UNL     1      26.855  43.176  51.046  1.00  0.00    -0.309 N 
HETATM    2  C   UNL     1      25.508  43.393  51.072  1.00  0.00     0.320 C 
HETATM    3  N   UNL     1      25.100  44.688  51.161  1.00  0.00    -0.343 N 
HETATM    4  O   UNL     1      24.629  42.538  51.006  1.00  0.00    -0.247 OA
HETATM    5  H   UNL     1      27.444  43.983  51.145  1.00  0.00     0.170 HD
HETATM    6  H   UNL     1      24.088  44.746  51.127  1.00  0.00     0.164 HD
ENDROOT
BRANCH   3   7
HETATM    7  C   UNL     1      25.830  45.947  51.230  1.00  0.00     0.129 C 
BRANCH   7   8
HETATM    8  C   UNL     1      25.512  46.729  52.510  1.00  0.00     0.061 C 
BRANCH   8   9
HETATM    9  C   UNL     1      26.561  46.595  53.561  1.00  0.00    -0.020 A 
HETATM   10  C   UNL     1      27.449  45.557  53.755  1.00  0.00     0.127 A 
HETATM   11  N   UNL     1      28.214  45.856  54.863  1.00  0.00    -0.245 N 
HETATM   12  N   UNL     1      27.856  47.062  55.382  1.00  0.00    -0.180 NA
HETATM   13  C   UNL     1      26.865  47.491  54.603  1.00  0.00     0.148 A 
BRANCH  11  14
HETATM   14  C   UNL     1      29.240  45.073  55.462  1.00  0.00     0.058 A 
HETATM   15  C   UNL     1      29.870  45.482  56.645  1.00  0.00     0.031 A 
HETATM   16  C   UNL     1      30.885  44.699  57.204  1.00  0.00     0.002 A 
HETATM   17  C   UNL     1      31.275  43.511  56.590  1.00  0.00     0.000 A 
HETATM   18  C   UNL     1      30.651  43.096  55.416  1.00  0.00     0.002 A 
HETATM   19  C   UNL     1      29.636  43.873  54.852  1.00  0.00     0.031 A 
ENDBRANCH  11  14
ENDBRANCH   8   9
ENDBRANCH   7   8
ENDBRANCH   3   7
BRANCH   1  20
HETATM   20  C   UNL     1      27.531  41.946  50.903  1.00  0.00     0.036 A 
HETATM   21  C   UNL     1      28.201  41.297  51.937  1.00  0.00     0.030 A 
HETATM   22  C   UNL     1      28.845  40.075  51.710  1.00  0.00     0.018 A 
HETATM   23  C   UNL     1      28.815  39.472  50.445  1.00  0.00     0.015 A 
HETATM   24  C   UNL     1      28.133  40.108  49.390  1.00  0.00    -0.046 A 
HETATM   25  C   UNL     1      28.053  39.521  48.007  1.00  0.00     0.049 C 
HETATM   26  C   UNL     1      27.511  41.349  49.635  1.00  0.00     0.037 A 
BRANCH  23  27
HETATM   27  C   UNL     1      29.529  38.175  50.247  1.00  0.00     0.156 C 
HETATM   28  C   UNL     1      28.761  36.896  50.468  1.00  0.00     0.097 C 
HETATM   29  O   UNL     1      30.715  38.154  49.934  1.00  0.00    -0.293 OA
ENDBRANCH  23  27
ENDBRANCH   1  20
TORSDOF 6
ENDMDL
MODEL 6
REMARK VINA RESULT:      -8.6      3.008     10.981
REMARK  6 active torsions:
REMARK  status: ('A' for Active; 'I' for Inactive)
REMARK    1  A    between atoms: C_3  and  C_4 
REMARK    2  A    between atoms: C_9  and  N_10 
REMARK       I    between atoms: N_10  and  C_11 
REMARK       I    between atoms: C_11  and  N_12 
REMARK    3  A    between atoms: N_12  and  C_13 
REMARK    4  A    between atoms: C_13  and  C_14 
REMARK    5  A    between atoms: C_14  and  C_15 
REMARK    6  A    between atoms: N_17  and  C_18 
ROOT
HETATM    1  N   UNL     1      25.384  47.737  50.107  1.00  0.00    -0.309 N 
HETATM    2  C   UNL     1      26.071  48.657  49.370  1.00  0.00     0.320 C 
HETATM    3  N   UNL     1      25.345  49.403  48.494  1.00  0.00    -0.343 N 
HETATM    4  O   UNL     1      27.275  48.892  49.432  1.00  0.00    -0.247 OA
HETATM    5  H   UNL     1      24.404  47.643  49.913  1.00  0.00     0.170 HD
HETATM    6  H   UNL     1      25.935  50.085  48.032  1.00  0.00     0.164 HD
ENDROOT
BRANCH   3   7
HETATM    7  C   UNL     1      23.925  49.431  48.168  1.00  0.00     0.129 C 
BRANCH   7   8
HETATM    8  C   UNL     1      23.351  50.852  48.213  1.00  0.00     0.061 C 
BRANCH   8   9
HETATM    9  C   UNL     1      22.023  50.933  48.883  1.00  0.00    -0.020 A 
HETATM   10  C   UNL     1      20.782  51.107  48.304  1.00  0.00     0.127 A 
HETATM   11  N   UNL     1      19.845  51.147  49.315  1.00  0.00    -0.245 N 
HETATM   12  N   UNL     1      20.441  50.991  50.528  1.00  0.00    -0.180 NA
HETATM   13  C   UNL     1      21.739  50.871  50.261  1.00  0.00     0.148 A 
BRANCH  11  14
HETATM   14  C   UNL     1      18.439  51.336  49.205  1.00  0.00     0.058 A 
HETATM   15  C   UNL     1      17.632  50.411  48.528  1.00  0.00     0.031 A 
HETATM   16  C   UNL     1      16.255  50.629  48.424  1.00  0.00     0.002 A 
HETATM   17  C   UNL     1      15.677  51.763  48.991  1.00  0.00     0.000 A 
HETATM   18  C   UNL     1      16.472  52.685  49.668  1.00  0.00     0.002 A 
HETATM   19  C   UNL     1      17.849  52.473  49.778  1.00  0.00     0.031 A 
ENDBRANCH  11  14
ENDBRANCH   8   9
ENDBRANCH   7   8
ENDBRANCH   3   7
BRANCH   1  20
HETATM   20  C   UNL     1      25.886  46.885  51.114  1.00  0.00     0.036 A 
HETATM   21  C   UNL     1      25.882  47.193  52.472  1.00  0.00     0.030 A 
HETATM   22  C   UNL     1      26.398  46.288  53.407  1.00  0.00     0.018 A 
HETATM   23  C   UNL     1      26.914  45.050  52.999  1.00  0.00     0.015 A 
HETATM   24  C   UNL     1      26.917  44.717  51.631  1.00  0.00    -0.046 A 
HETATM   25  C   UNL     1      27.449  43.407  51.117  1.00  0.00     0.049 C 
HETATM   26  C   UNL     1      26.413  45.652  50.704  1.00  0.00     0.037 A 
BRANCH  23  27
HETATM   27  C   UNL     1      27.468  44.122  54.031  1.00  0.00     0.156 C 
HETATM   28  C   UNL     1      28.926  44.244  54.394  1.00  0.00     0.097 C 
HETATM   29  O   UNL     1      26.756  43.269  54.552  1.00  0.00    -0.293 OA
ENDBRANCH  23  27
ENDBRANCH   1  20
TORSDOF 6
ENDMDL
MODEL 7
REMARK VINA RESULT:      -8.5      2.544     10.976
REMARK  6 active torsions:
REMARK  status: ('A' for Active; 'I' for Inactive)
REMARK    1  A    between atoms: C_3  and  C_4 
REMARK    2  A    between atoms: C_9  and  N_10 
REMARK       I    between atoms: N_10  and  C_11 
REMARK       I    between atoms: C_11  and  N_12 
REMARK    3  A    between atoms: N_12  and  C_13 
REMARK    4  A    between atoms: C_13  and  C_14 
REMARK    5  A    between atoms: C_14  and  C_15 
REMARK    6  A    between atoms: N_17  and  C_18 
ROOT
HETATM    1  N   UNL     1      25.224  47.519  50.295  1.00  0.00    -0.309 N 
HETATM    2  C   UNL     1      24.127  47.322  49.508  1.00  0.00     0.320 C 
HETATM    3  N   UNL     1      23.746  48.365  48.721  1.00  0.00    -0.343 N 
HETATM    4  O   UNL     1      23.460  46.295  49.427  1.00  0.00    -0.247 OA
HETATM    5  H   UNL     1      25.639  48.433  50.272  1.00  0.00     0.170 HD
HETATM    6  H   UNL     1      22.954  48.105  48.143  1.00  0.00     0.164 HD
ENDROOT
BRANCH   3   7
HETATM    7  C   UNL     1      24.292  49.702  48.527  1.00  0.00     0.129 C 
BRANCH   7   8
HETATM    8  C   UNL     1      23.293  50.638  47.835  1.00  0.00     0.061 C 
BRANCH   8   9
HETATM    9  C   UNL     1      22.023  50.812  48.594  1.00  0.00    -0.020 A 
HETATM   10  C   UNL     1      20.741  50.935  48.098  1.00  0.00     0.127 A 
HETATM   11  N   UNL     1      19.888  51.102  49.168  1.00  0.00    -0.245 N 
HETATM   12  N   UNL     1      20.577  51.078  50.341  1.00  0.00    -0.180 NA
HETATM   13  C   UNL     1      21.850  50.911  49.988  1.00  0.00     0.148 A 
BRANCH  11  14
HETATM   14  C   UNL     1      18.478  51.296  49.148  1.00  0.00     0.058 A 
HETATM   15  C   UNL     1      17.634  50.425  48.445  1.00  0.00     0.031 A 
HETATM   16  C   UNL     1      16.254  50.647  48.432  1.00  0.00     0.002 A 
HETATM   17  C   UNL     1      15.709  51.732  49.115  1.00  0.00     0.000 A 
HETATM   18  C   UNL     1      16.541  52.600  49.818  1.00  0.00     0.002 A 
HETATM   19  C   UNL     1      17.921  52.384  49.837  1.00  0.00     0.031 A 
ENDBRANCH  11  14
ENDBRANCH   8   9
ENDBRANCH   7   8
ENDBRANCH   3   7
BRANCH   1  20
HETATM   20  C   UNL     1      25.851  46.591  51.152  1.00  0.00     0.036 A 
HETATM   21  C   UNL     1      26.350  45.357  50.740  1.00  0.00     0.030 A 
HETATM   22  C   UNL     1      26.962  44.495  51.657  1.00  0.00     0.018 A 
HETATM   23  C   UNL     1      27.100  44.860  53.003  1.00  0.00     0.015 A 
HETATM   24  C   UNL     1      26.613  46.108  53.437  1.00  0.00    -0.046 A 
HETATM   25  C   UNL     1      26.728  46.571  54.863  1.00  0.00     0.049 C 
HETATM   26  C   UNL     1      25.979  46.951  52.501  1.00  0.00     0.037 A 
BRANCH  23  27
HETATM   27  C   UNL     1      27.748  43.902  53.949  1.00  0.00     0.156 C 
HETATM   28  C   UNL     1      29.242  43.978  54.133  1.00  0.00     0.097 C 
HETATM   29  O   UNL     1      27.080  43.059  54.541  1.00  0.00    -0.293 OA
ENDBRANCH  23  27
ENDBRANCH   1  20
TORSDOF 6
ENDMDL
MODEL 8
REMARK VINA RESULT:      -8.3      2.960     11.190
REMARK  6 active torsions:
REMARK  status: ('A' for Active; 'I' for Inactive)
REMARK    1  A    between atoms: C_3  and  C_4 
REMARK    2  A    between atoms: C_9  and  N_10 
REMARK       I    between atoms: N_10  and  C_11 
REMARK       I    between atoms: C_11  and  N_12 
REMARK    3  A    between atoms: N_12  and  C_13 
REMARK    4  A    between atoms: C_13  and  C_14 
REMARK    5  A    between atoms: C_14  and  C_15 
REMARK    6  A    between atoms: N_17  and  C_18 
ROOT
HETATM    1  N   UNL     1      26.207  45.341  51.682  1.00  0.00    -0.309 N 
HETATM    2  C   UNL     1      24.877  45.036  51.718  1.00  0.00     0.320 C 
HETATM    3  N   UNL     1      24.114  45.513  50.698  1.00  0.00    -0.343 N 
HETATM    4  O   UNL     1      24.305  44.363  52.571  1.00  0.00    -0.247 OA
HETATM    5  H   UNL     1      26.514  45.934  50.932  1.00  0.00     0.170 HD
HETATM    6  H   UNL     1      23.155  45.195  50.791  1.00  0.00     0.164 HD
ENDROOT
BRANCH   3   7
HETATM    7  C   UNL     1      24.432  46.307  49.518  1.00  0.00     0.129 C 
BRANCH   7   8
HETATM    8  C   UNL     1      24.875  47.729  49.883  1.00  0.00     0.061 C 
BRANCH   8   9
HETATM    9  C   UNL     1      24.051  48.789  49.237  1.00  0.00    -0.020 A 
HETATM   10  C   UNL     1      22.675  48.888  49.182  1.00  0.00     0.127 A 
HETATM   11  N   UNL     1      22.362  50.021  48.459  1.00  0.00    -0.245 N 
HETATM   12  N   UNL     1      23.492  50.662  48.058  1.00  0.00    -0.180 NA
HETATM   13  C   UNL     1      24.493  49.917  48.520  1.00  0.00     0.148 A 
BRANCH  11  14
HETATM   14  C   UNL     1      21.072  50.518  48.118  1.00  0.00     0.058 A 
HETATM   15  C   UNL     1      20.544  51.656  48.743  1.00  0.00     0.031 A 
HETATM   16  C   UNL     1      19.268  52.114  48.397  1.00  0.00     0.002 A 
HETATM   17  C   UNL     1      18.518  51.445  47.432  1.00  0.00     0.000 A 
HETATM   18  C   UNL     1      19.039  50.316  46.805  1.00  0.00     0.002 A 
HETATM   19  C   UNL     1      20.313  49.852  47.144  1.00  0.00     0.031 A 
ENDBRANCH  11  14
ENDBRANCH   8   9
ENDBRANCH   7   8
ENDBRANCH   3   7
BRANCH   1  20
HETATM   20  C   UNL     1      27.214  44.927  52.579  1.00  0.00     0.036 A 
HETATM   21  C   UNL     1      28.125  43.906  52.317  1.00  0.00     0.030 A 
HETATM   22  C   UNL     1      29.097  43.561  53.263  1.00  0.00     0.018 A 
HETATM   23  C   UNL     1      29.184  44.243  54.484  1.00  0.00     0.015 A 
HETATM   24  C   UNL     1      28.280  45.286  54.762  1.00  0.00    -0.046 A 
HETATM   25  C   UNL     1      28.315  46.067  56.047  1.00  0.00     0.049 C 
HETATM   26  C   UNL     1      27.295  45.603  53.805  1.00  0.00     0.037 A 
BRANCH  23  27
HETATM   27  C   UNL     1      30.229  43.830  55.469  1.00  0.00     0.156 C 
HETATM   28  C   UNL     1      31.076  44.903  56.105  1.00  0.00     0.097 C 
HETATM   29  O   UNL     1      30.407  42.644  55.733  1.00  0.00    -0.293 OA
ENDBRANCH  23  27
ENDBRANCH   1  20
TORSDOF 6
ENDMDL
MODEL 9
REMARK VINA RESULT:      -8.3      1.759      2.796
REMARK  6 active torsions:
REMARK  status: ('A' for Active; 'I' for Inactive)
REMARK    1  A    between atoms: C_3  and  C_4 
REMARK    2  A    between atoms: C_9  and  N_10 
REMARK       I    between atoms: N_10  and  C_11 
REMARK       I    between atoms: C_11  and  N_12 
REMARK    3  A    between atoms: N_12  and  C_13 
REMARK    4  A    between atoms: C_13  and  C_14 
REMARK    5  A    between atoms: C_14  and  C_15 
REMARK    6  A    between atoms: N_17  and  C_18 
ROOT
HETATM    1  N   UNL     1      23.732  46.124  48.962  1.00  0.00    -0.309 N 
HETATM    2  C   UNL     1      23.804  44.923  48.319  1.00  0.00     0.320 C 
HETATM    3  N   UNL     1      24.722  44.034  48.786  1.00  0.00    -0.343 N 
HETATM    4  O   UNL     1      23.111  44.559  47.373  1.00  0.00    -0.247 OA
HETATM    5  H   UNL     1      24.395  46.282  49.700  1.00  0.00     0.170 HD
HETATM    6  H   UNL     1      24.665  43.161  48.274  1.00  0.00     0.164 HD
ENDROOT
BRANCH   3   7
HETATM    7  C   UNL     1      25.681  44.095  49.882  1.00  0.00     0.129 C 
BRANCH   7   8
HETATM    8  C   UNL     1      25.069  43.637  51.210  1.00  0.00     0.061 C 
BRANCH   8   9
HETATM    9  C   UNL     1      25.842  44.082  52.403  1.00  0.00    -0.020 A 
HETATM   10  C   UNL     1      27.158  43.809  52.720  1.00  0.00     0.127 A 
HETATM   11  N   UNL     1      27.434  44.408  53.931  1.00  0.00    -0.245 N 
HETATM   12  N   UNL     1      26.342  45.071  54.399  1.00  0.00    -0.180 NA
HETATM   13  C   UNL     1      25.397  44.865  53.485  1.00  0.00     0.148 A 
BRANCH  11  14
HETATM   14  C   UNL     1      28.650  44.380  54.670  1.00  0.00     0.058 A 
HETATM   15  C   UNL     1      29.517  43.280  54.601  1.00  0.00     0.031 A 
HETATM   16  C   UNL     1      30.699  43.274  55.348  1.00  0.00     0.002 A 
HETATM   17  C   UNL     1      31.023  44.357  56.162  1.00  0.00     0.000 A 
HETATM   18  C   UNL     1      30.168  45.454  56.233  1.00  0.00     0.002 A 
HETATM   19  C   UNL     1      28.985  45.469  55.489  1.00  0.00     0.031 A 
ENDBRANCH  11  14
ENDBRANCH   8   9
ENDBRANCH   7   8
ENDBRANCH   3   7
BRANCH   1  20
HETATM   20  C   UNL     1      22.838  47.187  48.714  1.00  0.00     0.036 A 
HETATM   21  C   UNL     1      21.452  47.058  48.708  1.00  0.00     0.030 A 
HETATM   22  C   UNL     1      20.636  48.167  48.455  1.00  0.00     0.018 A 
HETATM   23  C   UNL     1      21.195  49.431  48.218  1.00  0.00     0.015 A 
HETATM   24  C   UNL     1      22.595  49.583  48.231  1.00  0.00    -0.046 A 
HETATM   25  C   UNL     1      23.268  50.907  47.991  1.00  0.00     0.049 C 
HETATM   26  C   UNL     1      23.398  48.449  48.466  1.00  0.00     0.037 A 
BRANCH  23  27
HETATM   27  C   UNL     1      20.285  50.582  47.938  1.00  0.00     0.156 C 
HETATM   28  C   UNL     1      19.946  51.517  49.071  1.00  0.00     0.097 C 
HETATM   29  O   UNL     1      19.808  50.746  46.819  1.00  0.00    -0.293 OA
ENDBRANCH  23  27
ENDBRANCH   1  20
TORSDOF 6
ENDMDL
MODEL 10
REMARK VINA RESULT:      -8.0      3.056     10.981
REMARK  6 active torsions:
REMARK  status: ('A' for Active; 'I' for Inactive)
REMARK    1  A    between atoms: C_3  and  C_4 
REMARK    2  A    between atoms: C_9  and  N_10 
REMARK       I    between atoms: N_10  and  C_11 
REMARK       I    between atoms: C_11  and  N_12 
REMARK    3  A    between atoms: N_12  and  C_13 
REMARK    4  A    between atoms: C_13  and  C_14 
REMARK    5  A    between atoms: C_14  and  C_15 
REMARK    6  A    between atoms: N_17  and  C_18 
ROOT
HETATM    1  N   UNL     1      24.754  47.587  50.569  1.00  0.00    -0.309 N 
HETATM    2  C   UNL     1      25.514  48.211  49.622  1.00  0.00     0.320 C 
HETATM    3  N   UNL     1      24.903  49.184  48.892  1.00  0.00    -0.343 N 
HETATM    4  O   UNL     1      26.696  47.993  49.375  1.00  0.00    -0.247 OA
HETATM    5  H   UNL     1      23.789  47.858  50.623  1.00  0.00     0.170 HD
HETATM    6  H   UNL     1      25.560  49.615  48.252  1.00  0.00     0.164 HD
ENDROOT
BRANCH   3   7
HETATM    7  C   UNL     1      23.552  49.729  48.916  1.00  0.00     0.129 C 
BRANCH   7   8
HETATM    8  C   UNL     1      22.725  49.274  47.708  1.00  0.00     0.061 C 
BRANCH   8   9
HETATM    9  C   UNL     1      21.255  49.391  47.919  1.00  0.00    -0.020 A 
HETATM   10  C   UNL     1      20.531  50.503  48.299  1.00  0.00     0.127 A 
HETATM   11  N   UNL     1      19.205  50.132  48.393  1.00  0.00    -0.245 N 
HETATM   12  N   UNL     1      19.049  48.820  48.071  1.00  0.00    -0.180 NA
HETATM   13  C   UNL     1      20.277  48.385  47.797  1.00  0.00     0.148 A 
BRANCH  11  14
HETATM   14  C   UNL     1      18.093  50.933  48.777  1.00  0.00     0.058 A 
HETATM   15  C   UNL     1      18.267  52.111  49.518  1.00  0.00     0.031 A 
HETATM   16  C   UNL     1      17.155  52.871  49.893  1.00  0.00     0.002 A 
HETATM   17  C   UNL     1      15.871  52.466  49.533  1.00  0.00     0.000 A 
HETATM   18  C   UNL     1      15.692  51.298  48.795  1.00  0.00     0.002 A 
HETATM   19  C   UNL     1      16.798  50.534  48.415  1.00  0.00     0.031 A 
ENDBRANCH  11  14
ENDBRANCH   8   9
ENDBRANCH   7   8
ENDBRANCH   3   7
BRANCH   1  20
HETATM   20  C   UNL     1      25.158  46.595  51.486  1.00  0.00     0.036 A 
HETATM   21  C   UNL     1      24.894  45.235  51.334  1.00  0.00     0.030 A 
HETATM   22  C   UNL     1      25.335  44.315  52.293  1.00  0.00     0.018 A 
HETATM   23  C   UNL     1      26.062  44.738  53.414  1.00  0.00     0.015 A 
HETATM   24  C   UNL     1      26.348  46.107  53.578  1.00  0.00    -0.046 A 
HETATM   25  C   UNL     1      27.126  46.636  54.752  1.00  0.00     0.049 C 
HETATM   26  C   UNL     1      25.875  47.019  52.613  1.00  0.00     0.037 A 
BRANCH  23  27
HETATM   27  C   UNL     1      26.499  43.721  54.417  1.00  0.00     0.156 C 
HETATM   28  C   UNL     1      27.843  43.065  54.231  1.00  0.00     0.097 C 
HETATM   29  O   UNL     1      25.769  43.413  55.355  1.00  0.00    -0.293 OA
ENDBRANCH  23  27
ENDBRANCH   1  20
TORSDOF 6
ENDMDL
