MODEL 1
REMARK VINA RESULT:      -9.7      0.000      0.000
REMARK  8 active torsions:
REMARK  status: ('A' for Active; 'I' for Inactive)
REMARK    1  A    between atoms: C_2  and  C_3 
REMARK    2  A    between atoms: C_3  and  O_4 
REMARK    3  A    between atoms: O_4  and  C_5 
REMARK    4  A    between atoms: C_7  and  C_8 
REMARK       I    between atoms: C_8  and  N_9 
REMARK    5  A    between atoms: N_9  and  C_10 
REMARK    6  A    between atoms: N_11  and  C_12 
REMARK    7  A    between atoms: C_14  and  C_15 
REMARK    8  A    between atoms: C_24  and  O_25 
ROOT
HETATM    1  C   UNL     1      24.305  45.593  49.620  1.00  0.00     0.035 A 
HETATM    2  C   UNL     1      23.206  46.376  49.254  1.00  0.00     0.046 A 
HETATM    3  C   UNL     1      23.326  47.768  49.067  1.00  0.00     0.036 A 
HETATM    4  C   UNL     1      24.593  48.352  49.284  1.00  0.00     0.084 A 
HETATM    5  C   UNL     1      25.694  47.593  49.703  1.00  0.00    -0.026 A 
HETATM    6  C   UNL     1      27.041  48.226  49.911  1.00  0.00     0.051 C 
HETATM    7  C   UNL     1      25.535  46.211  49.867  1.00  0.00     0.039 A 
ENDROOT
BRANCH   1   8
HETATM    8  N   UNL     1      24.237  44.199  49.831  1.00  0.00    -0.333 N 
HETATM    9  C   UNL     1      25.173  43.324  50.260  1.00  0.00     0.179 C 
HETATM   10  S   UNL     1      25.164  41.767  49.644  1.00  0.00    -0.040 SA
HETATM   11  H   UNL     1      23.424  43.753  49.418  1.00  0.00     0.168 HD
BRANCH   9  12
HETATM   12  N   UNL     1      26.087  43.613  51.229  1.00  0.00    -0.299 N 
HETATM   13  C   UNL     1      25.895  43.873  52.583  1.00  0.00     0.257 C 
HETATM   14  O   UNL     1      24.851  44.158  53.151  1.00  0.00    -0.267 OA
HETATM   15  H   UNL     1      27.012  43.290  50.979  1.00  0.00     0.171 HD
BRANCH  13  16
HETATM   16  C   UNL     1      27.136  43.832  53.386  1.00  0.00     0.035 A 
HETATM   17  C   UNL     1      27.558  44.957  54.105  1.00  0.00     0.053 A 
HETATM   18  C   UNL     1      28.767  44.896  54.796  1.00  0.00     0.069 A 
HETATM   19  C   UNL     1      29.549  43.740  54.762  1.00  0.00     0.037 A 
HETATM   20  C   UNL     1      29.117  42.621  54.051  1.00  0.00     0.004 A 
HETATM   21  C   UNL     1      27.912  42.668  53.352  1.00  0.00     0.017 A 
BRANCH  18  22
HETATM   22  O   UNL     1      29.298  45.984  55.428  1.00  0.00    -0.351 OA
BRANCH  22  23
HETATM   23  C   UNL     1      28.412  46.542  56.405  1.00  0.00     0.175 C 
BRANCH  23  24
HETATM   24  C   UNL     1      28.854  46.015  57.767  1.00  0.00     0.022 C 
HETATM   25  C   UNL     1      30.365  46.008  57.919  1.00  0.00     0.007 C 
ENDBRANCH  23  24
ENDBRANCH  22  23
ENDBRANCH  18  22
ENDBRANCH  13  16
ENDBRANCH   9  12
ENDBRANCH   1   8
BRANCH   3  26
HETATM   26  C   UNL     1      22.180  48.613  48.656  1.00  0.00     0.112 A 
HETATM   27  S   UNL     1      20.980  48.080  47.541  1.00  0.00    -0.067 SA
HETATM   28  C   UNL     1      20.134  49.567  47.709  1.00  0.00     0.035 A 
HETATM   29  C   UNL     1      20.825  50.381  48.604  1.00  0.00     0.075 A 
HETATM   30  C   UNL     1      18.943  49.985  47.092  1.00  0.00     0.021 A 
HETATM   31  N   UNL     1      21.976  49.826  49.140  1.00  0.00    -0.239 NA
HETATM   32  C   UNL     1      20.315  51.663  48.892  1.00  0.00     0.033 A 
HETATM   33  C   UNL     1      19.131  52.092  48.282  1.00  0.00     0.002 A 
HETATM   34  C   UNL     1      18.454  51.260  47.396  1.00  0.00     0.002 A 
ENDBRANCH   3  26
BRANCH   4  35
HETATM   35  O   UNL     1      24.815  49.698  49.102  1.00  0.00    -0.359 OA
HETATM   36  H   UNL     1      25.053  49.839  48.160  1.00  0.00     0.218 HD
ENDBRANCH   4  35
TORSDOF 8
ENDMDL
MODEL 2
REMARK VINA RESULT:      -9.5      1.417      1.995
REMARK  8 active torsions:
REMARK  status: ('A' for Active; 'I' for Inactive)
REMARK    1  A    between atoms: C_2  and  C_3 
REMARK    2  A    between atoms: C_3  and  O_4 
REMARK    3  A    between atoms: O_4  and  C_5 
REMARK    4  A    between atoms: C_7  and  C_8 
REMARK       I    between atoms: C_8  and  N_9 
REMARK    5  A    between atoms: N_9  and  C_10 
REMARK    6  A    between atoms: N_11  and  C_12 
REMARK    7  A    between atoms: C_14  and  C_15 
REMARK    8  A    between atoms: C_24  and  O_25 
ROOT
HETATM    1  C   UNL     1      24.184  46.774  49.398  1.00  0.00     0.035 A 
HETATM    2  C   UNL     1      22.924  47.373  49.300  1.00  0.00     0.046 A 
HETATM    3  C   UNL     1      22.784  48.740  48.988  1.00  0.00     0.036 A 
HETATM    4  C   UNL     1      23.963  49.493  48.797  1.00  0.00     0.084 A 
HETATM    5  C   UNL     1      25.236  48.923  48.943  1.00  0.00    -0.026 A 
HETATM    6  C   UNL     1      26.480  49.733  48.717  1.00  0.00     0.051 C 
HETATM    7  C   UNL     1      25.331  47.559  49.244  1.00  0.00     0.039 A 
ENDROOT
BRANCH   1   8
HETATM    8  N   UNL     1      24.379  45.413  49.720  1.00  0.00    -0.333 N 
HETATM    9  C   UNL     1      25.365  44.803  50.415  1.00  0.00     0.179 C 
HETATM   10  S   UNL     1      25.838  43.263  49.959  1.00  0.00    -0.040 SA
HETATM   11  H   UNL     1      23.799  44.771  49.191  1.00  0.00     0.168 HD
BRANCH   9  12
HETATM   12  N   UNL     1      25.951  45.341  51.521  1.00  0.00    -0.299 N 
HETATM   13  C   UNL     1      25.845  44.962  52.856  1.00  0.00     0.257 C 
HETATM   14  O   UNL     1      25.005  44.234  53.364  1.00  0.00    -0.267 OA
HETATM   15  H   UNL     1      26.785  45.864  51.287  1.00  0.00     0.171 HD
BRANCH  13  16
HETATM   16  C   UNL     1      26.865  45.570  53.738  1.00  0.00     0.035 A 
HETATM   17  C   UNL     1      27.905  44.797  54.265  1.00  0.00     0.053 A 
HETATM   18  C   UNL     1      28.807  45.395  55.143  1.00  0.00     0.069 A 
HETATM   19  C   UNL     1      28.669  46.738  55.501  1.00  0.00     0.037 A 
HETATM   20  C   UNL     1      27.635  47.504  54.963  1.00  0.00     0.004 A 
HETATM   21  C   UNL     1      26.724  46.919  54.086  1.00  0.00     0.017 A 
BRANCH  18  22
HETATM   22  O   UNL     1      29.781  44.682  55.783  1.00  0.00    -0.351 OA
BRANCH  22  23
HETATM   23  C   UNL     1      30.427  45.434  56.817  1.00  0.00     0.175 C 
BRANCH  23  24
HETATM   24  C   UNL     1      31.063  44.429  57.774  1.00  0.00     0.022 C 
HETATM   25  C   UNL     1      31.728  43.278  57.041  1.00  0.00     0.007 C 
ENDBRANCH  23  24
ENDBRANCH  22  23
ENDBRANCH  18  22
ENDBRANCH  13  16
ENDBRANCH   9  12
ENDBRANCH   1   8
BRANCH   3  26
HETATM   26  C   UNL     1      21.459  49.390  48.855  1.00  0.00     0.112 A 
HETATM   27  S   UNL     1      20.264  48.852  47.738  1.00  0.00    -0.067 SA
HETATM   28  C   UNL     1      19.174  50.063  48.289  1.00  0.00     0.035 A 
HETATM   29  C   UNL     1      19.795  50.807  49.290  1.00  0.00     0.075 A 
HETATM   30  C   UNL     1      17.863  50.337  47.867  1.00  0.00     0.021 A 
HETATM   31  N   UNL     1      21.085  50.410  49.608  1.00  0.00    -0.239 NA
HETATM   32  C   UNL     1      19.087  51.868  49.889  1.00  0.00     0.033 A 
HETATM   33  C   UNL     1      17.781  52.152  49.475  1.00  0.00     0.002 A 
HETATM   34  C   UNL     1      17.178  51.392  48.478  1.00  0.00     0.002 A 
ENDBRANCH   3  26
BRANCH   4  35
HETATM   35  O   UNL     1      23.928  50.828  48.463  1.00  0.00    -0.359 OA
HETATM   36  H   UNL     1      24.774  51.048  48.016  1.00  0.00     0.218 HD
ENDBRANCH   4  35
TORSDOF 8
ENDMDL
MODEL 3
REMARK VINA RESULT:      -9.2      3.073     10.340
REMARK  8 active torsions:
REMARK  status: ('A' for Active; 'I' for Inactive)
REMARK    1  A    between atoms: C_2  and  C_3 
REMARK    2  A    between atoms: C_3  and  O_4 
REMARK    3  A    between atoms: O_4  and  C_5 
REMARK    4  A    between atoms: C_7  and  C_8 
REMARK       I    between atoms: C_8  and  N_9 
REMARK    5  A    between atoms: N_9  and  C_10 
REMARK    6  A    between atoms: N_11  and  C_12 
REMARK    7  A    between atoms: C_14  and  C_15 
REMARK    8  A    between atoms: C_24  and  O_25 
ROOT
HETATM    1  C   UNL     1      22.343  46.881  48.424  1.00  0.00     0.035 A 
HETATM    2  C   UNL     1      23.244  46.160  49.214  1.00  0.00     0.046 A 
HETATM    3  C   UNL     1      24.409  46.760  49.733  1.00  0.00     0.036 A 
HETATM    4  C   UNL     1      24.648  48.114  49.411  1.00  0.00     0.084 A 
HETATM    5  C   UNL     1      23.785  48.839  48.577  1.00  0.00    -0.026 A 
HETATM    6  C   UNL     1      24.044  50.284  48.259  1.00  0.00     0.051 C 
HETATM    7  C   UNL     1      22.634  48.208  48.090  1.00  0.00     0.039 A 
ENDROOT
BRANCH   1   8
HETATM    8  N   UNL     1      21.170  46.326  47.871  1.00  0.00    -0.333 N 
HETATM    9  C   UNL     1      19.868  46.618  48.085  1.00  0.00     0.179 C 
HETATM   10  S   UNL     1      18.743  45.378  48.026  1.00  0.00    -0.040 SA
HETATM   11  H   UNL     1      21.313  45.447  47.383  1.00  0.00     0.168 HD
BRANCH   9  12
HETATM   12  N   UNL     1      19.401  47.884  48.275  1.00  0.00    -0.299 N 
HETATM   13  C   UNL     1      19.074  48.542  49.456  1.00  0.00     0.257 C 
HETATM   14  O   UNL     1      18.882  48.052  50.560  1.00  0.00    -0.267 OA
HETATM   15  H   UNL     1      19.622  48.486  47.493  1.00  0.00     0.171 HD
BRANCH  13  16
HETATM   16  C   UNL     1      18.903  50.003  49.304  1.00  0.00     0.035 A 
HETATM   17  C   UNL     1      17.849  50.669  49.941  1.00  0.00     0.053 A 
HETATM   18  C   UNL     1      17.687  52.035  49.719  1.00  0.00     0.069 A 
HETATM   19  C   UNL     1      18.550  52.726  48.866  1.00  0.00     0.037 A 
HETATM   20  C   UNL     1      19.604  52.057  48.243  1.00  0.00     0.004 A 
HETATM   21  C   UNL     1      19.777  50.690  48.453  1.00  0.00     0.017 A 
BRANCH  18  22
HETATM   22  O   UNL     1      16.622  52.732  50.216  1.00  0.00    -0.351 OA
BRANCH  22  23
HETATM   23  C   UNL     1      15.372  52.290  49.675  1.00  0.00     0.175 C 
BRANCH  23  24
HETATM   24  C   UNL     1      14.267  52.984  50.467  1.00  0.00     0.022 C 
HETATM   25  C   UNL     1      13.616  54.108  49.682  1.00  0.00     0.007 C 
ENDBRANCH  23  24
ENDBRANCH  22  23
ENDBRANCH  18  22
ENDBRANCH  13  16
ENDBRANCH   9  12
ENDBRANCH   1   8
BRANCH   3  26
HETATM   26  C   UNL     1      25.365  46.022  50.592  1.00  0.00     0.112 A 
HETATM   27  S   UNL     1      26.337  44.727  50.006  1.00  0.00    -0.067 SA
HETATM   28  C   UNL     1      27.073  44.553  51.550  1.00  0.00     0.035 A 
HETATM   29  C   UNL     1      26.524  45.494  52.419  1.00  0.00     0.075 A 
HETATM   30  C   UNL     1      28.064  43.649  51.965  1.00  0.00     0.021 A 
HETATM   31  N   UNL     1      25.565  46.325  51.863  1.00  0.00    -0.239 NA
HETATM   32  C   UNL     1      26.975  45.532  53.754  1.00  0.00     0.033 A 
HETATM   33  C   UNL     1      27.960  44.634  54.180  1.00  0.00     0.002 A 
HETATM   34  C   UNL     1      28.498  43.707  53.293  1.00  0.00     0.002 A 
ENDBRANCH   3  26
BRANCH   4  35
HETATM   35  O   UNL     1      25.744  48.794  49.892  1.00  0.00    -0.359 OA
HETATM   36  H   UNL     1      26.342  48.140  50.315  1.00  0.00     0.218 HD
ENDBRANCH   4  35
TORSDOF 8
ENDMDL
MODEL 4
REMARK VINA RESULT:      -9.0      3.546      8.994
REMARK  8 active torsions:
REMARK  status: ('A' for Active; 'I' for Inactive)
REMARK    1  A    between atoms: C_2  and  C_3 
REMARK    2  A    between atoms: C_3  and  O_4 
REMARK    3  A    between atoms: O_4  and  C_5 
REMARK    4  A    between atoms: C_7  and  C_8 
REMARK       I    between atoms: C_8  and  N_9 
REMARK    5  A    between atoms: N_9  and  C_10 
REMARK    6  A    between atoms: N_11  and  C_12 
REMARK    7  A    between atoms: C_14  and  C_15 
REMARK    8  A    between atoms: C_24  and  O_25 
ROOT
HETATM    1  C   UNL     1      26.641  41.017  49.085  1.00  0.00     0.035 A 
HETATM    2  C   UNL     1      27.050  41.851  50.130  1.00  0.00     0.046 A 
HETATM    3  C   UNL     1      27.990  41.421  51.087  1.00  0.00     0.036 A 
HETATM    4  C   UNL     1      28.493  40.107  50.969  1.00  0.00     0.084 A 
HETATM    5  C   UNL     1      28.056  39.237  49.959  1.00  0.00    -0.026 A 
HETATM    6  C   UNL     1      28.614  37.848  49.835  1.00  0.00     0.051 C 
HETATM    7  C   UNL     1      27.128  39.707  49.022  1.00  0.00     0.039 A 
ENDROOT
BRANCH   1   8
HETATM    8  N   UNL     1      25.695  41.395  48.108  1.00  0.00    -0.333 N 
HETATM    9  C   UNL     1      24.631  42.225  48.183  1.00  0.00     0.179 C 
HETATM   10  S   UNL     1      23.267  41.870  47.278  1.00  0.00    -0.040 SA
HETATM   11  H   UNL     1      25.696  40.811  47.278  1.00  0.00     0.168 HD
BRANCH   9  12
HETATM   12  N   UNL     1      24.628  43.383  48.899  1.00  0.00    -0.299 N 
HETATM   13  C   UNL     1      23.955  43.699  50.076  1.00  0.00     0.257 C 
HETATM   14  O   UNL     1      23.017  43.104  50.586  1.00  0.00    -0.267 OA
HETATM   15  H   UNL     1      25.448  43.945  48.709  1.00  0.00     0.171 HD
BRANCH  13  16
HETATM   16  C   UNL     1      24.435  44.935  50.732  1.00  0.00     0.035 A 
HETATM   17  C   UNL     1      24.718  46.079  49.978  1.00  0.00     0.053 A 
HETATM   18  C   UNL     1      25.230  47.201  50.628  1.00  0.00     0.069 A 
HETATM   19  C   UNL     1      25.469  47.180  52.003  1.00  0.00     0.037 A 
HETATM   20  C   UNL     1      25.175  46.039  52.748  1.00  0.00     0.004 A 
HETATM   21  C   UNL     1      24.665  44.908  52.112  1.00  0.00     0.017 A 
BRANCH  18  22
HETATM   22  O   UNL     1      25.633  48.315  49.947  1.00  0.00    -0.351 OA
BRANCH  22  23
HETATM   23  C   UNL     1      24.615  48.832  49.082  1.00  0.00     0.175 C 
BRANCH  23  24
HETATM   24  C   UNL     1      25.282  49.851  48.162  1.00  0.00     0.022 C 
HETATM   25  C   UNL     1      26.771  49.978  48.427  1.00  0.00     0.007 C 
ENDBRANCH  23  24
ENDBRANCH  22  23
ENDBRANCH  18  22
ENDBRANCH  13  16
ENDBRANCH   9  12
ENDBRANCH   1   8
BRANCH   3  26
HETATM   26  C   UNL     1      28.456  42.297  52.189  1.00  0.00     0.112 A 
HETATM   27  S   UNL     1      27.726  43.815  52.546  1.00  0.00    -0.067 SA
HETATM   28  C   UNL     1      28.802  44.045  53.867  1.00  0.00     0.035 A 
HETATM   29  C   UNL     1      29.656  42.947  53.949  1.00  0.00     0.075 A 
HETATM   30  C   UNL     1      28.886  45.119  54.768  1.00  0.00     0.021 A 
HETATM   31  N   UNL     1      29.444  41.960  53.000  1.00  0.00    -0.239 NA
HETATM   32  C   UNL     1      30.636  42.921  54.963  1.00  0.00     0.033 A 
HETATM   33  C   UNL     1      30.731  43.987  55.863  1.00  0.00     0.002 A 
HETATM   34  C   UNL     1      29.863  45.070  55.767  1.00  0.00     0.002 A 
ENDBRANCH   3  26
BRANCH   4  35
HETATM   35  O   UNL     1      29.433  39.606  51.839  1.00  0.00    -0.359 OA
HETATM   36  H   UNL     1      29.994  40.353  52.140  1.00  0.00     0.218 HD
ENDBRANCH   4  35
TORSDOF 8
ENDMDL
MODEL 5
REMARK VINA RESULT:      -9.0      3.086     10.715
REMARK  8 active torsions:
REMARK  status: ('A' for Active; 'I' for Inactive)
REMARK    1  A    between atoms: C_2  and  C_3 
REMARK    2  A    between atoms: C_3  and  O_4 
REMARK    3  A    between atoms: O_4  and  C_5 
REMARK    4  A    between atoms: C_7  and  C_8 
REMARK       I    between atoms: C_8  and  N_9 
REMARK    5  A    between atoms: N_9  and  C_10 
REMARK    6  A    between atoms: N_11  and  C_12 
REMARK    7  A    between atoms: C_14  and  C_15 
REMARK    8  A    between atoms: C_24  and  O_25 
ROOT
HETATM    1  C   UNL     1      24.909  46.785  50.754  1.00  0.00     0.035 A 
HETATM    2  C   UNL     1      25.914  46.617  51.711  1.00  0.00     0.046 A 
HETATM    3  C   UNL     1      26.221  45.346  52.238  1.00  0.00     0.036 A 
HETATM    4  C   UNL     1      25.463  44.246  51.781  1.00  0.00     0.084 A 
HETATM    5  C   UNL     1      24.416  44.402  50.861  1.00  0.00    -0.026 A 
HETATM    6  C   UNL     1      23.631  43.219  50.370  1.00  0.00     0.051 C 
HETATM    7  C   UNL     1      24.150  45.680  50.356  1.00  0.00     0.039 A 
ENDROOT
BRANCH   1   8
HETATM    8  N   UNL     1      24.554  48.036  50.205  1.00  0.00    -0.333 N 
HETATM    9  C   UNL     1      23.647  48.358  49.256  1.00  0.00     0.179 C 
HETATM   10  S   UNL     1      23.983  49.630  48.219  1.00  0.00    -0.040 SA
HETATM   11  H   UNL     1      25.208  48.784  50.411  1.00  0.00     0.168 HD
BRANCH   9  12
HETATM   12  N   UNL     1      22.432  47.754  49.139  1.00  0.00    -0.299 N 
HETATM   13  C   UNL     1      21.158  48.314  49.135  1.00  0.00     0.257 C 
HETATM   14  O   UNL     1      20.830  49.435  49.495  1.00  0.00    -0.267 OA
HETATM   15  H   UNL     1      22.505  46.846  48.699  1.00  0.00     0.171 HD
BRANCH  13  16
HETATM   16  C   UNL     1      20.097  47.393  48.673  1.00  0.00     0.035 A 
HETATM   17  C   UNL     1      18.770  47.827  48.570  1.00  0.00     0.053 A 
HETATM   18  C   UNL     1      17.792  46.909  48.193  1.00  0.00     0.069 A 
HETATM   19  C   UNL     1      18.125  45.578  47.935  1.00  0.00     0.037 A 
HETATM   20  C   UNL     1      19.451  45.156  48.030  1.00  0.00     0.004 A 
HETATM   21  C   UNL     1      20.440  46.062  48.409  1.00  0.00     0.017 A 
BRANCH  18  22
HETATM   22  O   UNL     1      16.463  47.228  48.177  1.00  0.00    -0.351 OA
BRANCH  22  23
HETATM   23  C   UNL     1      16.080  47.937  46.994  1.00  0.00     0.175 C 
BRANCH  23  24
HETATM   24  C   UNL     1      15.124  49.047  47.424  1.00  0.00     0.022 C 
HETATM   25  C   UNL     1      15.842  50.184  48.128  1.00  0.00     0.007 C 
ENDBRANCH  23  24
ENDBRANCH  22  23
ENDBRANCH  18  22
ENDBRANCH  13  16
ENDBRANCH   9  12
ENDBRANCH   1   8
BRANCH   3  26
HETATM   26  C   UNL     1      27.298  45.141  53.235  1.00  0.00     0.112 A 
HETATM   27  S   UNL     1      27.562  46.213  54.557  1.00  0.00    -0.067 SA
HETATM   28  C   UNL     1      28.855  45.231  55.122  1.00  0.00     0.035 A 
HETATM   29  C   UNL     1      29.007  44.146  54.261  1.00  0.00     0.075 A 
HETATM   30  C   UNL     1      29.677  45.406  56.248  1.00  0.00     0.021 A 
HETATM   31  N   UNL     1      28.114  44.101  53.203  1.00  0.00    -0.239 NA
HETATM   32  C   UNL     1      30.021  43.203  54.527  1.00  0.00     0.033 A 
HETATM   33  C   UNL     1      30.848  43.369  55.643  1.00  0.00     0.002 A 
HETATM   34  C   UNL     1      30.674  44.456  56.492  1.00  0.00     0.002 A 
ENDBRANCH   3  26
BRANCH   4  35
HETATM   35  O   UNL     1      25.705  42.963  52.216  1.00  0.00    -0.359 OA
HETATM   36  H   UNL     1      25.150  42.354  51.683  1.00  0.00     0.218 HD
ENDBRANCH   4  35
TORSDOF 8
ENDMDL
MODEL 6
REMARK VINA RESULT:      -8.9      3.415      6.536
REMARK  8 active torsions:
REMARK  status: ('A' for Active; 'I' for Inactive)
REMARK    1  A    between atoms: C_2  and  C_3 
REMARK    2  A    between atoms: C_3  and  O_4 
REMARK    3  A    between atoms: O_4  and  C_5 
REMARK    4  A    between atoms: C_7  and  C_8 
REMARK       I    between atoms: C_8  and  N_9 
REMARK    5  A    between atoms: N_9  and  C_10 
REMARK    6  A    between atoms: N_11  and  C_12 
REMARK    7  A    between atoms: C_14  and  C_15 
REMARK    8  A    between atoms: C_24  and  O_25 
ROOT
HETATM    1  C   UNL     1      24.036  43.602  50.485  1.00  0.00     0.035 A 
HETATM    2  C   UNL     1      23.043  44.493  50.069  1.00  0.00     0.046 A 
HETATM    3  C   UNL     1      22.218  44.209  48.962  1.00  0.00     0.036 A 
HETATM    4  C   UNL     1      22.442  42.999  48.271  1.00  0.00     0.084 A 
HETATM    5  C   UNL     1      23.468  42.116  48.640  1.00  0.00    -0.026 A 
HETATM    6  C   UNL     1      23.681  40.823  47.906  1.00  0.00     0.051 C 
HETATM    7  C   UNL     1      24.258  42.432  49.751  1.00  0.00     0.039 A 
ENDROOT
BRANCH   1   8
HETATM    8  N   UNL     1      24.896  43.844  51.578  1.00  0.00    -0.333 N 
HETATM    9  C   UNL     1      25.968  44.658  51.694  1.00  0.00     0.179 C 
HETATM   10  S   UNL     1      27.246  44.175  52.664  1.00  0.00    -0.040 SA
HETATM   11  H   UNL     1      24.819  43.166  52.329  1.00  0.00     0.168 HD
BRANCH   9  12
HETATM   12  N   UNL     1      26.042  45.893  51.125  1.00  0.00    -0.299 N 
HETATM   13  C   UNL     1      26.698  46.300  49.966  1.00  0.00     0.257 C 
HETATM   14  O   UNL     1      27.565  45.702  49.346  1.00  0.00    -0.267 OA
HETATM   15  H   UNL     1      25.279  46.489  51.419  1.00  0.00     0.171 HD
BRANCH  13  16
HETATM   16  C   UNL     1      26.299  47.641  49.488  1.00  0.00     0.035 A 
HETATM   17  C   UNL     1      24.949  47.966  49.319  1.00  0.00     0.053 A 
HETATM   18  C   UNL     1      24.620  49.219  48.804  1.00  0.00     0.069 A 
HETATM   19  C   UNL     1      25.618  50.129  48.451  1.00  0.00     0.037 A 
HETATM   20  C   UNL     1      26.962  49.801  48.632  1.00  0.00     0.004 A 
HETATM   21  C   UNL     1      27.306  48.551  49.143  1.00  0.00     0.017 A 
BRANCH  18  22
HETATM   22  O   UNL     1      23.332  49.569  48.508  1.00  0.00    -0.351 OA
BRANCH  22  23
HETATM   23  C   UNL     1      22.964  50.837  49.060  1.00  0.00     0.175 C 
BRANCH  23  24
HETATM   24  C   UNL     1      21.494  50.744  49.463  1.00  0.00     0.022 C 
HETATM   25  C   UNL     1      20.597  51.567  48.558  1.00  0.00     0.007 C 
ENDBRANCH  23  24
ENDBRANCH  22  23
ENDBRANCH  18  22
ENDBRANCH  13  16
ENDBRANCH   9  12
ENDBRANCH   1   8
BRANCH   3  26
HETATM   26  C   UNL     1      21.143  45.129  48.519  1.00  0.00     0.112 A 
HETATM   27  S   UNL     1      21.464  46.656  47.792  1.00  0.00    -0.067 SA
HETATM   28  C   UNL     1      19.779  46.942  47.600  1.00  0.00     0.035 A 
HETATM   29  C   UNL     1      19.076  45.852  48.109  1.00  0.00     0.075 A 
HETATM   30  C   UNL     1      19.124  48.051  47.040  1.00  0.00     0.021 A 
HETATM   31  N   UNL     1      19.860  44.828  48.618  1.00  0.00    -0.239 NA
HETATM   32  C   UNL     1      17.667  45.869  48.065  1.00  0.00     0.033 A 
HETATM   33  C   UNL     1      17.004  46.970  47.512  1.00  0.00     0.002 A 
HETATM   34  C   UNL     1      17.726  48.045  47.004  1.00  0.00     0.002 A 
ENDBRANCH   3  26
BRANCH   4  35
HETATM   35  O   UNL     1      21.671  42.621  47.195  1.00  0.00    -0.359 OA
HETATM   36  H   UNL     1      22.275  42.418  46.449  1.00  0.00     0.218 HD
ENDBRANCH   4  35
TORSDOF 8
ENDMDL
MODEL 7
REMARK VINA RESULT:      -8.3      4.267      9.027
REMARK  8 active torsions:
REMARK  status: ('A' for Active; 'I' for Inactive)
REMARK    1  A    between atoms: C_2  and  C_3 
REMARK    2  A    between atoms: C_3  and  O_4 
REMARK    3  A    between atoms: O_4  and  C_5 
REMARK    4  A    between atoms: C_7  and  C_8 
REMARK       I    between atoms: C_8  and  N_9 
REMARK    5  A    between atoms: N_9  and  C_10 
REMARK    6  A    between atoms: N_11  and  C_12 
REMARK    7  A    between atoms: C_14  and  C_15 
REMARK    8  A    between atoms: C_24  and  O_25 
ROOT
HETATM    1  C   UNL     1      24.365  43.877  50.503  1.00  0.00     0.035 A 
HETATM    2  C   UNL     1      25.387  43.739  51.447  1.00  0.00     0.046 A 
HETATM    3  C   UNL     1      26.082  44.858  51.946  1.00  0.00     0.036 A 
HETATM    4  C   UNL     1      25.726  46.129  51.443  1.00  0.00     0.084 A 
HETATM    5  C   UNL     1      24.740  46.284  50.458  1.00  0.00    -0.026 A 
HETATM    6  C   UNL     1      24.359  47.644  49.948  1.00  0.00     0.051 C 
HETATM    7  C   UNL     1      24.067  45.147  49.996  1.00  0.00     0.039 A 
ENDROOT
BRANCH   1   8
HETATM    8  N   UNL     1      23.646  42.789  49.963  1.00  0.00    -0.333 N 
HETATM    9  C   UNL     1      23.999  41.869  49.038  1.00  0.00     0.179 C 
HETATM   10  S   UNL     1      22.828  41.286  47.993  1.00  0.00    -0.040 SA
HETATM   11  H   UNL     1      22.649  42.811  50.153  1.00  0.00     0.168 HD
BRANCH   9  12
HETATM   12  N   UNL     1      25.247  41.328  48.952  1.00  0.00    -0.299 N 
HETATM   13  C   UNL     1      25.974  40.616  49.901  1.00  0.00     0.257 C 
HETATM   14  O   UNL     1      25.767  40.542  51.104  1.00  0.00    -0.267 OA
HETATM   15  H   UNL     1      25.521  41.169  47.992  1.00  0.00     0.171 HD
BRANCH  13  16
HETATM   16  C   UNL     1      27.155  39.914  49.353  1.00  0.00     0.035 A 
HETATM   17  C   UNL     1      27.213  39.565  47.999  1.00  0.00     0.053 A 
HETATM   18  C   UNL     1      28.315  38.847  47.539  1.00  0.00     0.069 A 
HETATM   19  C   UNL     1      29.338  38.473  48.413  1.00  0.00     0.037 A 
HETATM   20  C   UNL     1      29.277  38.835  49.758  1.00  0.00     0.004 A 
HETATM   21  C   UNL     1      28.179  39.549  50.235  1.00  0.00     0.017 A 
BRANCH  18  22
HETATM   22  O   UNL     1      28.393  38.375  46.259  1.00  0.00    -0.351 OA
BRANCH  22  23
HETATM   23  C   UNL     1      28.834  37.014  46.197  1.00  0.00     0.175 C 
BRANCH  23  24
HETATM   24  C   UNL     1      27.597  36.150  45.966  1.00  0.00     0.022 C 
HETATM   25  C   UNL     1      26.603  36.809  45.026  1.00  0.00     0.007 C 
ENDBRANCH  23  24
ENDBRANCH  22  23
ENDBRANCH  18  22
ENDBRANCH  13  16
ENDBRANCH   9  12
ENDBRANCH   1   8
BRANCH   3  26
HETATM   26  C   UNL     1      27.152  44.737  52.964  1.00  0.00     0.112 A 
HETATM   27  S   UNL     1      28.303  43.455  52.960  1.00  0.00    -0.067 SA
HETATM   28  C   UNL     1      29.079  44.120  54.343  1.00  0.00     0.035 A 
HETATM   29  C   UNL     1      28.405  45.279  54.724  1.00  0.00     0.075 A 
HETATM   30  C   UNL     1      30.203  43.650  55.042  1.00  0.00     0.021 A 
HETATM   31  N   UNL     1      27.323  45.622  53.930  1.00  0.00    -0.239 NA
HETATM   32  C   UNL     1      28.865  45.994  55.849  1.00  0.00     0.033 A 
HETATM   33  C   UNL     1      29.982  45.534  56.554  1.00  0.00     0.002 A 
HETATM   34  C   UNL     1      30.643  44.378  56.152  1.00  0.00     0.002 A 
ENDBRANCH   3  26
BRANCH   4  35
HETATM   35  O   UNL     1      26.329  47.283  51.888  1.00  0.00    -0.359 OA
HETATM   36  H   UNL     1      27.265  47.266  51.595  1.00  0.00     0.218 HD
ENDBRANCH   4  35
TORSDOF 8
ENDMDL
MODEL 8
REMARK VINA RESULT:      -8.2     13.708     15.882
REMARK  8 active torsions:
REMARK  status: ('A' for Active; 'I' for Inactive)
REMARK    1  A    between atoms: C_2  and  C_3 
REMARK    2  A    between atoms: C_3  and  O_4 
REMARK    3  A    between atoms: O_4  and  C_5 
REMARK    4  A    between atoms: C_7  and  C_8 
REMARK       I    between atoms: C_8  and  N_9 
REMARK    5  A    between atoms: N_9  and  C_10 
REMARK    6  A    between atoms: N_11  and  C_12 
REMARK    7  A    between atoms: C_14  and  C_15 
REMARK    8  A    between atoms: C_24  and  O_25 
ROOT
HETATM    1  C   UNL     1      36.435  50.592  41.932  1.00  0.00     0.035 A 
HETATM    2  C   UNL     1      35.043  50.692  42.013  1.00  0.00     0.046 A 
HETATM    3  C   UNL     1      34.284  51.253  40.966  1.00  0.00     0.036 A 
HETATM    4  C   UNL     1      34.982  51.731  39.835  1.00  0.00     0.084 A 
HETATM    5  C   UNL     1      36.381  51.688  39.757  1.00  0.00    -0.026 A 
HETATM    6  C   UNL     1      37.107  52.183  38.539  1.00  0.00     0.051 C 
HETATM    7  C   UNL     1      37.096  51.114  40.815  1.00  0.00     0.039 A 
ENDROOT
BRANCH   1   8
HETATM    8  N   UNL     1      37.241  50.050  42.956  1.00  0.00    -0.333 N 
HETATM    9  C   UNL     1      38.318  50.559  43.594  1.00  0.00     0.179 C 
HETATM   10  S   UNL     1      39.536  49.515  44.077  1.00  0.00    -0.040 SA
HETATM   11  H   UNL     1      37.114  49.055  43.106  1.00  0.00     0.168 HD
BRANCH   9  12
HETATM   12  N   UNL     1      38.441  51.872  43.937  1.00  0.00    -0.299 N 
HETATM   13  C   UNL     1      37.520  52.723  44.540  1.00  0.00     0.257 C 
HETATM   14  O   UNL     1      36.314  52.560  44.657  1.00  0.00    -0.267 OA
HETATM   15  H   UNL     1      39.410  52.144  44.041  1.00  0.00     0.171 HD
BRANCH  13  16
HETATM   16  C   UNL     1      38.105  53.983  45.045  1.00  0.00     0.035 A 
HETATM   17  C   UNL     1      38.018  55.162  44.295  1.00  0.00     0.053 A 
HETATM   18  C   UNL     1      38.639  56.312  44.779  1.00  0.00     0.069 A 
HETATM   19  C   UNL     1      39.346  56.287  45.982  1.00  0.00     0.037 A 
HETATM   20  C   UNL     1      39.419  55.111  46.729  1.00  0.00     0.004 A 
HETATM   21  C   UNL     1      38.806  53.952  46.257  1.00  0.00     0.017 A 
BRANCH  18  22
HETATM   22  O   UNL     1      38.692  57.469  44.054  1.00  0.00    -0.351 OA
BRANCH  22  23
HETATM   23  C   UNL     1      37.934  58.529  44.650  1.00  0.00     0.175 C 
BRANCH  23  24
HETATM   24  C   UNL     1      38.691  59.827  44.384  1.00  0.00     0.022 C 
HETATM   25  C   UNL     1      40.131  59.762  44.860  1.00  0.00     0.007 C 
ENDBRANCH  23  24
ENDBRANCH  22  23
ENDBRANCH  18  22
ENDBRANCH  13  16
ENDBRANCH   9  12
ENDBRANCH   1   8
BRANCH   3  26
HETATM   26  C   UNL     1      32.806  51.348  41.021  1.00  0.00     0.112 A 
HETATM   27  S   UNL     1      31.803  50.022  41.469  1.00  0.00    -0.067 SA
HETATM   28  C   UNL     1      30.400  51.002  41.302  1.00  0.00     0.035 A 
HETATM   29  C   UNL     1      30.787  52.281  40.909  1.00  0.00     0.075 A 
HETATM   30  C   UNL     1      29.051  50.663  41.504  1.00  0.00     0.021 A 
HETATM   31  N   UNL     1      32.152  52.467  40.762  1.00  0.00    -0.239 NA
HETATM   32  C   UNL     1      29.793  53.259  40.702  1.00  0.00     0.033 A 
HETATM   33  C   UNL     1      28.447  52.933  40.898  1.00  0.00     0.002 A 
HETATM   34  C   UNL     1      28.084  51.651  41.297  1.00  0.00     0.002 A 
ENDBRANCH   3  26
BRANCH   4  35
HETATM   35  O   UNL     1      34.328  52.271  38.751  1.00  0.00    -0.359 OA
HETATM   36  H   UNL     1      33.755  51.573  38.367  1.00  0.00     0.218 HD
ENDBRANCH   4  35
TORSDOF 8
ENDMDL
MODEL 9
REMARK VINA RESULT:      -8.1      3.722      8.470
REMARK  8 active torsions:
REMARK  status: ('A' for Active; 'I' for Inactive)
REMARK    1  A    between atoms: C_2  and  C_3 
REMARK    2  A    between atoms: C_3  and  O_4 
REMARK    3  A    between atoms: O_4  and  C_5 
REMARK    4  A    between atoms: C_7  and  C_8 
REMARK       I    between atoms: C_8  and  N_9 
REMARK    5  A    between atoms: N_9  and  C_10 
REMARK    6  A    between atoms: N_11  and  C_12 
REMARK    7  A    between atoms: C_14  and  C_15 
REMARK    8  A    between atoms: C_24  and  O_25 
ROOT
HETATM    1  C   UNL     1      23.563  43.455  47.778  1.00  0.00     0.035 A 
HETATM    2  C   UNL     1      24.694  42.786  48.256  1.00  0.00     0.046 A 
HETATM    3  C   UNL     1      24.806  41.384  48.176  1.00  0.00     0.036 A 
HETATM    4  C   UNL     1      23.724  40.671  47.614  1.00  0.00     0.084 A 
HETATM    5  C   UNL     1      22.559  41.318  47.178  1.00  0.00    -0.026 A 
HETATM    6  C   UNL     1      21.425  40.548  46.564  1.00  0.00     0.051 C 
HETATM    7  C   UNL     1      22.493  42.714  47.266  1.00  0.00     0.039 A 
ENDROOT
BRANCH   1   8
HETATM    8  N   UNL     1      23.396  44.855  47.845  1.00  0.00    -0.333 N 
HETATM    9  C   UNL     1      23.369  45.692  48.906  1.00  0.00     0.179 C 
HETATM   10  S   UNL     1      22.368  47.033  48.850  1.00  0.00    -0.040 SA
HETATM   11  H   UNL     1      23.054  45.277  46.988  1.00  0.00     0.168 HD
BRANCH   9  12
HETATM   12  N   UNL     1      24.170  45.549  49.999  1.00  0.00    -0.299 N 
HETATM   13  C   UNL     1      25.548  45.702  50.117  1.00  0.00     0.257 C 
HETATM   14  O   UNL     1      26.378  45.741  49.220  1.00  0.00    -0.267 OA
HETATM   15  H   UNL     1      23.651  45.650  50.861  1.00  0.00     0.171 HD
BRANCH  13  16
HETATM   16  C   UNL     1      26.029  45.778  51.513  1.00  0.00     0.035 A 
HETATM   17  C   UNL     1      26.855  44.778  52.039  1.00  0.00     0.053 A 
HETATM   18  C   UNL     1      27.232  44.856  53.379  1.00  0.00     0.069 A 
HETATM   19  C   UNL     1      26.783  45.903  54.186  1.00  0.00     0.037 A 
HETATM   20  C   UNL     1      25.969  46.901  53.651  1.00  0.00     0.004 A 
HETATM   21  C   UNL     1      25.581  46.836  52.314  1.00  0.00     0.017 A 
BRANCH  18  22
HETATM   22  O   UNL     1      27.944  43.864  53.993  1.00  0.00    -0.351 OA
BRANCH  22  23
HETATM   23  C   UNL     1      28.973  44.372  54.849  1.00  0.00     0.175 C 
BRANCH  23  24
HETATM   24  C   UNL     1      30.069  43.312  54.914  1.00  0.00     0.022 C 
HETATM   25  C   UNL     1      31.021  43.539  56.074  1.00  0.00     0.007 C 
ENDBRANCH  23  24
ENDBRANCH  22  23
ENDBRANCH  18  22
ENDBRANCH  13  16
ENDBRANCH   9  12
ENDBRANCH   1   8
BRANCH   3  26
HETATM   26  C   UNL     1      26.005  40.656  48.654  1.00  0.00     0.112 A 
HETATM   27  S   UNL     1      26.553  40.731  50.285  1.00  0.00    -0.067 SA
HETATM   28  C   UNL     1      27.837  39.646  49.925  1.00  0.00     0.035 A 
HETATM   29  C   UNL     1      27.770  39.298  48.577  1.00  0.00     0.075 A 
HETATM   30  C   UNL     1      28.835  39.139  50.773  1.00  0.00     0.021 A 
HETATM   31  N   UNL     1      26.723  39.869  47.871  1.00  0.00    -0.239 NA
HETATM   32  C   UNL     1      28.736  38.417  48.052  1.00  0.00     0.033 A 
HETATM   33  C   UNL     1      29.736  37.907  48.887  1.00  0.00     0.002 A 
HETATM   34  C   UNL     1      29.781  38.263  50.231  1.00  0.00     0.002 A 
ENDBRANCH   3  26
BRANCH   4  35
HETATM   35  O   UNL     1      23.751  39.303  47.468  1.00  0.00    -0.359 OA
HETATM   36  H   UNL     1      24.433  38.948  48.079  1.00  0.00     0.218 HD
ENDBRANCH   4  35
TORSDOF 8
ENDMDL
MODEL 10
REMARK VINA RESULT:      -8.1      2.452     10.800
REMARK  8 active torsions:
REMARK  status: ('A' for Active; 'I' for Inactive)
REMARK    1  A    between atoms: C_2  and  C_3 
REMARK    2  A    between atoms: C_3  and  O_4 
REMARK    3  A    between atoms: O_4  and  C_5 
REMARK    4  A    between atoms: C_7  and  C_8 
REMARK       I    between atoms: C_8  and  N_9 
REMARK    5  A    between atoms: N_9  and  C_10 
REMARK    6  A    between atoms: N_11  and  C_12 
REMARK    7  A    between atoms: C_14  and  C_15 
REMARK    8  A    between atoms: C_24  and  O_25 
ROOT
HETATM    1  C   UNL     1      25.401  47.107  50.414  1.00  0.00     0.035 A 
HETATM    2  C   UNL     1      26.386  46.675  51.306  1.00  0.00     0.046 A 
HETATM    3  C   UNL     1      26.364  45.375  51.851  1.00  0.00     0.036 A 
HETATM    4  C   UNL     1      25.297  44.527  51.480  1.00  0.00     0.084 A 
HETATM    5  C   UNL     1      24.271  44.960  50.629  1.00  0.00    -0.026 A 
HETATM    6  C   UNL     1      23.153  44.040  50.228  1.00  0.00     0.051 C 
HETATM    7  C   UNL     1      24.336  46.256  50.102  1.00  0.00     0.039 A 
ENDROOT
BRANCH   1   8
HETATM    8  N   UNL     1      25.371  48.401  49.850  1.00  0.00    -0.333 N 
HETATM    9  C   UNL     1      24.578  48.928  48.891  1.00  0.00     0.179 C 
HETATM   10  S   UNL     1      25.224  50.065  47.845  1.00  0.00    -0.040 SA
HETATM   11  H   UNL     1      26.188  48.966  50.055  1.00  0.00     0.168 HD
BRANCH   9  12
HETATM   12  N   UNL     1      23.251  48.642  48.769  1.00  0.00    -0.299 N 
HETATM   13  C   UNL     1      22.141  49.404  49.122  1.00  0.00     0.257 C 
HETATM   14  O   UNL     1      22.106  50.380  49.856  1.00  0.00    -0.267 OA
HETATM   15  H   UNL     1      23.083  47.938  48.062  1.00  0.00     0.171 HD
BRANCH  13  16
HETATM   16  C   UNL     1      20.867  48.912  48.555  1.00  0.00     0.035 A 
HETATM   17  C   UNL     1      20.165  49.671  47.613  1.00  0.00     0.053 A 
HETATM   18  C   UNL     1      18.936  49.201  47.153  1.00  0.00     0.069 A 
HETATM   19  C   UNL     1      18.409  48.000  47.632  1.00  0.00     0.037 A 
HETATM   20  C   UNL     1      19.120  47.244  48.563  1.00  0.00     0.004 A 
HETATM   21  C   UNL     1      20.348  47.703  49.035  1.00  0.00     0.017 A 
BRANCH  18  22
HETATM   22  O   UNL     1      18.142  49.935  46.318  1.00  0.00    -0.351 OA
BRANCH  22  23
HETATM   23  C   UNL     1      17.796  51.212  46.867  1.00  0.00     0.175 C 
BRANCH  23  24
HETATM   24  C   UNL     1      17.569  52.160  45.693  1.00  0.00     0.022 C 
HETATM   25  C   UNL     1      17.543  51.431  44.362  1.00  0.00     0.007 C 
ENDBRANCH  23  24
ENDBRANCH  22  23
ENDBRANCH  18  22
ENDBRANCH  13  16
ENDBRANCH   9  12
ENDBRANCH   1   8
BRANCH   3  26
HETATM   26  C   UNL     1      27.411  44.887  52.780  1.00  0.00     0.112 A 
HETATM   27  S   UNL     1      28.387  43.509  52.443  1.00  0.00    -0.067 SA
HETATM   28  C   UNL     1      29.244  43.730  53.918  1.00  0.00     0.035 A 
HETATM   29  C   UNL     1      28.725  44.843  54.578  1.00  0.00     0.075 A 
HETATM   30  C   UNL     1      30.299  42.974  54.454  1.00  0.00     0.021 A 
HETATM   31  N   UNL     1      27.695  45.494  53.919  1.00  0.00    -0.239 NA
HETATM   32  C   UNL     1      29.274  45.213  55.822  1.00  0.00     0.033 A 
HETATM   33  C   UNL     1      30.324  44.466  56.367  1.00  0.00     0.002 A 
HETATM   34  C   UNL     1      30.830  43.363  55.688  1.00  0.00     0.002 A 
ENDBRANCH   3  26
BRANCH   4  35
HETATM   35  O   UNL     1      25.203  43.233  51.939  1.00  0.00    -0.359 OA
HETATM   36  H   UNL     1      24.983  43.267  52.895  1.00  0.00     0.218 HD
ENDBRANCH   4  35
TORSDOF 8
ENDMDL
