MODEL 1
REMARK VINA RESULT:      -9.2      0.000      0.000
REMARK  6 active torsions:
REMARK  status: ('A' for Active; 'I' for Inactive)
REMARK    1  A    between atoms: C_4  and  C_5 
REMARK    2  A    between atoms: C_9  and  C_10 
REMARK       I    between atoms: C_10  and  N_11 
REMARK    3  A    between atoms: N_11  and  C_12 
REMARK    4  A    between atoms: C_12  and  C_13 
REMARK    5  A    between atoms: C_13  and  N_14 
REMARK    6  A    between atoms: C_13  and  C_18 
ROOT
HETATM    1  C   UNL     1      24.340  46.867  50.453  1.00  0.00     0.092 A 
HETATM    2  N   UNL     1      25.026  47.482  51.442  1.00  0.00    -0.246 NA
HETATM    3  C   UNL     1      25.645  46.742  52.374  1.00  0.00     0.069 A 
HETATM    4  C   UNL     1      25.628  45.332  52.374  1.00  0.00     0.008 A 
HETATM    5  C   UNL     1      24.948  44.723  51.291  1.00  0.00     0.046 A 
HETATM    6  C   UNL     1      24.280  45.494  50.338  1.00  0.00     0.052 A 
HETATM    7  C   UNL     1      26.319  47.410  53.387  1.00  0.00     0.032 A 
HETATM    8  C   UNL     1      26.964  46.729  54.419  1.00  0.00     0.002 A 
HETATM    9  C   UNL     1      26.922  45.344  54.458  1.00  0.00     0.001 A 
HETATM   10  C   UNL     1      26.253  44.648  53.451  1.00  0.00     0.015 A 
ENDROOT
BRANCH   5  11
HETATM   11  C   UNL     1      24.880  43.256  51.079  1.00  0.00     0.252 C 
HETATM   12  N   UNL     1      26.011  42.633  50.604  1.00  0.00    -0.355 N 
HETATM   13  H   UNL     1      26.835  43.214  50.470  1.00  0.00     0.162 HD
HETATM   14  O   UNL     1      23.818  42.654  51.193  1.00  0.00    -0.268 OA
BRANCH  12  15
HETATM   15  C   UNL     1      26.241  41.182  50.611  1.00  0.00     0.161 C 
BRANCH  15  16
HETATM   16  C   UNL     1      27.622  40.622  51.110  1.00  0.00     0.237 C 
BRANCH  16  17
HETATM   17  N   UNL     1      28.530  40.229  49.943  1.00  0.00    -0.069 N 
HETATM   18  H   UNL     1      29.343  40.854  50.090  1.00  0.00     0.279 HD
HETATM   19  C   UNL     1      29.025  38.823  49.930  1.00  0.00     0.270 C 
HETATM   20  C   UNL     1      28.001  40.652  48.605  1.00  0.00     0.270 C 
ENDBRANCH  16  17
BRANCH  16  21
HETATM   21  C   UNL     1      28.305  41.504  52.145  1.00  0.00    -0.026 A 
HETATM   22  C   UNL     1      28.153  41.201  53.512  1.00  0.00     0.009 A 
HETATM   23  C   UNL     1      28.787  41.966  54.492  1.00  0.00     0.001 A 
HETATM   24  C   UNL     1      29.578  43.050  54.127  1.00  0.00     0.000 A 
HETATM   25  C   UNL     1      29.739  43.368  52.781  1.00  0.00     0.001 A 
HETATM   26  C   UNL     1      29.113  42.600  51.795  1.00  0.00     0.009 A 
ENDBRANCH  16  21
ENDBRANCH  15  16
ENDBRANCH  12  15
ENDBRANCH   5  11
BRANCH   1  27
HETATM   27  C   UNL     1      23.668  47.763  49.523  1.00  0.00     0.104 A 
HETATM   28  O   UNL     1      23.891  49.104  49.687  1.00  0.00    -0.313 OA
HETATM   29  C   UNL     1      23.177  49.754  48.723  1.00  0.00     0.050 A 
HETATM   30  C   UNL     1      23.262  51.227  48.710  1.00  0.00     0.076 C 
HETATM   31  C   UNL     1      22.502  48.845  47.939  1.00  0.00     0.035 A 
HETATM   32  C   UNL     1      22.814  47.565  48.457  1.00  0.00     0.042 A 
ENDBRANCH   1  27
TORSDOF 6
ENDMDL
MODEL 2
REMARK VINA RESULT:      -9.0      2.129      7.370
REMARK  6 active torsions:
REMARK  status: ('A' for Active; 'I' for Inactive)
REMARK    1  A    between atoms: C_4  and  C_5 
REMARK    2  A    between atoms: C_9  and  C_10 
REMARK       I    between atoms: C_10  and  N_11 
REMARK    3  A    between atoms: N_11  and  C_12 
REMARK    4  A    between atoms: C_12  and  C_13 
REMARK    5  A    between atoms: C_13  and  N_14 
REMARK    6  A    between atoms: C_13  and  C_18 
ROOT
HETATM    1  C   UNL     1      28.443  42.018  52.424  1.00  0.00     0.092 A 
HETATM    2  N   UNL     1      29.457  42.073  53.315  1.00  0.00    -0.246 NA
HETATM    3  C   UNL     1      29.522  43.098  54.178  1.00  0.00     0.069 A 
HETATM    4  C   UNL     1      28.568  44.135  54.216  1.00  0.00     0.008 A 
HETATM    5  C   UNL     1      27.489  44.014  53.306  1.00  0.00     0.046 A 
HETATM    6  C   UNL     1      27.438  42.963  52.389  1.00  0.00     0.052 A 
HETATM    7  C   UNL     1      30.592  43.131  55.062  1.00  0.00     0.032 A 
HETATM    8  C   UNL     1      30.765  44.173  55.974  1.00  0.00     0.002 A 
HETATM    9  C   UNL     1      29.859  45.222  55.996  1.00  0.00     0.001 A 
HETATM   10  C   UNL     1      28.774  45.212  55.119  1.00  0.00     0.015 A 
ENDROOT
BRANCH   5  11
HETATM   11  C   UNL     1      26.353  44.966  53.242  1.00  0.00     0.252 C 
HETATM   12  N   UNL     1      26.492  46.063  52.423  1.00  0.00    -0.355 N 
HETATM   13  H   UNL     1      27.351  46.127  51.881  1.00  0.00     0.162 HD
HETATM   14  O   UNL     1      25.391  44.847  53.993  1.00  0.00    -0.268 OA
BRANCH  12  15
HETATM   15  C   UNL     1      25.397  46.945  51.998  1.00  0.00     0.161 C 
BRANCH  15  16
HETATM   16  C   UNL     1      24.607  46.616  50.680  1.00  0.00     0.237 C 
BRANCH  16  17
HETATM   17  N   UNL     1      24.956  47.589  49.553  1.00  0.00    -0.069 N 
HETATM   18  H   UNL     1      25.091  46.944  48.753  1.00  0.00     0.279 HD
HETATM   19  C   UNL     1      23.904  48.576  49.177  1.00  0.00     0.270 C 
HETATM   20  C   UNL     1      26.301  48.233  49.713  1.00  0.00     0.270 C 
ENDBRANCH  16  17
BRANCH  16  21
HETATM   21  C   UNL     1      24.682  45.152  50.269  1.00  0.00    -0.026 A 
HETATM   22  C   UNL     1      23.679  44.265  50.706  1.00  0.00     0.009 A 
HETATM   23  C   UNL     1      23.692  42.922  50.327  1.00  0.00     0.001 A 
HETATM   24  C   UNL     1      24.709  42.439  49.511  1.00  0.00     0.000 A 
HETATM   25  C   UNL     1      25.712  43.298  49.070  1.00  0.00     0.001 A 
HETATM   26  C   UNL     1      25.697  44.646  49.441  1.00  0.00     0.009 A 
ENDBRANCH  16  21
ENDBRANCH  15  16
ENDBRANCH  12  15
ENDBRANCH   5  11
BRANCH   1  27
HETATM   27  C   UNL     1      28.493  40.891  51.505  1.00  0.00     0.104 A 
HETATM   28  O   UNL     1      29.272  39.827  51.874  1.00  0.00    -0.313 OA
HETATM   29  C   UNL     1      29.177  38.893  50.884  1.00  0.00     0.050 A 
HETATM   30  C   UNL     1      29.948  37.648  51.067  1.00  0.00     0.076 C 
HETATM   31  C   UNL     1      28.343  39.344  49.885  1.00  0.00     0.035 A 
HETATM   32  C   UNL     1      27.907  40.631  50.282  1.00  0.00     0.042 A 
ENDBRANCH   1  27
TORSDOF 6
ENDMDL
MODEL 3
REMARK VINA RESULT:      -8.7      2.045      7.927
REMARK  6 active torsions:
REMARK  status: ('A' for Active; 'I' for Inactive)
REMARK    1  A    between atoms: C_4  and  C_5 
REMARK    2  A    between atoms: C_9  and  C_10 
REMARK       I    between atoms: C_10  and  N_11 
REMARK    3  A    between atoms: N_11  and  C_12 
REMARK    4  A    between atoms: C_12  and  C_13 
REMARK    5  A    between atoms: C_13  and  N_14 
REMARK    6  A    between atoms: C_13  and  C_18 
ROOT
HETATM    1  C   UNL     1      28.333  41.820  52.130  1.00  0.00     0.092 A 
HETATM    2  N   UNL     1      29.328  41.976  53.030  1.00  0.00    -0.246 NA
HETATM    3  C   UNL     1      29.296  43.017  53.876  1.00  0.00     0.069 A 
HETATM    4  C   UNL     1      28.257  43.970  53.884  1.00  0.00     0.008 A 
HETATM    5  C   UNL     1      27.203  43.742  52.965  1.00  0.00     0.046 A 
HETATM    6  C   UNL     1      27.252  42.675  52.067  1.00  0.00     0.052 A 
HETATM    7  C   UNL     1      30.348  43.156  54.770  1.00  0.00     0.032 A 
HETATM    8  C   UNL     1      30.422  44.224  55.665  1.00  0.00     0.002 A 
HETATM    9  C   UNL     1      29.430  45.193  55.658  1.00  0.00     0.001 A 
HETATM   10  C   UNL     1      28.360  45.075  54.771  1.00  0.00     0.015 A 
ENDROOT
BRANCH   5  11
HETATM   11  C   UNL     1      25.991  44.593  52.872  1.00  0.00     0.252 C 
HETATM   12  N   UNL     1      26.059  45.705  52.065  1.00  0.00    -0.355 N 
HETATM   13  H   UNL     1      26.925  45.847  51.549  1.00  0.00     0.162 HD
HETATM   14  O   UNL     1      25.022  44.385  53.594  1.00  0.00    -0.268 OA
BRANCH  12  15
HETATM   15  C   UNL     1      24.905  46.492  51.612  1.00  0.00     0.161 C 
BRANCH  15  16
HETATM   16  C   UNL     1      24.532  46.509  50.085  1.00  0.00     0.237 C 
BRANCH  16  17
HETATM   17  N   UNL     1      23.371  45.562  49.775  1.00  0.00    -0.069 N 
HETATM   18  H   UNL     1      22.606  45.977  50.338  1.00  0.00     0.279 HD
HETATM   19  C   UNL     1      22.921  45.505  48.356  1.00  0.00     0.270 C 
HETATM   20  C   UNL     1      23.539  44.195  50.369  1.00  0.00     0.270 C 
ENDBRANCH  16  17
BRANCH  16  21
HETATM   21  C   UNL     1      24.350  47.907  49.512  1.00  0.00    -0.026 A 
HETATM   22  C   UNL     1      25.473  48.594  49.010  1.00  0.00     0.009 A 
HETATM   23  C   UNL     1      25.346  49.865  48.448  1.00  0.00     0.001 A 
HETATM   24  C   UNL     1      24.098  50.476  48.383  1.00  0.00     0.000 A 
HETATM   25  C   UNL     1      22.977  49.815  48.877  1.00  0.00     0.001 A 
HETATM   26  C   UNL     1      23.098  48.539  49.432  1.00  0.00     0.009 A 
ENDBRANCH  16  21
ENDBRANCH  15  16
ENDBRANCH  12  15
ENDBRANCH   5  11
BRANCH   1  27
HETATM   27  C   UNL     1      28.490  40.686  51.231  1.00  0.00     0.104 A 
HETATM   28  O   UNL     1      29.193  39.612  51.708  1.00  0.00    -0.313 OA
HETATM   29  C   UNL     1      29.220  38.673  50.719  1.00  0.00     0.050 A 
HETATM   30  C   UNL     1      29.938  37.418  51.011  1.00  0.00     0.076 C 
HETATM   31  C   UNL     1      28.536  39.130  49.614  1.00  0.00     0.035 A 
HETATM   32  C   UNL     1      28.072  40.426  49.941  1.00  0.00     0.042 A 
ENDBRANCH   1  27
TORSDOF 6
ENDMDL
MODEL 4
REMARK VINA RESULT:      -8.5      1.572      4.313
REMARK  6 active torsions:
REMARK  status: ('A' for Active; 'I' for Inactive)
REMARK    1  A    between atoms: C_4  and  C_5 
REMARK    2  A    between atoms: C_9  and  C_10 
REMARK       I    between atoms: C_10  and  N_11 
REMARK    3  A    between atoms: N_11  and  C_12 
REMARK    4  A    between atoms: C_12  and  C_13 
REMARK    5  A    between atoms: C_13  and  N_14 
REMARK    6  A    between atoms: C_13  and  C_18 
ROOT
HETATM    1  C   UNL     1      25.673  46.440  52.684  1.00  0.00     0.092 A 
HETATM    2  N   UNL     1      25.094  47.368  51.891  1.00  0.00    -0.246 NA
HETATM    3  C   UNL     1      24.491  46.982  50.756  1.00  0.00     0.069 A 
HETATM    4  C   UNL     1      24.415  45.636  50.344  1.00  0.00     0.008 A 
HETATM    5  C   UNL     1      24.983  44.686  51.230  1.00  0.00     0.046 A 
HETATM    6  C   UNL     1      25.636  45.092  52.394  1.00  0.00     0.052 A 
HETATM    7  C   UNL     1      23.929  47.966  49.956  1.00  0.00     0.032 A 
HETATM    8  C   UNL     1      23.309  47.668  48.742  1.00  0.00     0.002 A 
HETATM    9  C   UNL     1      23.263  46.354  48.301  1.00  0.00     0.001 A 
HETATM   10  C   UNL     1      23.818  45.345  49.088  1.00  0.00     0.015 A 
ENDROOT
BRANCH   5  11
HETATM   11  C   UNL     1      24.941  43.220  51.005  1.00  0.00     0.252 C 
HETATM   12  N   UNL     1      26.094  42.615  50.562  1.00  0.00    -0.355 N 
HETATM   13  H   UNL     1      26.915  43.209  50.459  1.00  0.00     0.162 HD
HETATM   14  O   UNL     1      23.883  42.604  51.079  1.00  0.00    -0.268 OA
BRANCH  12  15
HETATM   15  C   UNL     1      26.344  41.168  50.564  1.00  0.00     0.161 C 
BRANCH  15  16
HETATM   16  C   UNL     1      27.635  40.608  51.264  1.00  0.00     0.237 C 
BRANCH  16  17
HETATM   17  N   UNL     1      28.665  40.118  50.245  1.00  0.00    -0.069 N 
HETATM   18  H   UNL     1      29.470  40.739  50.445  1.00  0.00     0.279 HD
HETATM   19  C   UNL     1      29.124  38.707  50.389  1.00  0.00     0.270 C 
HETATM   20  C   UNL     1      28.309  40.452  48.827  1.00  0.00     0.270 C 
ENDBRANCH  16  17
BRANCH  16  21
HETATM   21  C   UNL     1      28.214  41.538  52.319  1.00  0.00    -0.026 A 
HETATM   22  C   UNL     1      27.410  41.926  53.408  1.00  0.00     0.009 A 
HETATM   23  C   UNL     1      27.911  42.754  54.414  1.00  0.00     0.001 A 
HETATM   24  C   UNL     1      29.222  43.214  54.348  1.00  0.00     0.000 A 
HETATM   25  C   UNL     1      30.033  42.845  53.278  1.00  0.00     0.001 A 
HETATM   26  C   UNL     1      29.537  42.010  52.273  1.00  0.00     0.009 A 
ENDBRANCH  16  21
ENDBRANCH  15  16
ENDBRANCH  12  15
ENDBRANCH   5  11
BRANCH   1  27
HETATM   27  C   UNL     1      26.340  46.971  53.864  1.00  0.00     0.104 A 
HETATM   28  O   UNL     1      27.386  46.242  54.363  1.00  0.00    -0.313 OA
HETATM   29  C   UNL     1      27.861  46.910  55.454  1.00  0.00     0.050 A 
HETATM   30  C   UNL     1      29.001  46.299  56.165  1.00  0.00     0.076 C 
HETATM   31  C   UNL     1      27.135  48.062  55.658  1.00  0.00     0.035 A 
HETATM   32  C   UNL     1      26.153  48.098  54.639  1.00  0.00     0.042 A 
ENDBRANCH   1  27
TORSDOF 6
ENDMDL
MODEL 5
REMARK VINA RESULT:      -8.2      2.432      8.436
REMARK  6 active torsions:
REMARK  status: ('A' for Active; 'I' for Inactive)
REMARK    1  A    between atoms: C_4  and  C_5 
REMARK    2  A    between atoms: C_9  and  C_10 
REMARK       I    between atoms: C_10  and  N_11 
REMARK    3  A    between atoms: N_11  and  C_12 
REMARK    4  A    between atoms: C_12  and  C_13 
REMARK    5  A    between atoms: C_13  and  N_14 
REMARK    6  A    between atoms: C_13  and  C_18 
ROOT
HETATM    1  C   UNL     1      28.296  44.085  53.667  1.00  0.00     0.092 A 
HETATM    2  N   UNL     1      28.701  42.896  53.171  1.00  0.00    -0.246 NA
HETATM    3  C   UNL     1      28.014  42.331  52.166  1.00  0.00     0.069 A 
HETATM    4  C   UNL     1      26.878  42.927  51.580  1.00  0.00     0.008 A 
HETATM    5  C   UNL     1      26.518  44.199  52.087  1.00  0.00     0.046 A 
HETATM    6  C   UNL     1      27.215  44.771  53.152  1.00  0.00     0.052 A 
HETATM    7  C   UNL     1      28.448  41.098  51.700  1.00  0.00     0.032 A 
HETATM    8  C   UNL     1      27.780  40.417  50.682  1.00  0.00     0.002 A 
HETATM    9  C   UNL     1      26.637  40.967  50.123  1.00  0.00     0.001 A 
HETATM   10  C   UNL     1      26.182  42.208  50.572  1.00  0.00     0.015 A 
ENDROOT
BRANCH   5  11
HETATM   11  C   UNL     1      25.397  45.012  51.554  1.00  0.00     0.252 C 
HETATM   12  N   UNL     1      25.707  45.994  50.641  1.00  0.00    -0.355 N 
HETATM   13  H   UNL     1      26.682  46.069  50.358  1.00  0.00     0.162 HD
HETATM   14  O   UNL     1      24.266  44.901  52.015  1.00  0.00    -0.268 OA
BRANCH  12  15
HETATM   15  C   UNL     1      24.735  46.692  49.789  1.00  0.00     0.161 C 
BRANCH  15  16
HETATM   16  C   UNL     1      24.846  48.249  49.606  1.00  0.00     0.237 C 
BRANCH  16  17
HETATM   17  N   UNL     1      26.093  48.638  48.809  1.00  0.00    -0.069 N 
HETATM   18  H   UNL     1      26.176  47.845  48.148  1.00  0.00     0.279 HD
HETATM   19  C   UNL     1      26.008  49.896  48.014  1.00  0.00     0.270 C 
HETATM   20  C   UNL     1      27.360  48.561  49.608  1.00  0.00     0.270 C 
ENDBRANCH  16  17
BRANCH  16  21
HETATM   21  C   UNL     1      23.569  48.901  49.097  1.00  0.00    -0.026 A 
HETATM   22  C   UNL     1      22.722  48.173  48.238  1.00  0.00     0.009 A 
HETATM   23  C   UNL     1      21.526  48.722  47.774  1.00  0.00     0.001 A 
HETATM   24  C   UNL     1      21.156  50.008  48.152  1.00  0.00     0.000 A 
HETATM   25  C   UNL     1      21.980  50.745  48.998  1.00  0.00     0.001 A 
HETATM   26  C   UNL     1      23.175  50.196  49.472  1.00  0.00     0.009 A 
ENDBRANCH  16  21
ENDBRANCH  15  16
ENDBRANCH  12  15
ENDBRANCH   5  11
BRANCH   1  27
HETATM   27  C   UNL     1      29.083  44.585  54.785  1.00  0.00     0.104 A 
HETATM   28  O   UNL     1      30.012  43.731  55.317  1.00  0.00    -0.313 OA
HETATM   29  C   UNL     1      30.629  44.391  56.339  1.00  0.00     0.050 A 
HETATM   30  C   UNL     1      31.677  43.653  57.071  1.00  0.00     0.076 C 
HETATM   31  C   UNL     1      30.110  45.660  56.466  1.00  0.00     0.035 A 
HETATM   32  C   UNL     1      29.112  45.783  55.471  1.00  0.00     0.042 A 
ENDBRANCH   1  27
TORSDOF 6
ENDMDL
MODEL 6
REMARK VINA RESULT:      -7.9      2.293      7.875
REMARK  6 active torsions:
REMARK  status: ('A' for Active; 'I' for Inactive)
REMARK    1  A    between atoms: C_4  and  C_5 
REMARK    2  A    between atoms: C_9  and  C_10 
REMARK       I    between atoms: C_10  and  N_11 
REMARK    3  A    between atoms: N_11  and  C_12 
REMARK    4  A    between atoms: C_12  and  C_13 
REMARK    5  A    between atoms: C_13  and  N_14 
REMARK    6  A    between atoms: C_13  and  C_18 
ROOT
HETATM    1  C   UNL     1      28.459  42.225  52.629  1.00  0.00     0.092 A 
HETATM    2  N   UNL     1      29.479  42.227  53.515  1.00  0.00    -0.246 NA
HETATM    3  C   UNL     1      29.593  43.239  54.388  1.00  0.00     0.069 A 
HETATM    4  C   UNL     1      28.684  44.316  54.442  1.00  0.00     0.008 A 
HETATM    5  C   UNL     1      27.596  44.250  53.537  1.00  0.00     0.046 A 
HETATM    6  C   UNL     1      27.496  43.212  52.610  1.00  0.00     0.052 A 
HETATM    7  C   UNL     1      30.668  43.217  55.266  1.00  0.00     0.032 A 
HETATM    8  C   UNL     1      30.890  44.241  56.188  1.00  0.00     0.002 A 
HETATM    9  C   UNL     1      30.030  45.328  56.226  1.00  0.00     0.001 A 
HETATM   10  C   UNL     1      28.941  45.373  55.355  1.00  0.00     0.015 A 
ENDROOT
BRANCH   5  11
HETATM   11  C   UNL     1      26.502  45.250  53.489  1.00  0.00     0.252 C 
HETATM   12  N   UNL     1      26.362  45.980  52.332  1.00  0.00    -0.355 N 
HETATM   13  H   UNL     1      26.994  45.755  51.566  1.00  0.00     0.162 HD
HETATM   14  O   UNL     1      25.842  45.507  54.491  1.00  0.00    -0.268 OA
BRANCH  12  15
HETATM   15  C   UNL     1      25.186  46.788  51.978  1.00  0.00     0.161 C 
BRANCH  15  16
HETATM   16  C   UNL     1      25.210  47.653  50.667  1.00  0.00     0.237 C 
BRANCH  16  17
HETATM   17  N   UNL     1      26.598  47.674  50.026  1.00  0.00    -0.069 N 
HETATM   18  H   UNL     1      27.203  47.888  50.841  1.00  0.00     0.279 HD
HETATM   19  C   UNL     1      27.072  46.396  49.424  1.00  0.00     0.270 C 
HETATM   20  C   UNL     1      26.817  48.843  49.112  1.00  0.00     0.270 C 
ENDBRANCH  16  17
BRANCH  16  21
HETATM   21  C   UNL     1      24.091  47.319  49.690  1.00  0.00    -0.026 A 
HETATM   22  C   UNL     1      23.354  48.367  49.107  1.00  0.00     0.009 A 
HETATM   23  C   UNL     1      22.340  48.106  48.183  1.00  0.00     0.001 A 
HETATM   24  C   UNL     1      22.040  46.795  47.831  1.00  0.00     0.000 A 
HETATM   25  C   UNL     1      22.755  45.744  48.399  1.00  0.00     0.001 A 
HETATM   26  C   UNL     1      23.777  46.001  49.317  1.00  0.00     0.009 A 
ENDBRANCH  16  21
ENDBRANCH  15  16
ENDBRANCH  12  15
ENDBRANCH   5  11
BRANCH   1  27
HETATM   27  C   UNL     1      28.457  41.106  51.698  1.00  0.00     0.104 A 
HETATM   28  O   UNL     1      29.286  40.057  51.991  1.00  0.00    -0.313 OA
HETATM   29  C   UNL     1      29.129  39.129  51.003  1.00  0.00     0.050 A 
HETATM   30  C   UNL     1      29.939  37.900  51.109  1.00  0.00     0.076 C 
HETATM   31  C   UNL     1      28.205  39.569  50.082  1.00  0.00     0.035 A 
HETATM   32  C   UNL     1      27.777  40.843  50.526  1.00  0.00     0.042 A 
ENDBRANCH   1  27
TORSDOF 6
ENDMDL
MODEL 7
REMARK VINA RESULT:      -7.8      1.816      3.391
REMARK  6 active torsions:
REMARK  status: ('A' for Active; 'I' for Inactive)
REMARK    1  A    between atoms: C_4  and  C_5 
REMARK    2  A    between atoms: C_9  and  C_10 
REMARK       I    between atoms: C_10  and  N_11 
REMARK    3  A    between atoms: N_11  and  C_12 
REMARK    4  A    between atoms: C_12  and  C_13 
REMARK    5  A    between atoms: C_13  and  N_14 
REMARK    6  A    between atoms: C_13  and  C_18 
ROOT
HETATM    1  C   UNL     1      25.415  46.526  51.427  1.00  0.00     0.092 A 
HETATM    2  N   UNL     1      25.620  47.356  52.472  1.00  0.00    -0.246 NA
HETATM    3  C   UNL     1      26.415  46.965  53.480  1.00  0.00     0.069 A 
HETATM    4  C   UNL     1      27.071  45.717  53.503  1.00  0.00     0.008 A 
HETATM    5  C   UNL     1      26.878  44.897  52.363  1.00  0.00     0.046 A 
HETATM    6  C   UNL     1      26.027  45.293  51.331  1.00  0.00     0.052 A 
HETATM    7  C   UNL     1      26.582  47.836  54.547  1.00  0.00     0.032 A 
HETATM    8  C   UNL     1      27.362  47.506  55.655  1.00  0.00     0.002 A 
HETATM    9  C   UNL     1      27.980  46.266  55.714  1.00  0.00     0.001 A 
HETATM   10  C   UNL     1      27.830  45.373  54.653  1.00  0.00     0.015 A 
ENDROOT
BRANCH   5  11
HETATM   11  C   UNL     1      27.537  43.582  52.172  1.00  0.00     0.252 C 
HETATM   12  N   UNL     1      26.729  42.469  52.135  1.00  0.00    -0.355 N 
HETATM   13  H   UNL     1      25.725  42.626  52.198  1.00  0.00     0.162 HD
HETATM   14  O   UNL     1      28.759  43.485  52.186  1.00  0.00    -0.268 OA
BRANCH  12  15
HETATM   15  C   UNL     1      27.144  41.140  51.666  1.00  0.00     0.161 C 
BRANCH  15  16
HETATM   16  C   UNL     1      26.420  40.497  50.428  1.00  0.00     0.237 C 
BRANCH  16  17
HETATM   17  N   UNL     1      25.770  41.557  49.538  1.00  0.00    -0.069 N 
HETATM   18  H   UNL     1      25.572  42.312  50.220  1.00  0.00     0.279 HD
HETATM   19  C   UNL     1      26.620  42.126  48.454  1.00  0.00     0.270 C 
HETATM   20  C   UNL     1      24.409  41.168  49.042  1.00  0.00     0.270 C 
ENDBRANCH  16  17
BRANCH  16  21
HETATM   21  C   UNL     1      27.280  39.500  49.664  1.00  0.00    -0.026 A 
HETATM   22  C   UNL     1      26.652  38.488  48.912  1.00  0.00     0.009 A 
HETATM   23  C   UNL     1      27.402  37.572  48.172  1.00  0.00     0.001 A 
HETATM   24  C   UNL     1      28.791  37.647  48.174  1.00  0.00     0.000 A 
HETATM   25  C   UNL     1      29.431  38.638  48.913  1.00  0.00     0.001 A 
HETATM   26  C   UNL     1      28.683  39.562  49.649  1.00  0.00     0.009 A 
ENDBRANCH  16  21
ENDBRANCH  15  16
ENDBRANCH  12  15
ENDBRANCH   5  11
BRANCH   1  27
HETATM   27  C   UNL     1      24.499  47.029  50.413  1.00  0.00     0.104 A 
HETATM   28  O   UNL     1      24.389  48.389  50.300  1.00  0.00    -0.313 OA
HETATM   29  C   UNL     1      23.492  48.642  49.304  1.00  0.00     0.050 A 
HETATM   30  C   UNL     1      23.208  50.059  49.007  1.00  0.00     0.076 C 
HETATM   31  C   UNL     1      23.027  47.459  48.774  1.00  0.00     0.035 A 
HETATM   32  C   UNL     1      23.671  46.422  49.491  1.00  0.00     0.042 A 
ENDBRANCH   1  27
TORSDOF 6
ENDMDL
MODEL 8
REMARK VINA RESULT:      -7.7      2.299      8.326
REMARK  6 active torsions:
REMARK  status: ('A' for Active; 'I' for Inactive)
REMARK    1  A    between atoms: C_4  and  C_5 
REMARK    2  A    between atoms: C_9  and  C_10 
REMARK       I    between atoms: C_10  and  N_11 
REMARK    3  A    between atoms: N_11  and  C_12 
REMARK    4  A    between atoms: C_12  and  C_13 
REMARK    5  A    between atoms: C_13  and  N_14 
REMARK    6  A    between atoms: C_13  and  C_18 
ROOT
HETATM    1  C   UNL     1      28.498  43.496  53.075  1.00  0.00     0.092 A 
HETATM    2  N   UNL     1      28.353  42.206  52.702  1.00  0.00    -0.246 NA
HETATM    3  C   UNL     1      27.534  41.901  51.684  1.00  0.00     0.069 A 
HETATM    4  C   UNL     1      26.811  42.872  50.960  1.00  0.00     0.008 A 
HETATM    5  C   UNL     1      27.033  44.218  51.342  1.00  0.00     0.046 A 
HETATM    6  C   UNL     1      27.862  44.531  52.420  1.00  0.00     0.052 A 
HETATM    7  C   UNL     1      27.393  40.562  51.347  1.00  0.00     0.032 A 
HETATM    8  C   UNL     1      26.540  40.144  50.326  1.00  0.00     0.002 A 
HETATM    9  C   UNL     1      25.789  41.080  49.632  1.00  0.00     0.001 A 
HETATM   10  C   UNL     1      25.915  42.433  49.950  1.00  0.00     0.015 A 
ENDROOT
BRANCH   5  11
HETATM   11  C   UNL     1      26.418  45.381  50.657  1.00  0.00     0.252 C 
HETATM   12  N   UNL     1      25.192  45.808  51.111  1.00  0.00    -0.355 N 
HETATM   13  H   UNL     1      24.805  45.322  51.918  1.00  0.00     0.162 HD
HETATM   14  O   UNL     1      26.923  45.851  49.643  1.00  0.00    -0.268 OA
BRANCH  12  15
HETATM   15  C   UNL     1      24.566  47.094  50.775  1.00  0.00     0.161 C 
BRANCH  15  16
HETATM   16  C   UNL     1      23.891  47.280  49.368  1.00  0.00     0.237 C 
BRANCH  16  17
HETATM   17  N   UNL     1      22.818  46.220  49.109  1.00  0.00    -0.069 N 
HETATM   18  H   UNL     1      22.526  45.977  50.074  1.00  0.00     0.279 HD
HETATM   19  C   UNL     1      21.610  46.667  48.360  1.00  0.00     0.270 C 
HETATM   20  C   UNL     1      23.367  44.931  48.575  1.00  0.00     0.270 C 
ENDBRANCH  16  17
BRANCH  16  21
HETATM   21  C   UNL     1      23.424  48.702  49.094  1.00  0.00    -0.026 A 
HETATM   22  C   UNL     1      24.100  49.472  48.128  1.00  0.00     0.009 A 
HETATM   23  C   UNL     1      23.685  50.770  47.824  1.00  0.00     0.001 A 
HETATM   24  C   UNL     1      22.594  51.324  48.483  1.00  0.00     0.000 A 
HETATM   25  C   UNL     1      21.914  50.581  49.444  1.00  0.00     0.001 A 
HETATM   26  C   UNL     1      22.320  49.278  49.745  1.00  0.00     0.009 A 
ENDBRANCH  16  21
ENDBRANCH  15  16
ENDBRANCH  12  15
ENDBRANCH   5  11
BRANCH   1  27
HETATM   27  C   UNL     1      29.373  43.711  54.219  1.00  0.00     0.104 A 
HETATM   28  O   UNL     1      29.090  44.784  55.020  1.00  0.00    -0.313 OA
HETATM   29  C   UNL     1      30.019  44.800  56.019  1.00  0.00     0.050 A 
HETATM   30  C   UNL     1      29.912  45.887  57.011  1.00  0.00     0.076 C 
HETATM   31  C   UNL     1      30.893  43.746  55.870  1.00  0.00     0.035 A 
HETATM   32  C   UNL     1      30.481  43.049  54.709  1.00  0.00     0.042 A 
ENDBRANCH   1  27
TORSDOF 6
ENDMDL
MODEL 9
REMARK VINA RESULT:      -7.7      2.760      7.953
REMARK  6 active torsions:
REMARK  status: ('A' for Active; 'I' for Inactive)
REMARK    1  A    between atoms: C_4  and  C_5 
REMARK    2  A    between atoms: C_9  and  C_10 
REMARK       I    between atoms: C_10  and  N_11 
REMARK    3  A    between atoms: N_11  and  C_12 
REMARK    4  A    between atoms: C_12  and  C_13 
REMARK    5  A    between atoms: C_13  and  N_14 
REMARK    6  A    between atoms: C_13  and  C_18 
ROOT
HETATM    1  C   UNL     1      28.946  43.645  53.551  1.00  0.00     0.092 A 
HETATM    2  N   UNL     1      29.185  42.345  53.273  1.00  0.00    -0.246 NA
HETATM    3  C   UNL     1      28.636  41.793  52.179  1.00  0.00     0.069 A 
HETATM    4  C   UNL     1      27.819  42.510  51.282  1.00  0.00     0.008 A 
HETATM    5  C   UNL     1      27.638  43.884  51.576  1.00  0.00     0.046 A 
HETATM    6  C   UNL     1      28.185  44.450  52.729  1.00  0.00     0.052 A 
HETATM    7  C   UNL     1      28.885  40.449  51.940  1.00  0.00     0.032 A 
HETATM    8  C   UNL     1      28.333  39.778  50.849  1.00  0.00     0.002 A 
HETATM    9  C   UNL     1      27.492  40.457  49.980  1.00  0.00     0.001 A 
HETATM   10  C   UNL     1      27.228  41.809  50.197  1.00  0.00     0.015 A 
ENDROOT
BRANCH   5  11
HETATM   11  C   UNL     1      26.870  44.818  50.716  1.00  0.00     0.252 C 
HETATM   12  N   UNL     1      25.660  45.267  51.192  1.00  0.00    -0.355 N 
HETATM   13  H   UNL     1      25.391  44.962  52.125  1.00  0.00     0.162 HD
HETATM   14  O   UNL     1      27.240  45.065  49.572  1.00  0.00    -0.268 OA
BRANCH  12  15
HETATM   15  C   UNL     1      24.904  46.400  50.642  1.00  0.00     0.161 C 
BRANCH  15  16
HETATM   16  C   UNL     1      23.556  46.133  49.881  1.00  0.00     0.237 C 
BRANCH  16  17
HETATM   17  N   UNL     1      23.260  47.224  48.851  1.00  0.00    -0.069 N 
HETATM   18  H   UNL     1      23.648  46.807  47.986  1.00  0.00     0.279 HD
HETATM   19  C   UNL     1      21.823  47.536  48.608  1.00  0.00     0.270 C 
HETATM   20  C   UNL     1      24.081  48.464  49.041  1.00  0.00     0.270 C 
ENDBRANCH  16  17
BRANCH  16  21
HETATM   21  C   UNL     1      23.433  44.720  49.327  1.00  0.00    -0.026 A 
HETATM   22  C   UNL     1      23.825  44.468  47.998  1.00  0.00     0.009 A 
HETATM   23  C   UNL     1      23.757  43.182  47.461  1.00  0.00     0.001 A 
HETATM   24  C   UNL     1      23.291  42.126  48.237  1.00  0.00     0.000 A 
HETATM   25  C   UNL     1      22.895  42.355  49.552  1.00  0.00     0.001 A 
HETATM   26  C   UNL     1      22.969  43.640  50.097  1.00  0.00     0.009 A 
ENDBRANCH  16  21
ENDBRANCH  15  16
ENDBRANCH  12  15
ENDBRANCH   5  11
BRANCH   1  27
HETATM   27  C   UNL     1      29.550  44.130  54.784  1.00  0.00     0.104 A 
HETATM   28  O   UNL     1      30.515  43.341  55.351  1.00  0.00    -0.313 OA
HETATM   29  C   UNL     1      30.942  43.974  56.482  1.00  0.00     0.050 A 
HETATM   30  C   UNL     1      31.990  43.295  57.269  1.00  0.00     0.076 C 
HETATM   31  C   UNL     1      30.266  45.162  56.644  1.00  0.00     0.035 A 
HETATM   32  C   UNL     1      29.367  45.260  55.555  1.00  0.00     0.042 A 
ENDBRANCH   1  27
TORSDOF 6
ENDMDL
MODEL 10
REMARK VINA RESULT:      -7.6      1.643      3.460
REMARK  6 active torsions:
REMARK  status: ('A' for Active; 'I' for Inactive)
REMARK    1  A    between atoms: C_4  and  C_5 
REMARK    2  A    between atoms: C_9  and  C_10 
REMARK       I    between atoms: C_10  and  N_11 
REMARK    3  A    between atoms: N_11  and  C_12 
REMARK    4  A    between atoms: C_12  and  C_13 
REMARK    5  A    between atoms: C_13  and  N_14 
REMARK    6  A    between atoms: C_13  and  C_18 
ROOT
HETATM    1  C   UNL     1      25.115  46.746  51.053  1.00  0.00     0.092 A 
HETATM    2  N   UNL     1      25.366  47.502  52.144  1.00  0.00    -0.246 NA
HETATM    3  C   UNL     1      26.123  47.002  53.133  1.00  0.00     0.069 A 
HETATM    4  C   UNL     1      26.692  45.713  53.090  1.00  0.00     0.008 A 
HETATM    5  C   UNL     1      26.454  44.972  51.906  1.00  0.00     0.046 A 
HETATM    6  C   UNL     1      25.642  45.482  50.892  1.00  0.00     0.052 A 
HETATM    7  C   UNL     1      26.339  47.800  54.248  1.00  0.00     0.032 A 
HETATM    8  C   UNL     1      27.084  47.356  55.340  1.00  0.00     0.002 A 
HETATM    9  C   UNL     1      27.615  46.075  55.334  1.00  0.00     0.001 A 
HETATM   10  C   UNL     1      27.415  45.254  54.224  1.00  0.00     0.015 A 
ENDROOT
BRANCH   5  11
HETATM   11  C   UNL     1      27.024  43.628  51.645  1.00  0.00     0.252 C 
HETATM   12  N   UNL     1      26.141  42.582  51.510  1.00  0.00    -0.355 N 
HETATM   13  H   UNL     1      25.149  42.807  51.555  1.00  0.00     0.162 HD
HETATM   14  O   UNL     1      28.235  43.440  51.688  1.00  0.00    -0.268 OA
BRANCH  12  15
HETATM   15  C   UNL     1      26.474  41.258  50.966  1.00  0.00     0.161 C 
BRANCH  15  16
HETATM   16  C   UNL     1      27.681  41.115  49.970  1.00  0.00     0.237 C 
BRANCH  16  17
HETATM   17  N   UNL     1      28.772  40.201  50.529  1.00  0.00    -0.069 N 
HETATM   18  H   UNL     1      29.618  40.569  50.056  1.00  0.00     0.279 HD
HETATM   19  C   UNL     1      29.003  40.263  52.000  1.00  0.00     0.270 C 
HETATM   20  C   UNL     1      28.681  38.788  50.033  1.00  0.00     0.270 C 
ENDBRANCH  16  17
BRANCH  16  21
HETATM   21  C   UNL     1      27.265  40.770  48.547  1.00  0.00    -0.026 A 
HETATM   22  C   UNL     1      28.194  40.939  47.501  1.00  0.00     0.009 A 
HETATM   23  C   UNL     1      27.864  40.606  46.186  1.00  0.00     0.001 A 
HETATM   24  C   UNL     1      26.601  40.106  45.891  1.00  0.00     0.000 A 
HETATM   25  C   UNL     1      25.667  39.936  46.909  1.00  0.00     0.001 A 
HETATM   26  C   UNL     1      25.996  40.259  48.228  1.00  0.00     0.009 A 
ENDBRANCH  16  21
ENDBRANCH  15  16
ENDBRANCH  12  15
ENDBRANCH   5  11
BRANCH   1  27
HETATM   27  C   UNL     1      24.245  47.366  50.063  1.00  0.00     0.104 A 
HETATM   28  O   UNL     1      24.286  48.732  49.975  1.00  0.00    -0.313 OA
HETATM   29  C   UNL     1      23.407  49.101  48.999  1.00  0.00     0.050 A 
HETATM   30  C   UNL     1      23.278  50.546  48.729  1.00  0.00     0.076 C 
HETATM   31  C   UNL     1      22.806  47.987  48.457  1.00  0.00     0.035 A 
HETATM   32  C   UNL     1      23.341  46.872  49.145  1.00  0.00     0.042 A 
ENDBRANCH   1  27
TORSDOF 6
ENDMDL
