MODEL 1
REMARK VINA RESULT:     -10.3      0.000      0.000
REMARK  9 active torsions:
REMARK  status: ('A' for Active; 'I' for Inactive)
REMARK       I    between atoms: N_2  and  C_3 
REMARK    1  A    between atoms: N_2  and  C_28 
REMARK    2  A    between atoms: C_3  and  C_4 
REMARK    3  A    between atoms: C_6  and  N_7 
REMARK       I    between atoms: N_7  and  C_8 
REMARK    4  A    between atoms: C_8  and  C_9 
REMARK    5  A    between atoms: C_9  and  O_10 
REMARK    6  A    between atoms: N_17  and  C_18 
REMARK    7  A    between atoms: C_18  and  C_19 
REMARK    8  A    between atoms: C_19  and  C_20 
REMARK    9  A    between atoms: C_28  and  C_29 
ROOT
HETATM    1  C   UNL     1      26.155  44.134  49.913  1.00  0.00     0.036 C 
HETATM    2  C   UNL     1      24.771  44.160  49.724  1.00  0.00     0.049 C 
HETATM    3  C   UNL     1      24.056  45.366  49.616  1.00  0.00     0.065 C 
HETATM    4  C   UNL     1      24.822  46.550  49.577  1.00  0.00     0.091 C 
HETATM    5  C   UNL     1      26.199  46.534  49.840  1.00  0.00     0.088 C 
HETATM    6  N   UNL     1      26.723  47.797  49.883  1.00  0.00    -0.242 NA
HETATM    7  C   UNL     1      25.727  48.586  49.574  1.00  0.00     0.210 C 
HETATM    8  N   UNL     1      24.578  47.884  49.293  1.00  0.00    -0.337 N 
HETATM    9  C   UNL     1      26.880  45.322  50.005  1.00  0.00     0.051 C 
ENDROOT
BRANCH   1  10
HETATM   10  C   UNL     1      26.903  42.855  49.879  1.00  0.00     0.253 C 
HETATM   11  N   UNL     1      27.108  42.127  51.054  1.00  0.00    -0.350 N 
HETATM   12  C   UNL     1      27.657  40.784  50.909  1.00  0.00     0.153 C 
HETATM   13  O   UNL     1      27.271  42.465  48.770  1.00  0.00    -0.267 OA
BRANCH  11  14
HETATM   14  C   UNL     1      27.198  42.739  52.396  1.00  0.00     0.158 C 
BRANCH  14  15
HETATM   15  C   UNL     1      28.503  43.514  52.668  1.00  0.00     0.151 A 
HETATM   16  O   UNL     1      28.223  44.640  53.550  1.00  0.00    -0.343 OA
HETATM   17  C   UNL     1      29.130  44.551  54.563  1.00  0.00     0.075 A 
HETATM   18  C   UNL     1      29.931  43.427  54.507  1.00  0.00    -0.022 A 
HETATM   19  C   UNL     1      29.244  45.481  55.576  1.00  0.00     0.037 A 
HETATM   20  C   UNL     1      29.565  42.611  53.329  1.00  0.00     0.075 A 
HETATM   21  C   UNL     1      30.884  43.189  55.483  1.00  0.00     0.010 A 
HETATM   22  C   UNL     1      31.018  44.118  56.520  1.00  0.00     0.001 A 
HETATM   23  C   UNL     1      30.203  45.260  56.567  1.00  0.00     0.003 A 
ENDBRANCH  14  15
ENDBRANCH  11  14
ENDBRANCH   1  10
BRANCH   3  24
HETATM   24  N   UNL     1      22.651  45.398  49.584  1.00  0.00    -0.323 N 
HETATM   25  C   UNL     1      21.846  45.360  48.454  1.00  0.00     0.246 C 
HETATM   26  O   UNL     1      22.224  45.353  47.284  1.00  0.00    -0.271 OA
HETATM   27  H   UNL     1      22.145  45.220  50.441  1.00  0.00     0.169 HD
BRANCH  25  28
HETATM   28  C   UNL     1      20.354  45.260  48.791  1.00  0.00     0.270 C 
BRANCH  28  29
HETATM   29  O   UNL     1      19.581  46.267  48.140  1.00  0.00    -0.387 OA
HETATM   30  C   UNL     1      19.673  47.513  48.824  1.00  0.00     0.202 C 
ENDBRANCH  28  29
ENDBRANCH  25  28
ENDBRANCH   3  24
BRANCH   8  31
HETATM   31  C   UNL     1      23.548  48.447  48.441  1.00  0.00     0.134 C 
BRANCH  31  32
HETATM   32  C   UNL     1      23.374  49.967  48.398  1.00  0.00     0.058 C 
BRANCH  32  33
HETATM   33  C   UNL     1      22.009  50.525  48.693  1.00  0.00    -0.057 A 
HETATM   34  C   UNL     1      21.079  50.761  47.674  1.00  0.00     0.007 A 
HETATM   35  C   UNL     1      19.811  51.261  47.977  1.00  0.00     0.001 A 
HETATM   36  C   UNL     1      19.454  51.509  49.301  1.00  0.00     0.000 A 
HETATM   37  C   UNL     1      20.363  51.260  50.325  1.00  0.00     0.001 A 
HETATM   38  C   UNL     1      21.635  50.773  50.023  1.00  0.00     0.007 A 
ENDBRANCH  32  33
ENDBRANCH  31  32
ENDBRANCH   8  31
TORSDOF 9
ENDMDL
MODEL 2
REMARK VINA RESULT:      -9.8      0.934      1.211
REMARK  9 active torsions:
REMARK  status: ('A' for Active; 'I' for Inactive)
REMARK       I    between atoms: N_2  and  C_3 
REMARK    1  A    between atoms: N_2  and  C_28 
REMARK    2  A    between atoms: C_3  and  C_4 
REMARK    3  A    between atoms: C_6  and  N_7 
REMARK       I    between atoms: N_7  and  C_8 
REMARK    4  A    between atoms: C_8  and  C_9 
REMARK    5  A    between atoms: C_9  and  O_10 
REMARK    6  A    between atoms: N_17  and  C_18 
REMARK    7  A    between atoms: C_18  and  C_19 
REMARK    8  A    between atoms: C_19  and  C_20 
REMARK    9  A    between atoms: C_28  and  C_29 
ROOT
HETATM    1  C   UNL     1      25.571  44.292  49.689  1.00  0.00     0.036 C 
HETATM    2  C   UNL     1      24.191  44.268  49.475  1.00  0.00     0.049 C 
HETATM    3  C   UNL     1      23.433  45.446  49.361  1.00  0.00     0.065 C 
HETATM    4  C   UNL     1      24.155  46.659  49.343  1.00  0.00     0.091 C 
HETATM    5  C   UNL     1      25.527  46.692  49.630  1.00  0.00     0.088 C 
HETATM    6  N   UNL     1      26.002  47.974  49.689  1.00  0.00    -0.242 NA
HETATM    7  C   UNL     1      24.983  48.727  49.367  1.00  0.00     0.210 C 
HETATM    8  N   UNL     1      23.866  47.984  49.062  1.00  0.00    -0.337 N 
HETATM    9  C   UNL     1      26.250  45.505  49.801  1.00  0.00     0.051 C 
ENDROOT
BRANCH   1  10
HETATM   10  C   UNL     1      26.368  43.042  49.662  1.00  0.00     0.253 C 
HETATM   11  N   UNL     1      26.628  42.346  50.845  1.00  0.00    -0.350 N 
HETATM   12  C   UNL     1      27.224  41.022  50.713  1.00  0.00     0.153 C 
HETATM   13  O   UNL     1      26.725  42.644  48.553  1.00  0.00    -0.267 OA
BRANCH  11  14
HETATM   14  C   UNL     1      26.725  42.988  52.173  1.00  0.00     0.158 C 
BRANCH  14  15
HETATM   15  C   UNL     1      28.031  43.768  52.421  1.00  0.00     0.151 A 
HETATM   16  O   UNL     1      27.788  44.821  53.399  1.00  0.00    -0.343 OA
HETATM   17  C   UNL     1      28.757  44.678  54.345  1.00  0.00     0.075 A 
HETATM   18  C   UNL     1      29.572  43.579  54.158  1.00  0.00    -0.022 A 
HETATM   19  C   UNL     1      28.919  45.535  55.415  1.00  0.00     0.037 A 
HETATM   20  C   UNL     1      29.147  42.842  52.948  1.00  0.00     0.075 A 
HETATM   21  C   UNL     1      30.588  43.291  55.054  1.00  0.00     0.010 A 
HETATM   22  C   UNL     1      30.771  44.146  56.146  1.00  0.00     0.001 A 
HETATM   23  C   UNL     1      29.942  45.264  56.326  1.00  0.00     0.003 A 
ENDBRANCH  14  15
ENDBRANCH  11  14
ENDBRANCH   1  10
BRANCH   3  24
HETATM   24  N   UNL     1      22.028  45.426  49.304  1.00  0.00    -0.323 N 
HETATM   25  C   UNL     1      21.245  45.434  48.159  1.00  0.00     0.246 C 
HETATM   26  O   UNL     1      21.642  45.521  46.999  1.00  0.00    -0.271 OA
HETATM   27  H   UNL     1      21.517  45.171  50.138  1.00  0.00     0.169 HD
BRANCH  25  28
HETATM   28  C   UNL     1      19.753  45.253  48.460  1.00  0.00     0.270 C 
BRANCH  28  29
HETATM   29  O   UNL     1      19.184  44.156  47.745  1.00  0.00    -0.387 OA
HETATM   30  C   UNL     1      18.382  44.608  46.659  1.00  0.00     0.202 C 
ENDBRANCH  28  29
ENDBRANCH  25  28
ENDBRANCH   3  24
BRANCH   8  31
HETATM   31  C   UNL     1      22.831  48.513  48.194  1.00  0.00     0.134 C 
BRANCH  31  32
HETATM   32  C   UNL     1      22.529  50.013  48.234  1.00  0.00     0.058 C 
BRANCH  32  33
HETATM   33  C   UNL     1      21.214  50.449  48.816  1.00  0.00    -0.057 A 
HETATM   34  C   UNL     1      20.612  49.750  49.869  1.00  0.00     0.007 A 
HETATM   35  C   UNL     1      19.399  50.187  50.406  1.00  0.00     0.001 A 
HETATM   36  C   UNL     1      18.790  51.339  49.911  1.00  0.00     0.000 A 
HETATM   37  C   UNL     1      19.388  52.054  48.878  1.00  0.00     0.001 A 
HETATM   38  C   UNL     1      20.593  51.611  48.332  1.00  0.00     0.007 A 
ENDBRANCH  32  33
ENDBRANCH  31  32
ENDBRANCH   8  31
TORSDOF 9
ENDMDL
MODEL 3
REMARK VINA RESULT:      -9.7      2.029      3.391
REMARK  9 active torsions:
REMARK  status: ('A' for Active; 'I' for Inactive)
REMARK       I    between atoms: N_2  and  C_3 
REMARK    1  A    between atoms: N_2  and  C_28 
REMARK    2  A    between atoms: C_3  and  C_4 
REMARK    3  A    between atoms: C_6  and  N_7 
REMARK       I    between atoms: N_7  and  C_8 
REMARK    4  A    between atoms: C_8  and  C_9 
REMARK    5  A    between atoms: C_9  and  O_10 
REMARK    6  A    between atoms: N_17  and  C_18 
REMARK    7  A    between atoms: C_18  and  C_19 
REMARK    8  A    between atoms: C_19  and  C_20 
REMARK    9  A    between atoms: C_28  and  C_29 
ROOT
HETATM    1  C   UNL     1      26.706  42.987  50.543  1.00  0.00     0.036 C 
HETATM    2  C   UNL     1      27.137  44.293  50.302  1.00  0.00     0.049 C 
HETATM    3  C   UNL     1      26.293  45.265  49.736  1.00  0.00     0.065 C 
HETATM    4  C   UNL     1      24.946  44.892  49.543  1.00  0.00     0.091 C 
HETATM    5  C   UNL     1      24.528  43.564  49.713  1.00  0.00     0.088 C 
HETATM    6  N   UNL     1      23.220  43.394  49.347  1.00  0.00    -0.242 NA
HETATM    7  C   UNL     1      22.798  44.591  49.036  1.00  0.00     0.210 C 
HETATM    8  N   UNL     1      23.770  45.547  49.219  1.00  0.00    -0.337 N 
HETATM    9  C   UNL     1      25.406  42.599  50.220  1.00  0.00     0.051 C 
ENDROOT
BRANCH   1  10
HETATM   10  C   UNL     1      27.566  42.023  51.270  1.00  0.00     0.253 C 
HETATM   11  N   UNL     1      27.662  42.077  52.663  1.00  0.00    -0.350 N 
HETATM   12  C   UNL     1      28.347  40.969  53.320  1.00  0.00     0.153 C 
HETATM   13  O   UNL     1      28.127  41.166  50.588  1.00  0.00    -0.267 OA
BRANCH  11  14
HETATM   14  C   UNL     1      27.496  43.315  53.453  1.00  0.00     0.158 C 
BRANCH  14  15
HETATM   15  C   UNL     1      28.807  44.063  53.767  1.00  0.00     0.151 A 
HETATM   16  O   UNL     1      28.549  45.098  54.760  1.00  0.00    -0.343 OA
HETATM   17  C   UNL     1      29.480  44.913  55.737  1.00  0.00     0.075 A 
HETATM   18  C   UNL     1      30.279  43.802  55.554  1.00  0.00    -0.022 A 
HETATM   19  C   UNL     1      29.619  45.742  56.832  1.00  0.00     0.037 A 
HETATM   20  C   UNL     1      29.885  43.102  54.312  1.00  0.00     0.075 A 
HETATM   21  C   UNL     1      31.256  43.473  56.480  1.00  0.00     0.010 A 
HETATM   22  C   UNL     1      31.415  44.298  57.598  1.00  0.00     0.001 A 
HETATM   23  C   UNL     1      30.602  45.429  57.774  1.00  0.00     0.003 A 
ENDBRANCH  14  15
ENDBRANCH  11  14
ENDBRANCH   1  10
BRANCH   3  24
HETATM   24  N   UNL     1      26.769  46.531  49.350  1.00  0.00    -0.323 N 
HETATM   25  C   UNL     1      26.717  47.699  50.096  1.00  0.00     0.246 C 
HETATM   26  O   UNL     1      26.192  47.843  51.199  1.00  0.00    -0.271 OA
HETATM   27  H   UNL     1      27.395  46.588  48.559  1.00  0.00     0.169 HD
BRANCH  25  28
HETATM   28  C   UNL     1      27.463  48.861  49.431  1.00  0.00     0.270 C 
BRANCH  28  29
HETATM   29  O   UNL     1      27.010  49.106  48.100  1.00  0.00    -0.387 OA
HETATM   30  C   UNL     1      25.868  49.958  48.091  1.00  0.00     0.202 C 
ENDBRANCH  28  29
ENDBRANCH  25  28
ENDBRANCH   3  24
BRANCH   8  31
HETATM   31  C   UNL     1      23.417  46.934  49.461  1.00  0.00     0.134 C 
BRANCH  31  32
HETATM   32  C   UNL     1      22.902  47.779  48.294  1.00  0.00     0.058 C 
BRANCH  32  33
HETATM   33  C   UNL     1      21.893  48.852  48.598  1.00  0.00    -0.057 A 
HETATM   34  C   UNL     1      20.707  48.568  49.284  1.00  0.00     0.007 A 
HETATM   35  C   UNL     1      19.796  49.587  49.572  1.00  0.00     0.001 A 
HETATM   36  C   UNL     1      20.072  50.900  49.196  1.00  0.00     0.000 A 
HETATM   37  C   UNL     1      21.257  51.198  48.530  1.00  0.00     0.001 A 
HETATM   38  C   UNL     1      22.162  50.180  48.230  1.00  0.00     0.007 A 
ENDBRANCH  32  33
ENDBRANCH  31  32
ENDBRANCH   8  31
TORSDOF 9
ENDMDL
MODEL 4
REMARK VINA RESULT:      -9.5      1.902      9.684
REMARK  9 active torsions:
REMARK  status: ('A' for Active; 'I' for Inactive)
REMARK       I    between atoms: N_2  and  C_3 
REMARK    1  A    between atoms: N_2  and  C_28 
REMARK    2  A    between atoms: C_3  and  C_4 
REMARK    3  A    between atoms: C_6  and  N_7 
REMARK       I    between atoms: N_7  and  C_8 
REMARK    4  A    between atoms: C_8  and  C_9 
REMARK    5  A    between atoms: C_9  and  O_10 
REMARK    6  A    between atoms: N_17  and  C_18 
REMARK    7  A    between atoms: C_18  and  C_19 
REMARK    8  A    between atoms: C_19  and  C_20 
REMARK    9  A    between atoms: C_28  and  C_29 
ROOT
HETATM    1  C   UNL     1      22.757  46.182  48.133  1.00  0.00     0.036 C 
HETATM    2  C   UNL     1      23.101  44.866  48.450  1.00  0.00     0.049 C 
HETATM    3  C   UNL     1      23.996  44.559  49.490  1.00  0.00     0.065 C 
HETATM    4  C   UNL     1      24.432  45.641  50.284  1.00  0.00     0.091 C 
HETATM    5  C   UNL     1      24.150  46.967  49.924  1.00  0.00     0.088 C 
HETATM    6  N   UNL     1      24.774  47.860  50.752  1.00  0.00    -0.242 NA
HETATM    7  C   UNL     1      25.365  47.126  51.657  1.00  0.00     0.210 C 
HETATM    8  N   UNL     1      25.121  45.785  51.477  1.00  0.00    -0.337 N 
HETATM    9  C   UNL     1      23.303  47.249  48.846  1.00  0.00     0.051 C 
ENDROOT
BRANCH   1  10
HETATM   10  C   UNL     1      21.703  46.473  47.131  1.00  0.00     0.253 C 
HETATM   11  N   UNL     1      20.485  47.028  47.531  1.00  0.00    -0.350 N 
HETATM   12  C   UNL     1      19.591  47.486  46.474  1.00  0.00     0.153 C 
HETATM   13  O   UNL     1      21.990  46.250  45.955  1.00  0.00    -0.267 OA
BRANCH  11  14
HETATM   14  C   UNL     1      19.882  46.816  48.864  1.00  0.00     0.158 C 
BRANCH  14  15
HETATM   15  C   UNL     1      19.720  48.093  49.711  1.00  0.00     0.151 A 
HETATM   16  O   UNL     1      20.545  49.156  49.149  1.00  0.00    -0.343 OA
HETATM   17  C   UNL     1      19.720  50.231  49.011  1.00  0.00     0.075 A 
HETATM   18  C   UNL     1      18.401  49.976  49.331  1.00  0.00    -0.022 A 
HETATM   19  C   UNL     1      20.140  51.470  48.574  1.00  0.00     0.037 A 
HETATM   20  C   UNL     1      18.251  48.564  49.744  1.00  0.00     0.075 A 
HETATM   21  C   UNL     1      17.441  50.968  49.217  1.00  0.00     0.010 A 
HETATM   22  C   UNL     1      17.843  52.233  48.776  1.00  0.00     0.001 A 
HETATM   23  C   UNL     1      19.187  52.485  48.457  1.00  0.00     0.003 A 
ENDBRANCH  14  15
ENDBRANCH  11  14
ENDBRANCH   1  10
BRANCH   3  24
HETATM   24  N   UNL     1      24.464  43.251  49.709  1.00  0.00    -0.323 N 
HETATM   25  C   UNL     1      25.769  42.803  49.565  1.00  0.00     0.246 C 
HETATM   26  O   UNL     1      26.730  43.456  49.164  1.00  0.00    -0.271 OA
HETATM   27  H   UNL     1      23.873  42.608  50.217  1.00  0.00     0.169 HD
BRANCH  25  28
HETATM   28  C   UNL     1      25.953  41.354  50.031  1.00  0.00     0.270 C 
BRANCH  28  29
HETATM   29  O   UNL     1      27.075  40.724  49.415  1.00  0.00    -0.387 OA
HETATM   30  C   UNL     1      28.019  40.284  50.387  1.00  0.00     0.202 C 
ENDBRANCH  28  29
ENDBRANCH  25  28
ENDBRANCH   3  24
BRANCH   8  31
HETATM   31  C   UNL     1      25.196  44.856  52.589  1.00  0.00     0.134 C 
BRANCH  31  32
HETATM   32  C   UNL     1      26.183  45.140  53.724  1.00  0.00     0.058 C 
BRANCH  32  33
HETATM   33  C   UNL     1      27.520  44.452  53.679  1.00  0.00    -0.057 A 
HETATM   34  C   UNL     1      28.358  44.411  54.799  1.00  0.00     0.007 A 
HETATM   35  C   UNL     1      29.586  43.748  54.737  1.00  0.00     0.001 A 
HETATM   36  C   UNL     1      29.975  43.103  53.565  1.00  0.00     0.000 A 
HETATM   37  C   UNL     1      29.141  43.121  52.450  1.00  0.00     0.001 A 
HETATM   38  C   UNL     1      27.921  43.794  52.506  1.00  0.00     0.007 A 
ENDBRANCH  32  33
ENDBRANCH  31  32
ENDBRANCH   8  31
TORSDOF 9
ENDMDL
MODEL 5
REMARK VINA RESULT:      -9.4      4.660      8.649
REMARK  9 active torsions:
REMARK  status: ('A' for Active; 'I' for Inactive)
REMARK       I    between atoms: N_2  and  C_3 
REMARK    1  A    between atoms: N_2  and  C_28 
REMARK    2  A    between atoms: C_3  and  C_4 
REMARK    3  A    between atoms: C_6  and  N_7 
REMARK       I    between atoms: N_7  and  C_8 
REMARK    4  A    between atoms: C_8  and  C_9 
REMARK    5  A    between atoms: C_9  and  O_10 
REMARK    6  A    between atoms: N_17  and  C_18 
REMARK    7  A    between atoms: C_18  and  C_19 
REMARK    8  A    between atoms: C_19  and  C_20 
REMARK    9  A    between atoms: C_28  and  C_29 
ROOT
HETATM    1  C   UNL     1      25.547  41.844  49.954  1.00  0.00     0.036 C 
HETATM    2  C   UNL     1      25.634  43.173  50.376  1.00  0.00     0.049 C 
HETATM    3  C   UNL     1      26.425  43.556  51.473  1.00  0.00     0.065 C 
HETATM    4  C   UNL     1      27.232  42.551  52.048  1.00  0.00     0.091 C 
HETATM    5  C   UNL     1      27.093  41.207  51.677  1.00  0.00     0.088 C 
HETATM    6  N   UNL     1      27.872  40.385  52.446  1.00  0.00    -0.242 NA
HETATM    7  C   UNL     1      28.546  41.191  53.224  1.00  0.00     0.210 C 
HETATM    8  N   UNL     1      28.267  42.513  52.968  1.00  0.00    -0.337 N 
HETATM    9  C   UNL     1      26.251  40.841  50.620  1.00  0.00     0.051 C 
ENDROOT
BRANCH   1  10
HETATM   10  C   UNL     1      24.823  41.487  48.711  1.00  0.00     0.253 C 
HETATM   11  N   UNL     1      25.498  40.865  47.657  1.00  0.00    -0.350 N 
HETATM   12  C   UNL     1      24.680  40.349  46.564  1.00  0.00     0.153 C 
HETATM   13  O   UNL     1      23.614  41.718  48.695  1.00  0.00    -0.267 OA
BRANCH  11  14
HETATM   14  C   UNL     1      26.937  41.050  47.377  1.00  0.00     0.158 C 
BRANCH  14  15
HETATM   15  C   UNL     1      27.768  39.752  47.372  1.00  0.00     0.151 A 
HETATM   16  O   UNL     1      28.924  39.913  48.244  1.00  0.00    -0.343 OA
HETATM   17  C   UNL     1      28.915  38.833  49.075  1.00  0.00     0.075 A 
HETATM   18  C   UNL     1      27.817  38.009  48.918  1.00  0.00    -0.022 A 
HETATM   19  C   UNL     1      29.895  38.575  50.011  1.00  0.00     0.037 A 
HETATM   20  C   UNL     1      26.934  38.549  47.862  1.00  0.00     0.075 A 
HETATM   21  C   UNL     1      27.659  36.884  49.710  1.00  0.00     0.010 A 
HETATM   22  C   UNL     1      28.640  36.602  50.666  1.00  0.00     0.001 A 
HETATM   23  C   UNL     1      29.755  37.442  50.816  1.00  0.00     0.003 A 
ENDBRANCH  14  15
ENDBRANCH  11  14
ENDBRANCH   1  10
BRANCH   3  24
HETATM   24  N   UNL     1      26.391  44.861  51.996  1.00  0.00    -0.323 N 
HETATM   25  C   UNL     1      25.693  45.287  53.117  1.00  0.00     0.246 C 
HETATM   26  O   UNL     1      24.936  44.612  53.811  1.00  0.00    -0.271 OA
HETATM   27  H   UNL     1      27.087  45.524  51.682  1.00  0.00     0.169 HD
BRANCH  25  28
HETATM   28  C   UNL     1      26.001  46.742  53.489  1.00  0.00     0.270 C 
BRANCH  28  29
HETATM   29  O   UNL     1      25.713  47.025  54.858  1.00  0.00    -0.387 OA
HETATM   30  C   UNL     1      26.629  47.974  55.394  1.00  0.00     0.202 C 
ENDBRANCH  28  29
ENDBRANCH  25  28
ENDBRANCH   3  24
BRANCH   8  31
HETATM   31  C   UNL     1      29.225  43.555  53.287  1.00  0.00     0.134 C 
BRANCH  31  32
HETATM   32  C   UNL     1      30.397  43.222  54.214  1.00  0.00     0.058 C 
BRANCH  32  33
HETATM   33  C   UNL     1      30.489  43.960  55.521  1.00  0.00    -0.057 A 
HETATM   34  C   UNL     1      29.734  45.113  55.764  1.00  0.00     0.007 A 
HETATM   35  C   UNL     1      29.822  45.768  56.994  1.00  0.00     0.001 A 
HETATM   36  C   UNL     1      30.648  45.265  57.998  1.00  0.00     0.000 A 
HETATM   37  C   UNL     1      31.390  44.108  57.774  1.00  0.00     0.001 A 
HETATM   38  C   UNL     1      31.312  43.460  56.542  1.00  0.00     0.007 A 
ENDBRANCH  32  33
ENDBRANCH  31  32
ENDBRANCH   8  31
TORSDOF 9
ENDMDL
MODEL 6
REMARK VINA RESULT:      -9.4      1.590      2.334
REMARK  9 active torsions:
REMARK  status: ('A' for Active; 'I' for Inactive)
REMARK       I    between atoms: N_2  and  C_3 
REMARK    1  A    between atoms: N_2  and  C_28 
REMARK    2  A    between atoms: C_3  and  C_4 
REMARK    3  A    between atoms: C_6  and  N_7 
REMARK       I    between atoms: N_7  and  C_8 
REMARK    4  A    between atoms: C_8  and  C_9 
REMARK    5  A    between atoms: C_9  and  O_10 
REMARK    6  A    between atoms: N_17  and  C_18 
REMARK    7  A    between atoms: C_18  and  C_19 
REMARK    8  A    between atoms: C_19  and  C_20 
REMARK    9  A    between atoms: C_28  and  C_29 
ROOT
HETATM    1  C   UNL     1      26.020  45.902  50.157  1.00  0.00     0.036 C 
HETATM    2  C   UNL     1      24.646  46.101  50.001  1.00  0.00     0.049 C 
HETATM    3  C   UNL     1      24.114  47.333  49.582  1.00  0.00     0.065 C 
HETATM    4  C   UNL     1      25.045  48.323  49.200  1.00  0.00     0.091 C 
HETATM    5  C   UNL     1      26.419  48.154  49.424  1.00  0.00     0.088 C 
HETATM    6  N   UNL     1      27.127  49.280  49.104  1.00  0.00    -0.242 NA
HETATM    7  C   UNL     1      26.242  50.108  48.614  1.00  0.00     0.210 C 
HETATM    8  N   UNL     1      24.984  49.552  48.564  1.00  0.00    -0.337 N 
HETATM    9  C   UNL     1      26.920  46.937  49.902  1.00  0.00     0.051 C 
ENDROOT
BRANCH   1  10
HETATM   10  C   UNL     1      26.565  44.557  50.460  1.00  0.00     0.253 C 
HETATM   11  N   UNL     1      25.803  43.635  51.183  1.00  0.00    -0.350 N 
HETATM   12  C   UNL     1      26.312  42.270  51.252  1.00  0.00     0.153 C 
HETATM   13  O   UNL     1      27.676  44.299  49.997  1.00  0.00    -0.267 OA
BRANCH  11  14
HETATM   14  C   UNL     1      24.785  44.014  52.184  1.00  0.00     0.158 C 
BRANCH  14  15
HETATM   15  C   UNL     1      25.322  44.193  53.618  1.00  0.00     0.151 A 
HETATM   16  O   UNL     1      26.551  43.427  53.774  1.00  0.00    -0.343 OA
HETATM   17  C   UNL     1      27.465  44.295  54.293  1.00  0.00     0.075 A 
HETATM   18  C   UNL     1      27.007  45.592  54.413  1.00  0.00    -0.022 A 
HETATM   19  C   UNL     1      28.746  43.934  54.656  1.00  0.00     0.037 A 
HETATM   20  C   UNL     1      25.613  45.677  53.928  1.00  0.00     0.075 A 
HETATM   21  C   UNL     1      27.832  46.591  54.903  1.00  0.00     0.010 A 
HETATM   22  C   UNL     1      29.136  46.249  55.278  1.00  0.00     0.001 A 
HETATM   23  C   UNL     1      29.592  44.927  55.157  1.00  0.00     0.003 A 
ENDBRANCH  14  15
ENDBRANCH  11  14
ENDBRANCH   1  10
BRANCH   3  24
HETATM   24  N   UNL     1      22.731  47.584  49.575  1.00  0.00    -0.323 N 
HETATM   25  C   UNL     1      21.863  47.417  48.506  1.00  0.00     0.246 C 
HETATM   26  O   UNL     1      22.164  47.079  47.362  1.00  0.00    -0.271 OA
HETATM   27  H   UNL     1      22.257  47.692  50.462  1.00  0.00     0.169 HD
BRANCH  25  28
HETATM   28  C   UNL     1      20.396  47.639  48.891  1.00  0.00     0.270 C 
BRANCH  28  29
HETATM   29  O   UNL     1      19.562  47.848  47.753  1.00  0.00    -0.387 OA
HETATM   30  C   UNL     1      18.472  46.931  47.735  1.00  0.00     0.202 C 
ENDBRANCH  28  29
ENDBRANCH  25  28
ENDBRANCH   3  24
BRANCH   8  31
HETATM   31  C   UNL     1      23.995  50.025  47.615  1.00  0.00     0.134 C 
BRANCH  31  32
HETATM   32  C   UNL     1      23.225  51.310  47.928  1.00  0.00     0.058 C 
BRANCH  32  33
HETATM   33  C   UNL     1      21.926  51.184  48.676  1.00  0.00    -0.057 A 
HETATM   34  C   UNL     1      21.896  50.985  50.061  1.00  0.00     0.007 A 
HETATM   35  C   UNL     1      20.677  50.892  50.735  1.00  0.00     0.001 A 
HETATM   36  C   UNL     1      19.479  51.019  50.035  1.00  0.00     0.000 A 
HETATM   37  C   UNL     1      19.496  51.236  48.660  1.00  0.00     0.001 A 
HETATM   38  C   UNL     1      20.713  51.317  47.984  1.00  0.00     0.007 A 
ENDBRANCH  32  33
ENDBRANCH  31  32
ENDBRANCH   8  31
TORSDOF 9
ENDMDL
MODEL 7
REMARK VINA RESULT:      -9.4      2.473      4.821
REMARK  9 active torsions:
REMARK  status: ('A' for Active; 'I' for Inactive)
REMARK       I    between atoms: N_2  and  C_3 
REMARK    1  A    between atoms: N_2  and  C_28 
REMARK    2  A    between atoms: C_3  and  C_4 
REMARK    3  A    between atoms: C_6  and  N_7 
REMARK       I    between atoms: N_7  and  C_8 
REMARK    4  A    between atoms: C_8  and  C_9 
REMARK    5  A    between atoms: C_9  and  O_10 
REMARK    6  A    between atoms: N_17  and  C_18 
REMARK    7  A    between atoms: C_18  and  C_19 
REMARK    8  A    between atoms: C_19  and  C_20 
REMARK    9  A    between atoms: C_28  and  C_29 
ROOT
HETATM    1  C   UNL     1      25.180  44.949  51.781  1.00  0.00     0.036 C 
HETATM    2  C   UNL     1      25.512  46.253  51.408  1.00  0.00     0.049 C 
HETATM    3  C   UNL     1      24.947  46.873  50.280  1.00  0.00     0.065 C 
HETATM    4  C   UNL     1      23.927  46.159  49.615  1.00  0.00     0.091 C 
HETATM    5  C   UNL     1      23.643  44.825  49.940  1.00  0.00     0.088 C 
HETATM    6  N   UNL     1      22.717  44.282  49.091  1.00  0.00    -0.242 NA
HETATM    7  C   UNL     1      22.363  45.265  48.305  1.00  0.00     0.210 C 
HETATM    8  N   UNL     1      22.994  46.443  48.631  1.00  0.00    -0.337 N 
HETATM    9  C   UNL     1      24.265  44.209  51.032  1.00  0.00     0.051 C 
ENDROOT
BRANCH   1  10
HETATM   10  C   UNL     1      25.678  44.371  53.052  1.00  0.00     0.253 C 
HETATM   11  N   UNL     1      26.981  43.874  53.137  1.00  0.00    -0.350 N 
HETATM   12  C   UNL     1      27.467  43.526  54.467  1.00  0.00     0.153 C 
HETATM   13  O   UNL     1      24.906  44.409  54.011  1.00  0.00    -0.267 OA
BRANCH  11  14
HETATM   14  C   UNL     1      27.723  43.309  51.991  1.00  0.00     0.158 C 
BRANCH  14  15
HETATM   15  C   UNL     1      27.195  41.953  51.483  1.00  0.00     0.151 A 
HETATM   16  O   UNL     1      27.143  41.967  50.027  1.00  0.00    -0.343 OA
HETATM   17  C   UNL     1      27.794  40.842  49.621  1.00  0.00     0.075 A 
HETATM   18  C   UNL     1      28.365  40.117  50.650  1.00  0.00    -0.022 A 
HETATM   19  C   UNL     1      27.903  40.449  48.303  1.00  0.00     0.037 A 
HETATM   20  C   UNL     1      28.102  40.791  51.941  1.00  0.00     0.075 A 
HETATM   21  C   UNL     1      29.080  38.961  50.389  1.00  0.00     0.010 A 
HETATM   22  C   UNL     1      29.203  38.543  49.059  1.00  0.00     0.001 A 
HETATM   23  C   UNL     1      28.616  39.282  48.020  1.00  0.00     0.003 A 
ENDBRANCH  14  15
ENDBRANCH  11  14
ENDBRANCH   1  10
BRANCH   3  24
HETATM   24  N   UNL     1      25.395  48.122  49.813  1.00  0.00    -0.323 N 
HETATM   25  C   UNL     1      26.597  48.384  49.173  1.00  0.00     0.246 C 
HETATM   26  O   UNL     1      27.504  47.584  48.957  1.00  0.00    -0.271 OA
HETATM   27  H   UNL     1      24.723  48.873  49.728  1.00  0.00     0.169 HD
BRANCH  25  28
HETATM   28  C   UNL     1      26.696  49.828  48.665  1.00  0.00     0.270 C 
BRANCH  28  29
HETATM   29  O   UNL     1      25.957  50.032  47.462  1.00  0.00    -0.387 OA
HETATM   30  C   UNL     1      24.627  50.461  47.738  1.00  0.00     0.202 C 
ENDBRANCH  28  29
ENDBRANCH  25  28
ENDBRANCH   3  24
BRANCH   8  31
HETATM   31  C   UNL     1      22.404  47.725  48.295  1.00  0.00     0.134 C 
BRANCH  31  32
HETATM   32  C   UNL     1      20.899  47.920  48.494  1.00  0.00     0.058 C 
BRANCH  32  33
HETATM   33  C   UNL     1      20.371  49.328  48.511  1.00  0.00    -0.057 A 
HETATM   34  C   UNL     1      19.671  49.860  47.422  1.00  0.00     0.007 A 
HETATM   35  C   UNL     1      19.173  51.164  47.471  1.00  0.00     0.001 A 
HETATM   36  C   UNL     1      19.351  51.938  48.616  1.00  0.00     0.000 A 
HETATM   37  C   UNL     1      20.029  51.414  49.712  1.00  0.00     0.001 A 
HETATM   38  C   UNL     1      20.538  50.117  49.660  1.00  0.00     0.007 A 
ENDBRANCH  32  33
ENDBRANCH  31  32
ENDBRANCH   8  31
TORSDOF 9
ENDMDL
MODEL 8
REMARK VINA RESULT:      -9.3      1.867      9.238
REMARK  9 active torsions:
REMARK  status: ('A' for Active; 'I' for Inactive)
REMARK       I    between atoms: N_2  and  C_3 
REMARK    1  A    between atoms: N_2  and  C_28 
REMARK    2  A    between atoms: C_3  and  C_4 
REMARK    3  A    between atoms: C_6  and  N_7 
REMARK       I    between atoms: N_7  and  C_8 
REMARK    4  A    between atoms: C_8  and  C_9 
REMARK    5  A    between atoms: C_9  and  O_10 
REMARK    6  A    between atoms: N_17  and  C_18 
REMARK    7  A    between atoms: C_18  and  C_19 
REMARK    8  A    between atoms: C_19  and  C_20 
REMARK    9  A    between atoms: C_28  and  C_29 
ROOT
HETATM    1  C   UNL     1      24.367  43.454  48.822  1.00  0.00     0.036 C 
HETATM    2  C   UNL     1      24.786  44.569  49.551  1.00  0.00     0.049 C 
HETATM    3  C   UNL     1      25.662  44.460  50.645  1.00  0.00     0.065 C 
HETATM    4  C   UNL     1      26.204  43.180  50.891  1.00  0.00     0.091 C 
HETATM    5  C   UNL     1      25.731  42.048  50.211  1.00  0.00     0.088 C 
HETATM    6  N   UNL     1      26.293  40.897  50.692  1.00  0.00    -0.242 NA
HETATM    7  C   UNL     1      27.157  41.292  51.591  1.00  0.00     0.210 C 
HETATM    8  N   UNL     1      27.210  42.664  51.690  1.00  0.00    -0.337 N 
HETATM    9  C   UNL     1      24.810  42.176  49.165  1.00  0.00     0.051 C 
ENDROOT
BRANCH   1  10
HETATM   10  C   UNL     1      23.560  43.609  47.588  1.00  0.00     0.253 C 
HETATM   11  N   UNL     1      22.829  44.780  47.367  1.00  0.00    -0.350 N 
HETATM   12  C   UNL     1      22.242  44.949  46.043  1.00  0.00     0.153 C 
HETATM   13  O   UNL     1      23.622  42.688  46.774  1.00  0.00    -0.267 OA
BRANCH  11  14
HETATM   14  C   UNL     1      22.282  45.625  48.449  1.00  0.00     0.158 C 
BRANCH  14  15
HETATM   15  C   UNL     1      21.663  46.956  47.980  1.00  0.00     0.151 A 
HETATM   16  O   UNL     1      20.390  47.164  48.658  1.00  0.00    -0.343 OA
HETATM   17  C   UNL     1      20.450  48.420  49.182  1.00  0.00     0.075 A 
HETATM   18  C   UNL     1      21.669  49.046  49.010  1.00  0.00    -0.022 A 
HETATM   19  C   UNL     1      19.404  49.027  49.846  1.00  0.00     0.037 A 
HETATM   20  C   UNL     1      22.594  48.148  48.286  1.00  0.00     0.075 A 
HETATM   21  C   UNL     1      21.888  50.319  49.510  1.00  0.00     0.010 A 
HETATM   22  C   UNL     1      20.841  50.954  50.186  1.00  0.00     0.001 A 
HETATM   23  C   UNL     1      19.603  50.313  50.353  1.00  0.00     0.003 A 
ENDBRANCH  14  15
ENDBRANCH  11  14
ENDBRANCH   1  10
BRANCH   3  24
HETATM   24  N   UNL     1      25.960  45.556  51.473  1.00  0.00    -0.323 N 
HETATM   25  C   UNL     1      25.579  45.721  52.797  1.00  0.00     0.246 C 
HETATM   26  O   UNL     1      24.866  44.967  53.456  1.00  0.00    -0.271 OA
HETATM   27  H   UNL     1      26.686  46.196  51.182  1.00  0.00     0.169 HD
BRANCH  25  28
HETATM   28  C   UNL     1      26.203  46.964  53.443  1.00  0.00     0.270 C 
BRANCH  28  29
HETATM   29  O   UNL     1      25.783  47.141  54.795  1.00  0.00    -0.387 OA
HETATM   30  C   UNL     1      26.516  48.184  55.431  1.00  0.00     0.202 C 
ENDBRANCH  28  29
ENDBRANCH  25  28
ENDBRANCH   3  24
BRANCH   8  31
HETATM   31  C   UNL     1      28.400  43.331  52.182  1.00  0.00     0.134 C 
BRANCH  31  32
HETATM   32  C   UNL     1      29.185  42.693  53.329  1.00  0.00     0.058 C 
BRANCH  32  33
HETATM   33  C   UNL     1      29.586  43.573  54.481  1.00  0.00    -0.057 A 
HETATM   34  C   UNL     1      30.673  43.253  55.303  1.00  0.00     0.007 A 
HETATM   35  C   UNL     1      31.037  44.099  56.353  1.00  0.00     0.001 A 
HETATM   36  C   UNL     1      30.333  45.280  56.576  1.00  0.00     0.000 A 
HETATM   37  C   UNL     1      29.263  45.619  55.753  1.00  0.00     0.001 A 
HETATM   38  C   UNL     1      28.890  44.770  54.712  1.00  0.00     0.007 A 
ENDBRANCH  32  33
ENDBRANCH  31  32
ENDBRANCH   8  31
TORSDOF 9
ENDMDL
MODEL 9
REMARK VINA RESULT:      -9.2      2.377      3.893
REMARK  9 active torsions:
REMARK  status: ('A' for Active; 'I' for Inactive)
REMARK       I    between atoms: N_2  and  C_3 
REMARK    1  A    between atoms: N_2  and  C_28 
REMARK    2  A    between atoms: C_3  and  C_4 
REMARK    3  A    between atoms: C_6  and  N_7 
REMARK       I    between atoms: N_7  and  C_8 
REMARK    4  A    between atoms: C_8  and  C_9 
REMARK    5  A    between atoms: C_9  and  O_10 
REMARK    6  A    between atoms: N_17  and  C_18 
REMARK    7  A    between atoms: C_18  and  C_19 
REMARK    8  A    between atoms: C_19  and  C_20 
REMARK    9  A    between atoms: C_28  and  C_29 
ROOT
HETATM    1  C   UNL     1      22.996  46.158  49.019  1.00  0.00     0.036 C 
HETATM    2  C   UNL     1      21.635  46.286  48.731  1.00  0.00     0.049 C 
HETATM    3  C   UNL     1      20.990  47.535  48.716  1.00  0.00     0.065 C 
HETATM    4  C   UNL     1      21.814  48.669  48.878  1.00  0.00     0.091 C 
HETATM    5  C   UNL     1      23.162  48.543  49.240  1.00  0.00     0.088 C 
HETATM    6  N   UNL     1      23.740  49.761  49.475  1.00  0.00    -0.242 NA
HETATM    7  C   UNL     1      22.812  50.636  49.189  1.00  0.00     0.210 C 
HETATM    8  N   UNL     1      21.658  50.039  48.739  1.00  0.00    -0.337 N 
HETATM    9  C   UNL     1      23.768  47.283  49.309  1.00  0.00     0.051 C 
ENDROOT
BRANCH   1  10
HETATM   10  C   UNL     1      23.682  44.850  48.888  1.00  0.00     0.253 C 
HETATM   11  N   UNL     1      23.982  44.095  50.025  1.00  0.00    -0.350 N 
HETATM   12  C   UNL     1      24.455  42.733  49.804  1.00  0.00     0.153 C 
HETATM   13  O   UNL     1      23.911  44.465  47.742  1.00  0.00    -0.267 OA
BRANCH  11  14
HETATM   14  C   UNL     1      24.242  44.680  51.357  1.00  0.00     0.158 C 
BRANCH  14  15
HETATM   15  C   UNL     1      25.665  45.240  51.551  1.00  0.00     0.151 A 
HETATM   16  O   UNL     1      25.593  46.510  52.263  1.00  0.00    -0.343 OA
HETATM   17  C   UNL     1      26.469  46.404  53.300  1.00  0.00     0.075 A 
HETATM   18  C   UNL     1      27.055  45.159  53.419  1.00  0.00    -0.022 A 
HETATM   19  C   UNL     1      26.749  47.431  54.178  1.00  0.00     0.037 A 
HETATM   20  C   UNL     1      26.548  44.264  52.356  1.00  0.00     0.075 A 
HETATM   21  C   UNL     1      27.951  44.894  54.442  1.00  0.00     0.010 A 
HETATM   22  C   UNL     1      28.250  45.920  55.344  1.00  0.00     0.001 A 
HETATM   23  C   UNL     1      27.654  47.184  55.213  1.00  0.00     0.003 A 
ENDBRANCH  14  15
ENDBRANCH  11  14
ENDBRANCH   1  10
BRANCH   3  24
HETATM   24  N   UNL     1      19.595  47.651  48.582  1.00  0.00    -0.323 N 
HETATM   25  C   UNL     1      18.713  48.168  49.519  1.00  0.00     0.246 C 
HETATM   26  O   UNL     1      18.990  48.557  50.652  1.00  0.00    -0.271 OA
HETATM   27  H   UNL     1      19.191  47.558  47.660  1.00  0.00     0.169 HD
BRANCH  25  28
HETATM   28  C   UNL     1      17.281  48.284  48.985  1.00  0.00     0.270 C 
BRANCH  28  29
HETATM   29  O   UNL     1      17.225  48.209  47.561  1.00  0.00    -0.387 OA
HETATM   30  C   UNL     1      15.885  48.054  47.104  1.00  0.00     0.202 C 
ENDBRANCH  28  29
ENDBRANCH  25  28
ENDBRANCH   3  24
BRANCH   8  31
HETATM   31  C   UNL     1      20.729  50.756  47.886  1.00  0.00     0.134 C 
BRANCH  31  32
HETATM   32  C   UNL     1      20.027  51.999  48.438  1.00  0.00     0.058 C 
BRANCH  32  33
HETATM   33  C   UNL     1      18.530  51.961  48.565  1.00  0.00    -0.057 A 
HETATM   34  C   UNL     1      17.893  52.177  49.793  1.00  0.00     0.007 A 
HETATM   35  C   UNL     1      16.500  52.156  49.879  1.00  0.00     0.001 A 
HETATM   36  C   UNL     1      15.731  51.942  48.738  1.00  0.00     0.000 A 
HETATM   37  C   UNL     1      16.351  51.745  47.507  1.00  0.00     0.001 A 
HETATM   38  C   UNL     1      17.743  51.752  47.421  1.00  0.00     0.007 A 
ENDBRANCH  32  33
ENDBRANCH  31  32
ENDBRANCH   8  31
TORSDOF 9
ENDMDL
MODEL 10
REMARK VINA RESULT:      -9.2      1.797      9.790
REMARK  9 active torsions:
REMARK  status: ('A' for Active; 'I' for Inactive)
REMARK       I    between atoms: N_2  and  C_3 
REMARK    1  A    between atoms: N_2  and  C_28 
REMARK    2  A    between atoms: C_3  and  C_4 
REMARK    3  A    between atoms: C_6  and  N_7 
REMARK       I    between atoms: N_7  and  C_8 
REMARK    4  A    between atoms: C_8  and  C_9 
REMARK    5  A    between atoms: C_9  and  O_10 
REMARK    6  A    between atoms: N_17  and  C_18 
REMARK    7  A    between atoms: C_18  and  C_19 
REMARK    8  A    between atoms: C_19  and  C_20 
REMARK    9  A    between atoms: C_28  and  C_29 
ROOT
HETATM    1  C   UNL     1      23.688  45.038  49.059  1.00  0.00     0.036 C 
HETATM    2  C   UNL     1      24.646  44.026  49.150  1.00  0.00     0.049 C 
HETATM    3  C   UNL     1      25.743  44.114  50.025  1.00  0.00     0.065 C 
HETATM    4  C   UNL     1      25.758  45.218  50.904  1.00  0.00     0.091 C 
HETATM    5  C   UNL     1      24.842  46.270  50.766  1.00  0.00     0.088 C 
HETATM    6  N   UNL     1      25.114  47.296  51.630  1.00  0.00    -0.242 NA
HETATM    7  C   UNL     1      26.119  46.874  52.350  1.00  0.00     0.210 C 
HETATM    8  N   UNL     1      26.493  45.592  52.017  1.00  0.00    -0.337 N 
HETATM    9  C   UNL     1      23.793  46.187  49.843  1.00  0.00     0.051 C 
ENDROOT
BRANCH   1  10
HETATM   10  C   UNL     1      22.467  44.859  48.237  1.00  0.00     0.253 C 
HETATM   11  N   UNL     1      21.933  45.936  47.524  1.00  0.00    -0.350 N 
HETATM   12  C   UNL     1      20.869  45.633  46.573  1.00  0.00     0.153 C 
HETATM   13  O   UNL     1      22.005  43.719  48.184  1.00  0.00    -0.267 OA
BRANCH  11  14
HETATM   14  C   UNL     1      22.068  47.347  47.942  1.00  0.00     0.158 C 
BRANCH  14  15
HETATM   15  C   UNL     1      20.910  48.265  47.503  1.00  0.00     0.151 A 
HETATM   16  O   UNL     1      19.807  48.140  48.446  1.00  0.00    -0.343 OA
HETATM   17  C   UNL     1      19.480  49.412  48.806  1.00  0.00     0.075 A 
HETATM   18  C   UNL     1      20.312  50.380  48.277  1.00  0.00    -0.022 A 
HETATM   19  C   UNL     1      18.427  49.729  49.638  1.00  0.00     0.037 A 
HETATM   20  C   UNL     1      21.356  49.742  47.446  1.00  0.00     0.075 A 
HETATM   21  C   UNL     1      20.117  51.719  48.573  1.00  0.00     0.010 A 
HETATM   22  C   UNL     1      19.055  52.064  49.415  1.00  0.00     0.001 A 
HETATM   23  C   UNL     1      18.211  51.075  49.945  1.00  0.00     0.003 A 
ENDBRANCH  14  15
ENDBRANCH  11  14
ENDBRANCH   1  10
BRANCH   3  24
HETATM   24  N   UNL     1      26.788  43.175  50.006  1.00  0.00    -0.323 N 
HETATM   25  C   UNL     1      26.690  41.819  50.283  1.00  0.00     0.246 C 
HETATM   26  O   UNL     1      25.684  41.216  50.651  1.00  0.00    -0.271 OA
HETATM   27  H   UNL     1      27.655  43.429  49.552  1.00  0.00     0.169 HD
BRANCH  25  28
HETATM   28  C   UNL     1      27.997  41.063  50.020  1.00  0.00     0.270 C 
BRANCH  28  29
HETATM   29  O   UNL     1      28.375  40.234  51.119  1.00  0.00    -0.387 OA
HETATM   30  C   UNL     1      28.748  41.015  52.251  1.00  0.00     0.202 C 
ENDBRANCH  28  29
ENDBRANCH  25  28
ENDBRANCH   3  24
BRANCH   8  31
HETATM   31  C   UNL     1      27.173  44.740  52.974  1.00  0.00     0.134 C 
BRANCH  31  32
HETATM   32  C   UNL     1      27.474  45.290  54.370  1.00  0.00     0.058 C 
BRANCH  32  33
HETATM   33  C   UNL     1      28.762  44.873  55.025  1.00  0.00    -0.057 A 
HETATM   34  C   UNL     1      29.334  45.624  56.058  1.00  0.00     0.007 A 
HETATM   35  C   UNL     1      30.520  45.203  56.664  1.00  0.00     0.001 A 
HETATM   36  C   UNL     1      31.132  44.019  56.258  1.00  0.00     0.000 A 
HETATM   37  C   UNL     1      30.562  43.253  55.245  1.00  0.00     0.001 A 
HETATM   38  C   UNL     1      29.385  43.678  54.630  1.00  0.00     0.007 A 
ENDBRANCH  32  33
ENDBRANCH  31  32
ENDBRANCH   8  31
TORSDOF 9
ENDMDL
