MODEL 1
REMARK VINA RESULT:      -8.6      0.000      0.000
REMARK  5 active torsions:
REMARK  status: ('A' for Active; 'I' for Inactive)
REMARK    1  A    between atoms: N_3  and  C_4 
REMARK    2  A    between atoms: C_5  and  O_6 
REMARK    3  A    between atoms: C_14  and  C_15 
REMARK    4  A    between atoms: C_15  and  N_16 
REMARK       I    between atoms: N_16  and  C_17 
REMARK       I    between atoms: C_17  and  N_18 
REMARK    5  A    between atoms: N_18  and  C_19 
ROOT
HETATM    1  C   UNL     1      25.712  47.698  53.398  1.00  0.00     0.068 C 
HETATM    2  C   UNL     1      25.964  46.426  52.665  1.00  0.00     0.014 A 
HETATM    3  N   UNL     1      26.109  46.312  51.284  1.00  0.00    -0.317 N 
HETATM    4  C   UNL     1      26.385  44.973  50.996  1.00  0.00     0.021 A 
HETATM    5  C   UNL     1      26.460  44.428  49.605  1.00  0.00     0.069 C 
HETATM    6  C   UNL     1      26.541  44.281  52.190  1.00  0.00    -0.016 A 
HETATM    7  C   UNL     1      26.207  45.186  53.224  1.00  0.00     0.035 A 
ENDROOT
BRANCH   6   8
HETATM    8  C   UNL     1      26.999  42.876  52.369  1.00  0.00     0.165 C 
BRANCH   8   9
HETATM    9  N   UNL     1      28.410  42.762  52.098  1.00  0.00    -0.339 N 
HETATM   10  C   UNL     1      29.423  43.201  52.897  1.00  0.00     0.316 C 
HETATM   11  N   UNL     1      29.049  43.577  54.155  1.00  0.00    -0.339 N 
HETATM   12  O   UNL     1      30.566  43.261  52.462  1.00  0.00    -0.247 OA
HETATM   13  H   UNL     1      28.235  43.105  54.513  1.00  0.00     0.164 HD
HETATM   14  H   UNL     1      28.696  42.569  51.146  1.00  0.00     0.164 HD
BRANCH  11  15
HETATM   15  C   UNL     1      29.957  44.086  55.173  1.00  0.00     0.086 C 
HETATM   16  C   UNL     1      30.608  42.986  56.020  1.00  0.00     0.025 C 
HETATM   17  C   UNL     1      31.626  43.577  56.995  1.00  0.00     0.002 C 
HETATM   18  C   UNL     1      31.008  44.671  57.864  1.00  0.00     0.000 C 
HETATM   19  C   UNL     1      30.333  45.754  57.026  1.00  0.00     0.002 C 
HETATM   20  C   UNL     1      29.313  45.163  56.053  1.00  0.00     0.025 C 
ENDBRANCH  11  15
ENDBRANCH   8   9
ENDBRANCH   6   8
BRANCH   3  21
HETATM   21  C   UNL     1      26.159  47.384  50.342  1.00  0.00     0.072 A 
HETATM   22  C   UNL     1      25.007  47.907  49.730  1.00  0.00     0.095 A 
HETATM   23  C   UNL     1      25.147  48.982  48.840  1.00  0.00     0.039 A 
HETATM   24  C   UNL     1      26.401  49.538  48.576  1.00  0.00     0.003 A 
HETATM   25  C   UNL     1      27.537  49.022  49.189  1.00  0.00     0.002 A 
HETATM   26  C   UNL     1      27.420  47.948  50.067  1.00  0.00     0.033 A 
BRANCH  22  27
HETATM   27  O   UNL     1      23.812  47.276  49.952  1.00  0.00    -0.354 OA
HETATM   28  C   UNL     1      22.874  47.293  48.881  1.00  0.00     0.210 C 
ENDBRANCH  22  27
ENDBRANCH   3  21
TORSDOF 5
ENDMDL
MODEL 2
REMARK VINA RESULT:      -8.0      3.624      6.286
REMARK  5 active torsions:
REMARK  status: ('A' for Active; 'I' for Inactive)
REMARK    1  A    between atoms: N_3  and  C_4 
REMARK    2  A    between atoms: C_5  and  O_6 
REMARK    3  A    between atoms: C_14  and  C_15 
REMARK    4  A    between atoms: C_15  and  N_16 
REMARK       I    between atoms: N_16  and  C_17 
REMARK       I    between atoms: C_17  and  N_18 
REMARK    5  A    between atoms: N_18  and  C_19 
ROOT
HETATM    1  C   UNL     1      19.315  47.303  47.820  1.00  0.00     0.068 C 
HETATM    2  C   UNL     1      20.672  47.708  48.284  1.00  0.00     0.014 A 
HETATM    3  N   UNL     1      21.038  48.998  48.662  1.00  0.00    -0.317 N 
HETATM    4  C   UNL     1      22.370  48.954  49.082  1.00  0.00     0.021 A 
HETATM    5  C   UNL     1      23.165  50.173  49.425  1.00  0.00     0.069 C 
HETATM    6  C   UNL     1      22.793  47.632  49.090  1.00  0.00    -0.016 A 
HETATM    7  C   UNL     1      21.745  46.871  48.524  1.00  0.00     0.035 A 
ENDROOT
BRANCH   6   8
HETATM    8  C   UNL     1      24.079  47.097  49.617  1.00  0.00     0.165 C 
BRANCH   8   9
HETATM    9  N   UNL     1      23.870  45.835  50.282  1.00  0.00    -0.339 N 
HETATM   10  C   UNL     1      24.519  45.392  51.395  1.00  0.00     0.316 C 
HETATM   11  N   UNL     1      25.267  46.332  52.044  1.00  0.00    -0.339 N 
HETATM   12  O   UNL     1      24.429  44.219  51.733  1.00  0.00    -0.247 OA
HETATM   13  H   UNL     1      24.938  47.279  51.942  1.00  0.00     0.164 HD
HETATM   14  H   UNL     1      23.390  45.103  49.772  1.00  0.00     0.164 HD
BRANCH  11  15
HETATM   15  C   UNL     1      26.053  46.084  53.244  1.00  0.00     0.086 C 
HETATM   16  C   UNL     1      26.640  47.357  53.867  1.00  0.00     0.025 C 
HETATM   17  C   UNL     1      27.361  47.042  55.177  1.00  0.00     0.002 C 
HETATM   18  C   UNL     1      28.423  45.959  54.992  1.00  0.00     0.000 C 
HETATM   19  C   UNL     1      27.849  44.700  54.345  1.00  0.00     0.002 C 
HETATM   20  C   UNL     1      27.130  45.014  53.034  1.00  0.00     0.025 C 
ENDBRANCH  11  15
ENDBRANCH   8   9
ENDBRANCH   6   8
BRANCH   3  21
HETATM   21  C   UNL     1      20.171  50.127  48.786  1.00  0.00     0.072 A 
HETATM   22  C   UNL     1      19.516  50.446  49.988  1.00  0.00     0.095 A 
HETATM   23  C   UNL     1      18.707  51.592  50.029  1.00  0.00     0.039 A 
HETATM   24  C   UNL     1      18.566  52.412  48.906  1.00  0.00     0.003 A 
HETATM   25  C   UNL     1      19.221  52.095  47.722  1.00  0.00     0.002 A 
HETATM   26  C   UNL     1      20.020  50.956  47.659  1.00  0.00     0.033 A 
BRANCH  22  27
HETATM   27  O   UNL     1      19.615  49.568  51.034  1.00  0.00    -0.354 OA
HETATM   28  C   UNL     1      18.535  48.657  51.205  1.00  0.00     0.210 C 
ENDBRANCH  22  27
ENDBRANCH   3  21
TORSDOF 5
ENDMDL
MODEL 3
REMARK VINA RESULT:      -7.9      2.780      8.711
REMARK  5 active torsions:
REMARK  status: ('A' for Active; 'I' for Inactive)
REMARK    1  A    between atoms: N_3  and  C_4 
REMARK    2  A    between atoms: C_5  and  O_6 
REMARK    3  A    between atoms: C_14  and  C_15 
REMARK    4  A    between atoms: C_15  and  N_16 
REMARK       I    between atoms: N_16  and  C_17 
REMARK       I    between atoms: C_17  and  N_18 
REMARK    5  A    between atoms: N_18  and  C_19 
ROOT
HETATM    1  C   UNL     1      25.391  44.303  54.439  1.00  0.00     0.068 C 
HETATM    2  C   UNL     1      25.520  44.795  53.039  1.00  0.00     0.014 A 
HETATM    3  N   UNL     1      26.546  44.453  52.160  1.00  0.00    -0.317 N 
HETATM    4  C   UNL     1      26.280  45.072  50.937  1.00  0.00     0.021 A 
HETATM    5  C   UNL     1      27.233  45.061  49.784  1.00  0.00     0.069 C 
HETATM    6  C   UNL     1      25.037  45.687  51.007  1.00  0.00    -0.016 A 
HETATM    7  C   UNL     1      24.604  45.564  52.347  1.00  0.00     0.035 A 
ENDROOT
BRANCH   6   8
HETATM    8  C   UNL     1      24.279  46.325  49.896  1.00  0.00     0.165 C 
BRANCH   8   9
HETATM    9  N   UNL     1      24.596  47.728  49.804  1.00  0.00    -0.339 N 
HETATM   10  C   UNL     1      23.729  48.733  49.496  1.00  0.00     0.316 C 
HETATM   11  N   UNL     1      22.410  48.382  49.495  1.00  0.00    -0.339 N 
HETATM   12  O   UNL     1      24.154  49.848  49.219  1.00  0.00    -0.247 OA
HETATM   13  H   UNL     1      22.172  47.627  50.117  1.00  0.00     0.164 HD
HETATM   14  H   UNL     1      25.571  47.990  49.717  1.00  0.00     0.164 HD
BRANCH  11  15
HETATM   15  C   UNL     1      21.311  49.285  49.184  1.00  0.00     0.086 C 
HETATM   16  C   UNL     1      21.269  49.717  47.713  1.00  0.00     0.025 C 
HETATM   17  C   UNL     1      20.037  50.576  47.430  1.00  0.00     0.002 C 
HETATM   18  C   UNL     1      19.953  51.773  48.375  1.00  0.00     0.000 C 
HETATM   19  C   UNL     1      20.023  51.351  49.841  1.00  0.00     0.002 C 
HETATM   20  C   UNL     1      21.257  50.494  50.125  1.00  0.00     0.025 C 
ENDBRANCH  11  15
ENDBRANCH   8   9
ENDBRANCH   6   8
BRANCH   3  21
HETATM   21  C   UNL     1      27.581  43.495  52.392  1.00  0.00     0.072 A 
HETATM   22  C   UNL     1      27.487  42.162  51.956  1.00  0.00     0.095 A 
HETATM   23  C   UNL     1      28.565  41.298  52.199  1.00  0.00     0.039 A 
HETATM   24  C   UNL     1      29.718  41.751  52.845  1.00  0.00     0.003 A 
HETATM   25  C   UNL     1      29.808  43.071  53.270  1.00  0.00     0.002 A 
HETATM   26  C   UNL     1      28.744  43.942  53.047  1.00  0.00     0.033 A 
BRANCH  22  27
HETATM   27  O   UNL     1      26.306  41.742  51.404  1.00  0.00    -0.354 OA
HETATM   28  C   UNL     1      26.373  40.611  50.541  1.00  0.00     0.210 C 
ENDBRANCH  22  27
ENDBRANCH   3  21
TORSDOF 5
ENDMDL
MODEL 4
REMARK VINA RESULT:      -7.9      2.537      4.613
REMARK  5 active torsions:
REMARK  status: ('A' for Active; 'I' for Inactive)
REMARK    1  A    between atoms: N_3  and  C_4 
REMARK    2  A    between atoms: C_5  and  O_6 
REMARK    3  A    between atoms: C_14  and  C_15 
REMARK    4  A    between atoms: C_15  and  N_16 
REMARK       I    between atoms: N_16  and  C_17 
REMARK       I    between atoms: C_17  and  N_18 
REMARK    5  A    between atoms: N_18  and  C_19 
ROOT
HETATM    1  C   UNL     1      21.297  46.332  47.114  1.00  0.00     0.068 C 
HETATM    2  C   UNL     1      22.436  46.315  48.074  1.00  0.00     0.014 A 
HETATM    3  N   UNL     1      22.914  47.423  48.771  1.00  0.00    -0.317 N 
HETATM    4  C   UNL     1      23.947  46.987  49.604  1.00  0.00     0.021 A 
HETATM    5  C   UNL     1      24.808  47.913  50.403  1.00  0.00     0.069 C 
HETATM    6  C   UNL     1      24.029  45.603  49.528  1.00  0.00    -0.016 A 
HETATM    7  C   UNL     1      23.125  45.202  48.517  1.00  0.00     0.035 A 
ENDROOT
BRANCH   6   8
HETATM    8  C   UNL     1      24.870  44.698  50.359  1.00  0.00     0.165 C 
BRANCH   8   9
HETATM    9  N   UNL     1      24.435  44.719  51.733  1.00  0.00    -0.339 N 
HETATM   10  C   UNL     1      25.193  44.416  52.824  1.00  0.00     0.316 C 
HETATM   11  N   UNL     1      26.532  44.300  52.587  1.00  0.00    -0.339 N 
HETATM   12  O   UNL     1      24.660  44.242  53.913  1.00  0.00    -0.247 OA
HETATM   13  H   UNL     1      26.875  44.854  51.820  1.00  0.00     0.164 HD
HETATM   14  H   UNL     1      23.438  44.718  51.916  1.00  0.00     0.164 HD
BRANCH  11  15
HETATM   15  C   UNL     1      27.528  43.971  53.598  1.00  0.00     0.086 C 
HETATM   16  C   UNL     1      28.267  45.196  54.151  1.00  0.00     0.025 C 
HETATM   17  C   UNL     1      29.219  44.797  55.278  1.00  0.00     0.002 C 
HETATM   18  C   UNL     1      30.188  43.701  54.838  1.00  0.00     0.000 C 
HETATM   19  C   UNL     1      29.459  42.492  54.259  1.00  0.00     0.002 C 
HETATM   20  C   UNL     1      28.508  42.890  53.130  1.00  0.00     0.025 C 
ENDBRANCH  11  15
ENDBRANCH   8   9
ENDBRANCH   6   8
BRANCH   3  21
HETATM   21  C   UNL     1      22.340  48.731  48.786  1.00  0.00     0.072 A 
HETATM   22  C   UNL     1      22.846  49.787  48.009  1.00  0.00     0.095 A 
HETATM   23  C   UNL     1      22.201  51.031  48.062  1.00  0.00     0.039 A 
HETATM   24  C   UNL     1      21.066  51.219  48.857  1.00  0.00     0.003 A 
HETATM   25  C   UNL     1      20.566  50.170  49.620  1.00  0.00     0.002 A 
HETATM   26  C   UNL     1      21.200  48.930  49.588  1.00  0.00     0.033 A 
BRANCH  22  27
HETATM   27  O   UNL     1      24.008  49.581  47.313  1.00  0.00    -0.354 OA
HETATM   28  C   UNL     1      25.182  50.191  47.839  1.00  0.00     0.210 C 
ENDBRANCH  22  27
ENDBRANCH   3  21
TORSDOF 5
ENDMDL
MODEL 5
REMARK VINA RESULT:      -7.9      3.786      6.383
REMARK  5 active torsions:
REMARK  status: ('A' for Active; 'I' for Inactive)
REMARK    1  A    between atoms: N_3  and  C_4 
REMARK    2  A    between atoms: C_5  and  O_6 
REMARK    3  A    between atoms: C_14  and  C_15 
REMARK    4  A    between atoms: C_15  and  N_16 
REMARK       I    between atoms: N_16  and  C_17 
REMARK       I    between atoms: C_17  and  N_18 
REMARK    5  A    between atoms: N_18  and  C_19 
ROOT
HETATM    1  C   UNL     1      24.320  40.839  47.937  1.00  0.00     0.068 C 
HETATM    2  C   UNL     1      25.062  41.407  49.098  1.00  0.00     0.014 A 
HETATM    3  N   UNL     1      26.211  40.857  49.662  1.00  0.00    -0.317 N 
HETATM    4  C   UNL     1      26.630  41.709  50.687  1.00  0.00     0.021 A 
HETATM    5  C   UNL     1      27.748  41.382  51.625  1.00  0.00     0.069 C 
HETATM    6  C   UNL     1      25.831  42.845  50.679  1.00  0.00    -0.016 A 
HETATM    7  C   UNL     1      24.812  42.612  49.727  1.00  0.00     0.035 A 
ENDROOT
BRANCH   6   8
HETATM    8  C   UNL     1      26.012  44.085  51.483  1.00  0.00     0.165 C 
BRANCH   8   9
HETATM    9  N   UNL     1      25.533  43.893  52.829  1.00  0.00    -0.339 N 
HETATM   10  C   UNL     1      26.298  43.821  53.954  1.00  0.00     0.316 C 
HETATM   11  N   UNL     1      27.604  44.183  53.794  1.00  0.00    -0.339 N 
HETATM   12  O   UNL     1      25.809  43.425  55.005  1.00  0.00    -0.247 OA
HETATM   13  H   UNL     1      27.770  44.855  53.062  1.00  0.00     0.164 HD
HETATM   14  H   UNL     1      24.591  43.540  52.952  1.00  0.00     0.164 HD
BRANCH  11  15
HETATM   15  C   UNL     1      28.605  44.173  54.852  1.00  0.00     0.086 C 
HETATM   16  C   UNL     1      29.033  45.574  55.305  1.00  0.00     0.025 C 
HETATM   17  C   UNL     1      30.001  45.495  56.485  1.00  0.00     0.002 C 
HETATM   18  C   UNL     1      31.204  44.609  56.170  1.00  0.00     0.000 C 
HETATM   19  C   UNL     1      30.783  43.222  55.690  1.00  0.00     0.002 C 
HETATM   20  C   UNL     1      29.817  43.300  54.509  1.00  0.00     0.025 C 
ENDBRANCH  11  15
ENDBRANCH   8   9
ENDBRANCH   6   8
BRANCH   3  21
HETATM   21  C   UNL     1      26.946  39.734  49.172  1.00  0.00     0.072 A 
HETATM   22  C   UNL     1      27.939  39.854  48.185  1.00  0.00     0.095 A 
HETATM   23  C   UNL     1      28.633  38.703  47.786  1.00  0.00     0.039 A 
HETATM   24  C   UNL     1      28.359  37.461  48.365  1.00  0.00     0.003 A 
HETATM   25  C   UNL     1      27.379  37.348  49.345  1.00  0.00     0.002 A 
HETATM   26  C   UNL     1      26.673  38.479  49.748  1.00  0.00     0.033 A 
BRANCH  22  27
HETATM   27  O   UNL     1      28.114  41.073  47.586  1.00  0.00    -0.354 OA
HETATM   28  C   UNL     1      27.987  41.110  46.168  1.00  0.00     0.210 C 
ENDBRANCH  22  27
ENDBRANCH   3  21
TORSDOF 5
ENDMDL
MODEL 6
REMARK VINA RESULT:      -7.7     12.279     14.415
REMARK  5 active torsions:
REMARK  status: ('A' for Active; 'I' for Inactive)
REMARK    1  A    between atoms: N_3  and  C_4 
REMARK    2  A    between atoms: C_5  and  O_6 
REMARK    3  A    between atoms: C_14  and  C_15 
REMARK    4  A    between atoms: C_15  and  N_16 
REMARK       I    between atoms: N_16  and  C_17 
REMARK       I    between atoms: C_17  and  N_18 
REMARK    5  A    between atoms: N_18  and  C_19 
ROOT
HETATM    1  C   UNL     1      31.023  54.372  40.730  1.00  0.00     0.068 C 
HETATM    2  C   UNL     1      30.257  53.100  40.857  1.00  0.00     0.014 A 
HETATM    3  N   UNL     1      30.718  51.946  41.486  1.00  0.00    -0.317 N 
HETATM    4  C   UNL     1      29.692  50.999  41.442  1.00  0.00     0.021 A 
HETATM    5  C   UNL     1      29.859  49.582  41.887  1.00  0.00     0.069 C 
HETATM    6  C   UNL     1      28.556  51.595  40.909  1.00  0.00    -0.016 A 
HETATM    7  C   UNL     1      28.943  52.887  40.484  1.00  0.00     0.035 A 
ENDROOT
BRANCH   6   8
HETATM    8  C   UNL     1      27.187  51.018  40.823  1.00  0.00     0.165 C 
BRANCH   8   9
HETATM    9  N   UNL     1      26.832  50.754  39.451  1.00  0.00    -0.339 N 
HETATM   10  C   UNL     1      27.060  49.598  38.767  1.00  0.00     0.316 C 
HETATM   11  N   UNL     1      27.461  48.540  39.531  1.00  0.00    -0.339 N 
HETATM   12  O   UNL     1      26.929  49.569  37.550  1.00  0.00    -0.247 OA
HETATM   13  H   UNL     1      27.131  48.557  40.482  1.00  0.00     0.164 HD
HETATM   14  H   UNL     1      26.618  51.545  38.855  1.00  0.00     0.164 HD
BRANCH  11  15
HETATM   15  C   UNL     1      27.772  47.214  39.015  1.00  0.00     0.086 C 
HETATM   16  C   UNL     1      27.437  46.081  39.994  1.00  0.00     0.025 C 
HETATM   17  C   UNL     1      27.687  44.716  39.354  1.00  0.00     0.002 C 
HETATM   18  C   UNL     1      29.111  44.596  38.813  1.00  0.00     0.000 C 
HETATM   19  C   UNL     1      29.458  45.738  37.862  1.00  0.00     0.002 C 
HETATM   20  C   UNL     1      29.211  47.104  38.501  1.00  0.00     0.025 C 
ENDBRANCH  11  15
ENDBRANCH   8   9
ENDBRANCH   6   8
BRANCH   3  21
HETATM   21  C   UNL     1      31.939  51.804  42.215  1.00  0.00     0.072 A 
HETATM   22  C   UNL     1      33.154  51.466  41.594  1.00  0.00     0.095 A 
HETATM   23  C   UNL     1      34.310  51.378  42.382  1.00  0.00     0.039 A 
HETATM   24  C   UNL     1      34.266  51.638  43.755  1.00  0.00     0.003 A 
HETATM   25  C   UNL     1      33.064  51.978  44.363  1.00  0.00     0.002 A 
HETATM   26  C   UNL     1      31.903  52.060  43.599  1.00  0.00     0.033 A 
BRANCH  22  27
HETATM   27  O   UNL     1      33.133  51.136  40.265  1.00  0.00    -0.354 OA
HETATM   28  C   UNL     1      33.714  52.076  39.367  1.00  0.00     0.210 C 
ENDBRANCH  22  27
ENDBRANCH   3  21
TORSDOF 5
ENDMDL
MODEL 7
REMARK VINA RESULT:      -7.6     11.804     13.544
REMARK  5 active torsions:
REMARK  status: ('A' for Active; 'I' for Inactive)
REMARK    1  A    between atoms: N_3  and  C_4 
REMARK    2  A    between atoms: C_5  and  O_6 
REMARK    3  A    between atoms: C_14  and  C_15 
REMARK    4  A    between atoms: C_15  and  N_16 
REMARK       I    between atoms: N_16  and  C_17 
REMARK       I    between atoms: C_17  and  N_18 
REMARK    5  A    between atoms: N_18  and  C_19 
ROOT
HETATM    1  C   UNL     1      32.126  52.232  44.850  1.00  0.00     0.068 C 
HETATM    2  C   UNL     1      33.258  51.753  44.008  1.00  0.00     0.014 A 
HETATM    3  N   UNL     1      33.137  50.904  42.911  1.00  0.00    -0.317 N 
HETATM    4  C   UNL     1      34.411  50.737  42.362  1.00  0.00     0.021 A 
HETATM    5  C   UNL     1      34.713  49.776  41.257  1.00  0.00     0.069 C 
HETATM    6  C   UNL     1      35.298  51.573  43.028  1.00  0.00    -0.016 A 
HETATM    7  C   UNL     1      34.578  52.151  44.099  1.00  0.00     0.035 A 
ENDROOT
BRANCH   6   8
HETATM    8  C   UNL     1      36.720  51.846  42.679  1.00  0.00     0.165 C 
BRANCH   8   9
HETATM    9  N   UNL     1      37.584  50.840  43.244  1.00  0.00    -0.339 N 
HETATM   10  C   UNL     1      38.456  51.012  44.276  1.00  0.00     0.316 C 
HETATM   11  N   UNL     1      38.321  52.186  44.961  1.00  0.00    -0.339 N 
HETATM   12  O   UNL     1      39.301  50.159  44.516  1.00  0.00    -0.247 OA
HETATM   13  H   UNL     1      37.391  52.572  44.960  1.00  0.00     0.164 HD
HETATM   14  H   UNL     1      37.757  50.003  42.699  1.00  0.00     0.164 HD
BRANCH  11  15
HETATM   15  C   UNL     1      39.149  52.588  46.089  1.00  0.00     0.086 C 
HETATM   16  C   UNL     1      38.402  53.436  47.127  1.00  0.00     0.025 C 
HETATM   17  C   UNL     1      39.292  53.734  48.332  1.00  0.00     0.002 C 
HETATM   18  C   UNL     1      40.611  54.382  47.915  1.00  0.00     0.000 C 
HETATM   19  C   UNL     1      41.345  53.556  46.861  1.00  0.00     0.002 C 
HETATM   20  C   UNL     1      40.456  53.259  45.654  1.00  0.00     0.025 C 
ENDBRANCH  11  15
ENDBRANCH   8   9
ENDBRANCH   6   8
BRANCH   3  21
HETATM   21  C   UNL     1      31.921  50.437  42.325  1.00  0.00     0.072 A 
HETATM   22  C   UNL     1      31.273  51.123  41.283  1.00  0.00     0.095 A 
HETATM   23  C   UNL     1      30.098  50.576  40.746  1.00  0.00     0.039 A 
HETATM   24  C   UNL     1      29.587  49.365  41.221  1.00  0.00     0.003 A 
HETATM   25  C   UNL     1      30.235  48.688  42.248  1.00  0.00     0.002 A 
HETATM   26  C   UNL     1      31.396  49.221  42.801  1.00  0.00     0.033 A 
BRANCH  22  27
HETATM   27  O   UNL     1      31.761  52.346  40.909  1.00  0.00    -0.354 OA
HETATM   28  C   UNL     1      30.930  53.472  41.171  1.00  0.00     0.210 C 
ENDBRANCH  22  27
ENDBRANCH   3  21
TORSDOF 5
ENDMDL
MODEL 8
REMARK VINA RESULT:      -7.4     11.955     14.827
REMARK  5 active torsions:
REMARK  status: ('A' for Active; 'I' for Inactive)
REMARK    1  A    between atoms: N_3  and  C_4 
REMARK    2  A    between atoms: C_5  and  O_6 
REMARK    3  A    between atoms: C_14  and  C_15 
REMARK    4  A    between atoms: C_15  and  N_16 
REMARK       I    between atoms: N_16  and  C_17 
REMARK       I    between atoms: C_17  and  N_18 
REMARK    5  A    between atoms: N_18  and  C_19 
ROOT
HETATM    1  C   UNL     1      31.219  48.485  42.611  1.00  0.00     0.068 C 
HETATM    2  C   UNL     1      30.563  49.774  42.252  1.00  0.00     0.014 A 
HETATM    3  N   UNL     1      31.209  51.004  42.161  1.00  0.00    -0.317 N 
HETATM    4  C   UNL     1      30.267  51.950  41.750  1.00  0.00     0.021 A 
HETATM    5  C   UNL     1      30.547  53.417  41.679  1.00  0.00     0.069 C 
HETATM    6  C   UNL     1      29.075  51.297  41.461  1.00  0.00    -0.016 A 
HETATM    7  C   UNL     1      29.254  49.948  41.845  1.00  0.00     0.035 A 
ENDROOT
BRANCH   6   8
HETATM    8  C   UNL     1      27.853  51.876  40.840  1.00  0.00     0.165 C 
BRANCH   8   9
HETATM    9  N   UNL     1      27.829  51.613  39.423  1.00  0.00    -0.339 N 
HETATM   10  C   UNL     1      27.018  50.726  38.781  1.00  0.00     0.316 C 
HETATM   11  N   UNL     1      26.001  50.217  39.536  1.00  0.00    -0.339 N 
HETATM   12  O   UNL     1      27.244  50.418  37.617  1.00  0.00    -0.247 OA
HETATM   13  H   UNL     1      25.674  50.824  40.270  1.00  0.00     0.164 HD
HETATM   14  H   UNL     1      28.624  51.912  38.871  1.00  0.00     0.164 HD
BRANCH  11  15
HETATM   15  C   UNL     1      25.022  49.248  39.064  1.00  0.00     0.086 C 
HETATM   16  C   UNL     1      23.705  49.882  38.600  1.00  0.00     0.025 C 
HETATM   17  C   UNL     1      22.764  48.827  38.020  1.00  0.00     0.002 C 
HETATM   18  C   UNL     1      22.526  47.681  39.001  1.00  0.00     0.000 C 
HETATM   19  C   UNL     1      23.835  47.065  39.489  1.00  0.00     0.002 C 
HETATM   20  C   UNL     1      24.775  48.119  40.071  1.00  0.00     0.025 C 
ENDBRANCH  11  15
ENDBRANCH   8   9
ENDBRANCH   6   8
BRANCH   3  21
HETATM   21  C   UNL     1      32.614  51.238  42.276  1.00  0.00     0.072 A 
HETATM   22  C   UNL     1      33.483  51.172  41.173  1.00  0.00     0.095 A 
HETATM   23  C   UNL     1      34.844  51.447  41.371  1.00  0.00     0.039 A 
HETATM   24  C   UNL     1      35.330  51.796  42.634  1.00  0.00     0.003 A 
HETATM   25  C   UNL     1      34.466  51.866  43.720  1.00  0.00     0.002 A 
HETATM   26  C   UNL     1      33.113  51.586  43.545  1.00  0.00     0.033 A 
BRANCH  22  27
HETATM   27  O   UNL     1      32.978  50.742  39.974  1.00  0.00    -0.354 OA
HETATM   28  C   UNL     1      32.842  51.723  38.952  1.00  0.00     0.210 C 
ENDBRANCH  22  27
ENDBRANCH   3  21
TORSDOF 5
ENDMDL
MODEL 9
REMARK VINA RESULT:      -7.3      2.768      5.024
REMARK  5 active torsions:
REMARK  status: ('A' for Active; 'I' for Inactive)
REMARK    1  A    between atoms: N_3  and  C_4 
REMARK    2  A    between atoms: C_5  and  O_6 
REMARK    3  A    between atoms: C_14  and  C_15 
REMARK    4  A    between atoms: C_15  and  N_16 
REMARK       I    between atoms: N_16  and  C_17 
REMARK       I    between atoms: C_17  and  N_18 
REMARK    5  A    between atoms: N_18  and  C_19 
ROOT
HETATM    1  C   UNL     1      20.952  46.636  46.250  1.00  0.00     0.068 C 
HETATM    2  C   UNL     1      21.984  46.373  47.292  1.00  0.00     0.014 A 
HETATM    3  N   UNL     1      22.449  47.308  48.214  1.00  0.00    -0.317 N 
HETATM    4  C   UNL     1      23.365  46.663  49.048  1.00  0.00     0.021 A 
HETATM    5  C   UNL     1      24.191  47.374  50.072  1.00  0.00     0.069 C 
HETATM    6  C   UNL     1      23.376  45.309  48.737  1.00  0.00    -0.016 A 
HETATM    7  C   UNL     1      22.560  45.153  47.593  1.00  0.00     0.035 A 
ENDROOT
BRANCH   6   8
HETATM    8  C   UNL     1      24.075  44.218  49.470  1.00  0.00     0.165 C 
BRANCH   8   9
HETATM    9  N   UNL     1      25.496  44.276  49.234  1.00  0.00    -0.339 N 
HETATM   10  C   UNL     1      26.476  44.064  50.157  1.00  0.00     0.316 C 
HETATM   11  N   UNL     1      26.053  43.537  51.343  1.00  0.00    -0.339 N 
HETATM   12  O   UNL     1      27.635  44.367  49.903  1.00  0.00    -0.247 OA
HETATM   13  H   UNL     1      25.227  42.964  51.281  1.00  0.00     0.164 HD
HETATM   14  H   UNL     1      25.819  44.744  48.396  1.00  0.00     0.164 HD
BRANCH  11  15
HETATM   15  C   UNL     1      26.919  43.238  52.474  1.00  0.00     0.086 C 
HETATM   16  C   UNL     1      27.624  44.473  53.050  1.00  0.00     0.025 C 
HETATM   17  C   UNL     1      28.432  44.110  54.295  1.00  0.00     0.002 C 
HETATM   18  C   UNL     1      29.414  42.973  54.021  1.00  0.00     0.000 C 
HETATM   19  C   UNL     1      28.722  41.752  53.421  1.00  0.00     0.002 C 
HETATM   20  C   UNL     1      27.916  42.113  52.174  1.00  0.00     0.025 C 
ENDBRANCH  11  15
ENDBRANCH   8   9
ENDBRANCH   6   8
BRANCH   3  21
HETATM   21  C   UNL     1      21.952  48.634  48.406  1.00  0.00     0.072 A 
HETATM   22  C   UNL     1      20.750  48.898  49.085  1.00  0.00     0.095 A 
HETATM   23  C   UNL     1      20.352  50.232  49.256  1.00  0.00     0.039 A 
HETATM   24  C   UNL     1      21.140  51.283  48.778  1.00  0.00     0.003 A 
HETATM   25  C   UNL     1      22.330  51.017  48.112  1.00  0.00     0.002 A 
HETATM   26  C   UNL     1      22.736  49.698  47.924  1.00  0.00     0.033 A 
BRANCH  22  27
HETATM   27  O   UNL     1      19.970  47.836  49.460  1.00  0.00    -0.354 OA
HETATM   28  C   UNL     1      18.579  47.935  49.175  1.00  0.00     0.210 C 
ENDBRANCH  22  27
ENDBRANCH   3  21
TORSDOF 5
ENDMDL
MODEL 10
REMARK VINA RESULT:      -7.3      4.281      7.255
REMARK  5 active torsions:
REMARK  status: ('A' for Active; 'I' for Inactive)
REMARK    1  A    between atoms: N_3  and  C_4 
REMARK    2  A    between atoms: C_5  and  O_6 
REMARK    3  A    between atoms: C_14  and  C_15 
REMARK    4  A    between atoms: C_15  and  N_16 
REMARK       I    between atoms: N_16  and  C_17 
REMARK       I    between atoms: C_17  and  N_18 
REMARK    5  A    between atoms: N_18  and  C_19 
ROOT
HETATM    1  C   UNL     1      17.571  47.455  48.803  1.00  0.00     0.068 C 
HETATM    2  C   UNL     1      19.042  47.472  48.562  1.00  0.00     0.014 A 
HETATM    3  N   UNL     1      19.809  48.618  48.368  1.00  0.00    -0.317 N 
HETATM    4  C   UNL     1      21.141  48.219  48.231  1.00  0.00     0.021 A 
HETATM    5  C   UNL     1      22.247  49.154  47.861  1.00  0.00     0.069 C 
HETATM    6  C   UNL     1      21.224  46.853  48.466  1.00  0.00    -0.016 A 
HETATM    7  C   UNL     1      19.897  46.387  48.604  1.00  0.00     0.035 A 
ENDROOT
BRANCH   6   8
HETATM    8  C   UNL     1      22.458  46.029  48.587  1.00  0.00     0.165 C 
BRANCH   8   9
HETATM    9  N   UNL     1      22.189  44.813  49.312  1.00  0.00    -0.339 N 
HETATM   10  C   UNL     1      22.974  44.259  50.278  1.00  0.00     0.316 C 
HETATM   11  N   UNL     1      23.983  45.056  50.735  1.00  0.00    -0.339 N 
HETATM   12  O   UNL     1      22.766  43.113  50.656  1.00  0.00    -0.247 OA
HETATM   13  H   UNL     1      23.799  46.045  50.680  1.00  0.00     0.164 HD
HETATM   14  H   UNL     1      21.501  44.174  48.929  1.00  0.00     0.164 HD
BRANCH  11  15
HETATM   15  C   UNL     1      24.949  44.671  51.754  1.00  0.00     0.086 C 
HETATM   16  C   UNL     1      25.416  45.840  52.630  1.00  0.00     0.025 C 
HETATM   17  C   UNL     1      26.343  45.352  53.743  1.00  0.00     0.002 C 
HETATM   18  C   UNL     1      27.522  44.554  53.188  1.00  0.00     0.000 C 
HETATM   19  C   UNL     1      27.063  43.407  52.291  1.00  0.00     0.002 C 
HETATM   20  C   UNL     1      26.137  43.894  51.177  1.00  0.00     0.025 C 
ENDBRANCH  11  15
ENDBRANCH   8   9
ENDBRANCH   6   8
BRANCH   3  21
HETATM   21  C   UNL     1      19.362  49.971  48.478  1.00  0.00     0.072 A 
HETATM   22  C   UNL     1      18.894  50.703  47.373  1.00  0.00     0.095 A 
HETATM   23  C   UNL     1      18.445  52.016  47.578  1.00  0.00     0.039 A 
HETATM   24  C   UNL     1      18.444  52.584  48.855  1.00  0.00     0.003 A 
HETATM   25  C   UNL     1      18.902  51.853  49.945  1.00  0.00     0.002 A 
HETATM   26  C   UNL     1      19.361  50.552  49.760  1.00  0.00     0.033 A 
BRANCH  22  27
HETATM   27  O   UNL     1      18.994  50.137  46.130  1.00  0.00    -0.354 OA
HETATM   28  C   UNL     1      17.783  49.674  45.542  1.00  0.00     0.210 C 
ENDBRANCH  22  27
ENDBRANCH   3  21
TORSDOF 5
ENDMDL
