MODEL 1
REMARK VINA RESULT:      -8.2      0.000      0.000
REMARK  4 active torsions:
REMARK  status: ('A' for Active; 'I' for Inactive)
REMARK    1  A    between atoms: O_2  and  C_3 
REMARK    2  A    between atoms: C_5  and  C_6 
REMARK    3  A    between atoms: C_10  and  N_11 
REMARK    4  A    between atoms: C_14  and  C_15 
ROOT
HETATM    1  C   UNL     1      25.804  44.533  51.074  1.00  0.00     0.164 C 
HETATM    2  N   UNL     1      26.107  45.892  50.640  1.00  0.00    -0.074 N 
HETATM    3  C   UNL     1      25.993  46.998  51.441  1.00  0.00     0.736 A 
HETATM    4  N   UNL     1      26.442  48.042  50.794  1.00  0.00     0.131 NA
HETATM    5  C   UNL     1      26.880  47.509  49.618  1.00  0.00     0.753 A 
HETATM    6  N   UNL     1      26.725  46.195  49.484  1.00  0.00     0.037 NA
HETATM    7  N   UNL     1      25.544  46.904  52.711  1.00  0.00    -0.214 N 
HETATM    8  C   UNL     1      25.530  45.604  53.374  1.00  0.00     0.135 C 
HETATM    9  C   UNL     1      24.997  44.545  52.389  1.00  0.00     0.063 C 
HETATM   10  H   UNL     1      25.717  47.706  53.312  1.00  0.00     0.178 HD
ENDROOT
BRANCH   1  11
HETATM   11  C   UNL     1      25.071  43.737  50.004  1.00  0.00    -0.030 A 
HETATM   12  C   UNL     1      23.721  43.989  49.699  1.00  0.00     0.046 A 
HETATM   13  C   UNL     1      23.056  43.270  48.703  1.00  0.00     0.068 A 
HETATM   14  C   UNL     1      23.730  42.254  48.025  1.00  0.00     0.037 A 
HETATM   15  C   UNL     1      25.065  41.980  48.328  1.00  0.00     0.003 A 
HETATM   16  C   UNL     1      25.733  42.717  49.307  1.00  0.00     0.009 A 
BRANCH  13  17
HETATM   17  O   UNL     1      21.753  43.631  48.501  1.00  0.00    -0.356 OA
HETATM   18  C   UNL     1      21.518  45.020  48.302  1.00  0.00     0.210 C 
ENDBRANCH  13  17
ENDBRANCH   1  11
BRANCH   8  19
HETATM   19  C   UNL     1      26.864  45.225  54.011  1.00  0.00    -0.035 A 
HETATM   20  C   UNL     1      27.431  43.942  53.914  1.00  0.00     0.010 A 
HETATM   21  C   UNL     1      28.659  43.647  54.515  1.00  0.00     0.019 A 
HETATM   22  C   UNL     1      29.340  44.633  55.221  1.00  0.00     0.011 A 
HETATM   23 BR   UNL     1      30.999  44.234  56.033  1.00  0.00    -0.051 Br
HETATM   24  C   UNL     1      28.806  45.913  55.328  1.00  0.00     0.019 A 
HETATM   25  C   UNL     1      27.578  46.206  54.724  1.00  0.00     0.010 A 
ENDBRANCH   8  19
BRANCH   5  26
HETATM   26  N   UNL     1      27.413  48.320  48.710  1.00  0.00    -0.229 N 
HETATM   27  H   UNL     1      27.365  49.310  48.910  1.00  0.00     0.174 HD
HETATM   28  H   UNL     1      27.247  48.076  47.743  1.00  0.00     0.174 HD
ENDBRANCH   5  26
TORSDOF 4
ENDMDL
MODEL 2
REMARK VINA RESULT:      -8.2      1.376      2.397
REMARK  4 active torsions:
REMARK  status: ('A' for Active; 'I' for Inactive)
REMARK    1  A    between atoms: O_2  and  C_3 
REMARK    2  A    between atoms: C_5  and  C_6 
REMARK    3  A    between atoms: C_10  and  N_11 
REMARK    4  A    between atoms: C_14  and  C_15 
ROOT
HETATM    1  C   UNL     1      26.152  44.369  50.913  1.00  0.00     0.164 C 
HETATM    2  N   UNL     1      26.311  45.768  50.529  1.00  0.00    -0.074 N 
HETATM    3  C   UNL     1      26.011  46.827  51.345  1.00  0.00     0.736 A 
HETATM    4  N   UNL     1      26.367  47.937  50.752  1.00  0.00     0.131 NA
HETATM    5  C   UNL     1      26.941  47.496  49.596  1.00  0.00     0.753 A 
HETATM    6  N   UNL     1      26.958  46.177  49.423  1.00  0.00     0.037 NA
HETATM    7  N   UNL     1      25.498  46.641  52.580  1.00  0.00    -0.214 N 
HETATM    8  C   UNL     1      25.603  45.330  53.212  1.00  0.00     0.135 C 
HETATM    9  C   UNL     1      25.268  44.244  52.171  1.00  0.00     0.063 C 
HETATM   10  H   UNL     1      25.533  47.440  53.209  1.00  0.00     0.178 HD
ENDROOT
BRANCH   1  11
HETATM   11  C   UNL     1      25.591  43.522  49.780  1.00  0.00    -0.030 A 
HETATM   12  C   UNL     1      26.326  42.458  49.226  1.00  0.00     0.046 A 
HETATM   13  C   UNL     1      25.800  41.670  48.199  1.00  0.00     0.068 A 
HETATM   14  C   UNL     1      24.539  41.968  47.684  1.00  0.00     0.037 A 
HETATM   15  C   UNL     1      23.803  43.032  48.212  1.00  0.00     0.003 A 
HETATM   16  C   UNL     1      24.323  43.802  49.254  1.00  0.00     0.009 A 
BRANCH  13  17
HETATM   17  O   UNL     1      26.616  40.661  47.769  1.00  0.00    -0.356 OA
HETATM   18  C   UNL     1      27.999  40.811  48.068  1.00  0.00     0.210 C 
ENDBRANCH  13  17
ENDBRANCH   1  11
BRANCH   8  19
HETATM   19  C   UNL     1      26.931  45.098  53.928  1.00  0.00    -0.035 A 
HETATM   20  C   UNL     1      27.620  46.105  54.627  1.00  0.00     0.010 A 
HETATM   21  C   UNL     1      28.834  45.840  55.269  1.00  0.00     0.019 A 
HETATM   22  C   UNL     1      29.377  44.560  55.224  1.00  0.00     0.011 A 
HETATM   23 BR   UNL     1      31.017  44.202  56.092  1.00  0.00    -0.051 Br
HETATM   24  C   UNL     1      28.714  43.542  54.546  1.00  0.00     0.019 A 
HETATM   25  C   UNL     1      27.499  43.809  53.906  1.00  0.00     0.010 A 
ENDBRANCH   8  19
BRANCH   5  26
HETATM   26  N   UNL     1      27.426  48.393  48.743  1.00  0.00    -0.229 N 
HETATM   27  H   UNL     1      28.370  48.234  48.415  1.00  0.00     0.174 HD
HETATM   28  H   UNL     1      27.204  49.359  48.939  1.00  0.00     0.174 HD
ENDBRANCH   5  26
TORSDOF 4
ENDMDL
MODEL 3
REMARK VINA RESULT:      -7.9      6.293      9.372
REMARK  4 active torsions:
REMARK  status: ('A' for Active; 'I' for Inactive)
REMARK    1  A    between atoms: O_2  and  C_3 
REMARK    2  A    between atoms: C_5  and  C_6 
REMARK    3  A    between atoms: C_10  and  N_11 
REMARK    4  A    between atoms: C_14  and  C_15 
ROOT
HETATM    1  C   UNL     1      22.430  49.148  48.431  1.00  0.00     0.164 C 
HETATM    2  N   UNL     1      21.877  47.805  48.297  1.00  0.00    -0.074 N 
HETATM    3  C   UNL     1      20.719  47.388  48.897  1.00  0.00     0.736 A 
HETATM    4  N   UNL     1      20.440  46.177  48.493  1.00  0.00     0.131 NA
HETATM    5  C   UNL     1      21.430  45.919  47.593  1.00  0.00     0.753 A 
HETATM    6  N   UNL     1      22.320  46.892  47.414  1.00  0.00     0.037 NA
HETATM    7  N   UNL     1      20.011  48.206  49.707  1.00  0.00    -0.214 N 
HETATM    8  C   UNL     1      20.251  49.645  49.662  1.00  0.00     0.135 C 
HETATM    9  C   UNL     1      21.770  49.897  49.607  1.00  0.00     0.063 C 
HETATM   10  H   UNL     1      19.056  47.923  49.913  1.00  0.00     0.178 HD
ENDROOT
BRANCH   1  11
HETATM   11  C   UNL     1      23.944  49.134  48.589  1.00  0.00    -0.030 A 
HETATM   12  C   UNL     1      24.583  48.218  49.445  1.00  0.00     0.046 A 
HETATM   13  C   UNL     1      25.975  48.195  49.572  1.00  0.00     0.068 A 
HETATM   14  C   UNL     1      26.743  49.123  48.871  1.00  0.00     0.037 A 
HETATM   15  C   UNL     1      26.122  50.050  48.030  1.00  0.00     0.003 A 
HETATM   16  C   UNL     1      24.734  50.054  47.887  1.00  0.00     0.009 A 
BRANCH  13  17
HETATM   17  O   UNL     1      26.461  47.243  50.425  1.00  0.00    -0.356 OA
HETATM   18  C   UNL     1      25.755  47.089  51.651  1.00  0.00     0.210 C 
ENDBRANCH  13  17
ENDBRANCH   1  11
BRANCH   8  19
HETATM   19  C   UNL     1      19.475  50.363  48.561  1.00  0.00    -0.035 A 
HETATM   20  C   UNL     1      18.940  49.708  47.438  1.00  0.00     0.010 A 
HETATM   21  C   UNL     1      18.233  50.412  46.458  1.00  0.00     0.019 A 
HETATM   22  C   UNL     1      18.048  51.784  46.589  1.00  0.00     0.011 A 
HETATM   23 BR   UNL     1      17.093  52.736  45.264  1.00  0.00    -0.051 Br
HETATM   24  C   UNL     1      18.560  52.457  47.693  1.00  0.00     0.019 A 
HETATM   25  C   UNL     1      19.265  51.751  48.673  1.00  0.00     0.010 A 
ENDBRANCH   8  19
BRANCH   5  26
HETATM   26  N   UNL     1      21.441  44.741  46.976  1.00  0.00    -0.229 N 
HETATM   27  H   UNL     1      21.173  44.745  46.000  1.00  0.00     0.174 HD
HETATM   28  H   UNL     1      21.089  43.957  47.507  1.00  0.00     0.174 HD
ENDBRANCH   5  26
TORSDOF 4
ENDMDL
MODEL 4
REMARK VINA RESULT:      -7.6      4.254      6.760
REMARK  4 active torsions:
REMARK  status: ('A' for Active; 'I' for Inactive)
REMARK    1  A    between atoms: O_2  and  C_3 
REMARK    2  A    between atoms: C_5  and  C_6 
REMARK    3  A    between atoms: C_10  and  N_11 
REMARK    4  A    between atoms: C_14  and  C_15 
ROOT
HETATM    1  C   UNL     1      26.817  43.162  50.418  1.00  0.00     0.164 C 
HETATM    2  N   UNL     1      27.735  42.677  51.443  1.00  0.00    -0.074 N 
HETATM    3  C   UNL     1      27.624  41.459  52.059  1.00  0.00     0.736 A 
HETATM    4  N   UNL     1      28.657  41.281  52.841  1.00  0.00     0.131 NA
HETATM    5  C   UNL     1      29.406  42.398  52.619  1.00  0.00     0.753 A 
HETATM    6  N   UNL     1      28.901  43.272  51.752  1.00  0.00     0.037 NA
HETATM    7  N   UNL     1      26.608  40.616  51.776  1.00  0.00    -0.214 N 
HETATM    8  C   UNL     1      25.829  40.814  50.557  1.00  0.00     0.135 C 
HETATM    9  C   UNL     1      25.527  42.316  50.394  1.00  0.00     0.063 C 
HETATM   10  H   UNL     1      26.723  39.652  52.077  1.00  0.00     0.178 HD
ENDROOT
BRANCH   1  11
HETATM   11  C   UNL     1      26.485  44.637  50.592  1.00  0.00    -0.030 A 
HETATM   12  C   UNL     1      26.918  45.601  49.664  1.00  0.00     0.046 A 
HETATM   13  C   UNL     1      26.595  46.952  49.818  1.00  0.00     0.068 A 
HETATM   14  C   UNL     1      25.864  47.359  50.932  1.00  0.00     0.037 A 
HETATM   15  C   UNL     1      25.441  46.416  51.872  1.00  0.00     0.003 A 
HETATM   16  C   UNL     1      25.745  45.065  51.703  1.00  0.00     0.009 A 
BRANCH  13  17
HETATM   17  O   UNL     1      27.067  47.774  48.833  1.00  0.00    -0.356 OA
HETATM   18  C   UNL     1      27.745  48.945  49.274  1.00  0.00     0.210 C 
ENDBRANCH  13  17
ENDBRANCH   1  11
BRANCH   8  19
HETATM   19  C   UNL     1      26.456  40.180  49.319  1.00  0.00    -0.035 A 
HETATM   20  C   UNL     1      27.506  39.245  49.375  1.00  0.00     0.010 A 
HETATM   21  C   UNL     1      28.045  38.692  48.209  1.00  0.00     0.019 A 
HETATM   22  C   UNL     1      27.539  39.063  46.968  1.00  0.00     0.011 A 
HETATM   23 BR   UNL     1      28.267  38.314  45.393  1.00  0.00    -0.051 Br
HETATM   24  C   UNL     1      26.496  39.979  46.882  1.00  0.00     0.019 A 
HETATM   25  C   UNL     1      25.958  40.531  48.050  1.00  0.00     0.010 A 
ENDBRANCH   8  19
BRANCH   5  26
HETATM   26  N   UNL     1      30.555  42.536  53.273  1.00  0.00    -0.229 N 
HETATM   27  H   UNL     1      30.818  43.480  53.522  1.00  0.00     0.174 HD
HETATM   28  H   UNL     1      31.319  41.954  52.956  1.00  0.00     0.174 HD
ENDBRANCH   5  26
TORSDOF 4
ENDMDL
MODEL 5
REMARK VINA RESULT:      -7.5      7.216     10.135
REMARK  4 active torsions:
REMARK  status: ('A' for Active; 'I' for Inactive)
REMARK    1  A    between atoms: O_2  and  C_3 
REMARK    2  A    between atoms: C_5  and  C_6 
REMARK    3  A    between atoms: C_10  and  N_11 
REMARK    4  A    between atoms: C_14  and  C_15 
ROOT
HETATM    1  C   UNL     1      20.700  49.486  48.741  1.00  0.00     0.164 C 
HETATM    2  N   UNL     1      20.184  48.165  48.398  1.00  0.00    -0.074 N 
HETATM    3  C   UNL     1      19.164  47.541  49.066  1.00  0.00     0.736 A 
HETATM    4  N   UNL     1      18.866  46.428  48.449  1.00  0.00     0.131 NA
HETATM    5  C   UNL     1      19.695  46.448  47.366  1.00  0.00     0.753 A 
HETATM    6  N   UNL     1      20.501  47.501  47.272  1.00  0.00     0.037 NA
HETATM    7  N   UNL     1      18.577  48.108  50.142  1.00  0.00    -0.214 N 
HETATM    8  C   UNL     1      18.750  49.537  50.387  1.00  0.00     0.135 C 
HETATM    9  C   UNL     1      20.226  49.910  50.147  1.00  0.00     0.063 C 
HETATM   10  H   UNL     1      17.684  47.715  50.430  1.00  0.00     0.178 HD
ENDROOT
BRANCH   1  11
HETATM   11  C   UNL     1      22.217  49.553  48.647  1.00  0.00    -0.030 A 
HETATM   12  C   UNL     1      23.039  48.759  49.468  1.00  0.00     0.046 A 
HETATM   13  C   UNL     1      24.432  48.810  49.365  1.00  0.00     0.068 A 
HETATM   14  C   UNL     1      25.021  49.692  48.460  1.00  0.00     0.037 A 
HETATM   15  C   UNL     1      24.219  50.499  47.650  1.00  0.00     0.003 A 
HETATM   16  C   UNL     1      22.828  50.429  47.739  1.00  0.00     0.009 A 
BRANCH  13  17
HETATM   17  O   UNL     1      25.104  47.973  50.212  1.00  0.00    -0.356 OA
HETATM   18  C   UNL     1      24.775  46.592  50.112  1.00  0.00     0.210 C 
ENDBRANCH  13  17
ENDBRANCH   1  11
BRANCH   8  19
HETATM   19  C   UNL     1      17.767  50.414  49.617  1.00  0.00    -0.035 A 
HETATM   20  C   UNL     1      16.813  49.904  48.719  1.00  0.00     0.010 A 
HETATM   21  C   UNL     1      15.932  50.752  48.040  1.00  0.00     0.019 A 
HETATM   22  C   UNL     1      15.991  52.125  48.250  1.00  0.00     0.011 A 
HETATM   23 BR   UNL     1      14.801  53.271  47.332  1.00  0.00    -0.051 Br
HETATM   24  C   UNL     1      16.921  52.658  49.138  1.00  0.00     0.019 A 
HETATM   25  C   UNL     1      17.799  51.808  49.818  1.00  0.00     0.010 A 
ENDBRANCH   8  19
BRANCH   5  26
HETATM   26  N   UNL     1      19.643  45.436  46.505  1.00  0.00    -0.229 N 
HETATM   27  H   UNL     1      20.467  44.853  46.450  1.00  0.00     0.174 HD
HETATM   28  H   UNL     1      19.203  45.630  45.616  1.00  0.00     0.174 HD
ENDBRANCH   5  26
TORSDOF 4
ENDMDL
MODEL 6
REMARK VINA RESULT:      -7.4     17.381     19.222
REMARK  4 active torsions:
REMARK  status: ('A' for Active; 'I' for Inactive)
REMARK    1  A    between atoms: O_2  and  C_3 
REMARK    2  A    between atoms: C_5  and  C_6 
REMARK    3  A    between atoms: C_10  and  N_11 
REMARK    4  A    between atoms: C_14  and  C_15 
ROOT
HETATM    1  C   UNL     1      38.776  42.597  64.365  1.00  0.00     0.164 C 
HETATM    2  N   UNL     1      39.862  43.538  64.113  1.00  0.00    -0.074 N 
HETATM    3  C   UNL     1      39.703  44.746  63.488  1.00  0.00     0.736 A 
HETATM    4  N   UNL     1      40.838  45.394  63.516  1.00  0.00     0.131 NA
HETATM    5  C   UNL     1      41.649  44.562  64.229  1.00  0.00     0.753 A 
HETATM    6  N   UNL     1      41.094  43.426  64.642  1.00  0.00     0.037 NA
HETATM    7  N   UNL     1      38.501  45.142  63.016  1.00  0.00    -0.214 N 
HETATM    8  C   UNL     1      37.290  44.477  63.487  1.00  0.00     0.135 C 
HETATM    9  C   UNL     1      37.535  42.956  63.521  1.00  0.00     0.063 C 
HETATM   10  H   UNL     1      38.406  46.130  62.794  1.00  0.00     0.178 HD
ENDROOT
BRANCH   1  11
HETATM   11  C   UNL     1      39.193  41.155  64.115  1.00  0.00    -0.030 A 
HETATM   12  C   UNL     1      39.506  40.288  65.177  1.00  0.00     0.046 A 
HETATM   13  C   UNL     1      39.869  38.959  64.944  1.00  0.00     0.068 A 
HETATM   14  C   UNL     1      39.964  38.493  63.634  1.00  0.00     0.037 A 
HETATM   15  C   UNL     1      39.673  39.347  62.567  1.00  0.00     0.003 A 
HETATM   16  C   UNL     1      39.287  40.667  62.804  1.00  0.00     0.009 A 
BRANCH  13  17
HETATM   17  O   UNL     1      40.130  38.226  66.069  1.00  0.00    -0.356 OA
HETATM   18  C   UNL     1      40.853  38.897  67.094  1.00  0.00     0.210 C 
ENDBRANCH  13  17
ENDBRANCH   1  11
BRANCH   8  19
HETATM   19  C   UNL     1      36.754  45.036  64.802  1.00  0.00    -0.035 A 
HETATM   20  C   UNL     1      36.074  44.257  65.755  1.00  0.00     0.010 A 
HETATM   21  C   UNL     1      35.604  44.818  66.947  1.00  0.00     0.019 A 
HETATM   22  C   UNL     1      35.811  46.169  67.205  1.00  0.00     0.011 A 
HETATM   23 BR   UNL     1      35.176  46.927  68.816  1.00  0.00    -0.051 Br
HETATM   24  C   UNL     1      36.487  46.963  66.284  1.00  0.00     0.019 A 
HETATM   25  C   UNL     1      36.957  46.399  65.094  1.00  0.00     0.010 A 
ENDBRANCH   8  19
BRANCH   5  26
HETATM   26  N   UNL     1      42.906  44.932  64.451  1.00  0.00    -0.229 N 
HETATM   27  H   UNL     1      43.571  44.719  63.719  1.00  0.00     0.174 HD
HETATM   28  H   UNL     1      43.252  44.792  65.390  1.00  0.00     0.174 HD
ENDBRANCH   5  26
TORSDOF 4
ENDMDL
MODEL 7
REMARK VINA RESULT:      -7.4     17.239     19.367
REMARK  4 active torsions:
REMARK  status: ('A' for Active; 'I' for Inactive)
REMARK    1  A    between atoms: O_2  and  C_3 
REMARK    2  A    between atoms: C_5  and  C_6 
REMARK    3  A    between atoms: C_10  and  N_11 
REMARK    4  A    between atoms: C_14  and  C_15 
ROOT
HETATM    1  C   UNL     1      37.891  45.053  65.014  1.00  0.00     0.164 C 
HETATM    2  N   UNL     1      36.932  44.719  66.062  1.00  0.00    -0.074 N 
HETATM    3  C   UNL     1      35.881  43.858  65.895  1.00  0.00     0.736 A 
HETATM    4  N   UNL     1      35.281  43.687  67.044  1.00  0.00     0.131 NA
HETATM    5  C   UNL     1      36.047  44.421  67.901  1.00  0.00     0.753 A 
HETATM    6  N   UNL     1      37.086  45.049  67.357  1.00  0.00     0.037 NA
HETATM    7  N   UNL     1      35.632  43.273  64.703  1.00  0.00    -0.214 N 
HETATM    8  C   UNL     1      36.677  43.245  63.684  1.00  0.00     0.135 C 
HETATM    9  C   UNL     1      37.360  44.626  63.630  1.00  0.00     0.063 C 
HETATM   10  H   UNL     1      35.003  42.473  64.714  1.00  0.00     0.178 HD
ENDROOT
BRANCH   1  11
HETATM   11  C   UNL     1      38.251  46.532  65.014  1.00  0.00    -0.030 A 
HETATM   12  C   UNL     1      39.509  46.980  65.457  1.00  0.00     0.046 A 
HETATM   13  C   UNL     1      39.843  48.337  65.437  1.00  0.00     0.068 A 
HETATM   14  C   UNL     1      38.900  49.269  65.009  1.00  0.00     0.037 A 
HETATM   15  C   UNL     1      37.640  48.842  64.582  1.00  0.00     0.003 A 
HETATM   16  C   UNL     1      37.318  47.484  64.581  1.00  0.00     0.009 A 
BRANCH  13  17
HETATM   17  O   UNL     1      41.104  48.627  65.880  1.00  0.00    -0.356 OA
HETATM   18  C   UNL     1      41.542  47.905  67.025  1.00  0.00     0.210 C 
ENDBRANCH  13  17
ENDBRANCH   1  11
BRANCH   8  19
HETATM   19  C   UNL     1      37.658  42.087  63.842  1.00  0.00    -0.035 A 
HETATM   20  C   UNL     1      37.599  41.162  64.900  1.00  0.00     0.010 A 
HETATM   21  C   UNL     1      38.522  40.115  64.998  1.00  0.00     0.019 A 
HETATM   22  C   UNL     1      39.516  39.975  64.035  1.00  0.00     0.011 A 
HETATM   23 BR   UNL     1      40.762  38.561  64.168  1.00  0.00    -0.051 Br
HETATM   24  C   UNL     1      39.594  40.871  62.974  1.00  0.00     0.019 A 
HETATM   25  C   UNL     1      38.669  41.916  62.877  1.00  0.00     0.010 A 
ENDBRANCH   8  19
BRANCH   5  26
HETATM   26  N   UNL     1      35.708  44.459  69.186  1.00  0.00    -0.229 N 
HETATM   27  H   UNL     1      36.240  45.090  69.770  1.00  0.00     0.174 HD
HETATM   28  H   UNL     1      35.488  43.571  69.615  1.00  0.00     0.174 HD
ENDBRANCH   5  26
TORSDOF 4
ENDMDL
MODEL 8
REMARK VINA RESULT:      -7.3     11.576     12.873
REMARK  4 active torsions:
REMARK  status: ('A' for Active; 'I' for Inactive)
REMARK    1  A    between atoms: O_2  and  C_3 
REMARK    2  A    between atoms: C_5  and  C_6 
REMARK    3  A    between atoms: C_10  and  N_11 
REMARK    4  A    between atoms: C_14  and  C_15 
ROOT
HETATM    1  C   UNL     1      30.579  48.974  40.854  1.00  0.00     0.164 C 
HETATM    2  N   UNL     1      30.162  50.226  40.231  1.00  0.00    -0.074 N 
HETATM    3  C   UNL     1      30.186  51.442  40.861  1.00  0.00     0.736 A 
HETATM    4  N   UNL     1      29.859  52.373  40.003  1.00  0.00     0.131 NA
HETATM    5  C   UNL     1      29.704  51.678  38.840  1.00  0.00     0.753 A 
HETATM    6  N   UNL     1      29.905  50.366  38.918  1.00  0.00     0.037 NA
HETATM    7  N   UNL     1      30.574  51.562  42.148  1.00  0.00    -0.214 N 
HETATM    8  C   UNL     1      31.324  50.478  42.776  1.00  0.00     0.135 C 
HETATM    9  C   UNL     1      30.682  49.133  42.385  1.00  0.00     0.063 C 
HETATM   10  H   UNL     1      30.801  52.500  42.467  1.00  0.00     0.178 HD
ENDROOT
BRANCH   1  11
HETATM   11  C   UNL     1      29.656  47.818  40.498  1.00  0.00    -0.030 A 
HETATM   12  C   UNL     1      30.132  46.681  39.820  1.00  0.00     0.046 A 
HETATM   13  C   UNL     1      29.285  45.613  39.513  1.00  0.00     0.068 A 
HETATM   14  C   UNL     1      27.934  45.691  39.846  1.00  0.00     0.037 A 
HETATM   15  C   UNL     1      27.442  46.821  40.504  1.00  0.00     0.003 A 
HETATM   16  C   UNL     1      28.296  47.875  40.831  1.00  0.00     0.009 A 
BRANCH  13  17
HETATM   17  O   UNL     1      29.886  44.567  38.868  1.00  0.00    -0.356 OA
HETATM   18  C   UNL     1      29.345  44.229  37.596  1.00  0.00     0.210 C 
ENDBRANCH  13  17
ENDBRANCH   1  11
BRANCH   8  19
HETATM   19  C   UNL     1      32.826  50.537  42.510  1.00  0.00    -0.035 A 
HETATM   20  C   UNL     1      33.483  49.694  41.595  1.00  0.00     0.010 A 
HETATM   21  C   UNL     1      34.862  49.790  41.385  1.00  0.00     0.019 A 
HETATM   22  C   UNL     1      35.606  50.734  42.086  1.00  0.00     0.011 A 
HETATM   23 BR   UNL     1      37.470  50.863  41.803  1.00  0.00    -0.051 Br
HETATM   24  C   UNL     1      34.981  51.585  42.992  1.00  0.00     0.019 A 
HETATM   25  C   UNL     1      33.602  51.488  43.199  1.00  0.00     0.010 A 
ENDBRANCH   8  19
BRANCH   5  26
HETATM   26  N   UNL     1      29.366  52.343  37.740  1.00  0.00    -0.229 N 
HETATM   27  H   UNL     1      30.123  52.586  37.114  1.00  0.00     0.174 HD
HETATM   28  H   UNL     1      28.663  53.060  37.851  1.00  0.00     0.174 HD
ENDBRANCH   5  26
TORSDOF 4
ENDMDL
MODEL 9
REMARK VINA RESULT:      -7.3     17.589     19.189
REMARK  4 active torsions:
REMARK  status: ('A' for Active; 'I' for Inactive)
REMARK    1  A    between atoms: O_2  and  C_3 
REMARK    2  A    between atoms: C_5  and  C_6 
REMARK    3  A    between atoms: C_10  and  N_11 
REMARK    4  A    between atoms: C_14  and  C_15 
ROOT
HETATM    1  C   UNL     1      37.967  46.504  65.231  1.00  0.00     0.164 C 
HETATM    2  N   UNL     1      39.411  46.698  65.159  1.00  0.00    -0.074 N 
HETATM    3  C   UNL     1      40.010  47.840  64.697  1.00  0.00     0.736 A 
HETATM    4  N   UNL     1      41.303  47.742  64.864  1.00  0.00     0.131 NA
HETATM    5  C   UNL     1      41.440  46.541  65.495  1.00  0.00     0.753 A 
HETATM    6  N   UNL     1      40.312  45.874  65.724  1.00  0.00     0.037 NA
HETATM    7  N   UNL     1      39.283  48.877  64.228  1.00  0.00    -0.214 N 
HETATM    8  C   UNL     1      37.861  48.960  64.548  1.00  0.00     0.135 C 
HETATM    9  C   UNL     1      37.229  47.564  64.387  1.00  0.00     0.063 C 
HETATM   10  H   UNL     1      39.769  49.766  64.137  1.00  0.00     0.178 HD
ENDROOT
BRANCH   1  11
HETATM   11  C   UNL     1      37.553  45.102  64.808  1.00  0.00    -0.030 A 
HETATM   12  C   UNL     1      36.753  44.292  65.634  1.00  0.00     0.046 A 
HETATM   13  C   UNL     1      36.359  43.013  65.234  1.00  0.00     0.068 A 
HETATM   14  C   UNL     1      36.799  42.511  64.010  1.00  0.00     0.037 A 
HETATM   15  C   UNL     1      37.609  43.296  63.185  1.00  0.00     0.003 A 
HETATM   16  C   UNL     1      37.981  44.583  63.578  1.00  0.00     0.009 A 
BRANCH  13  17
HETATM   17  O   UNL     1      35.568  42.345  66.128  1.00  0.00    -0.356 OA
HETATM   18  C   UNL     1      34.393  41.749  65.593  1.00  0.00     0.210 C 
ENDBRANCH  13  17
ENDBRANCH   1  11
BRANCH   8  19
HETATM   19  C   UNL     1      37.573  49.606  65.901  1.00  0.00    -0.035 A 
HETATM   20  C   UNL     1      37.022  48.908  66.990  1.00  0.00     0.010 A 
HETATM   21  C   UNL     1      36.779  49.547  68.211  1.00  0.00     0.019 A 
HETATM   22  C   UNL     1      37.088  50.895  68.361  1.00  0.00     0.011 A 
HETATM   23 BR   UNL     1      36.761  51.758  70.010  1.00  0.00    -0.051 Br
HETATM   24  C   UNL     1      37.641  51.608  67.302  1.00  0.00     0.019 A 
HETATM   25  C   UNL     1      37.885  50.967  66.083  1.00  0.00     0.010 A 
ENDBRANCH   8  19
BRANCH   5  26
HETATM   26  N   UNL     1      42.660  46.128  65.823  1.00  0.00    -0.229 N 
HETATM   27  H   UNL     1      43.104  46.611  66.592  1.00  0.00     0.174 HD
HETATM   28  H   UNL     1      43.276  45.904  65.053  1.00  0.00     0.174 HD
ENDBRANCH   5  26
TORSDOF 4
ENDMDL
MODEL 10
REMARK VINA RESULT:      -7.3      4.139      6.831
REMARK  4 active torsions:
REMARK  status: ('A' for Active; 'I' for Inactive)
REMARK    1  A    between atoms: O_2  and  C_3 
REMARK    2  A    between atoms: C_5  and  C_6 
REMARK    3  A    between atoms: C_10  and  N_11 
REMARK    4  A    between atoms: C_14  and  C_15 
ROOT
HETATM    1  C   UNL     1      26.656  43.390  50.830  1.00  0.00     0.164 C 
HETATM    2  N   UNL     1      27.679  42.798  51.685  1.00  0.00    -0.074 N 
HETATM    3  C   UNL     1      27.696  41.482  52.064  1.00  0.00     0.736 A 
HETATM    4  N   UNL     1      28.794  41.244  52.732  1.00  0.00     0.131 NA
HETATM    5  C   UNL     1      29.449  42.439  52.681  1.00  0.00     0.753 A 
HETATM    6  N   UNL     1      28.824  43.415  52.029  1.00  0.00     0.037 NA
HETATM    7  N   UNL     1      26.719  40.629  51.690  1.00  0.00    -0.214 N 
HETATM    8  C   UNL     1      25.838  40.986  50.581  1.00  0.00     0.135 C 
HETATM    9  C   UNL     1      25.427  42.464  50.726  1.00  0.00     0.063 C 
HETATM   10  H   UNL     1      26.920  39.637  51.793  1.00  0.00     0.178 HD
ENDROOT
BRANCH   1  11
HETATM   11  C   UNL     1      26.242  44.776  51.303  1.00  0.00    -0.030 A 
HETATM   12  C   UNL     1      26.118  45.077  52.672  1.00  0.00     0.046 A 
HETATM   13  C   UNL     1      25.756  46.356  53.102  1.00  0.00     0.068 A 
HETATM   14  C   UNL     1      25.473  47.343  52.159  1.00  0.00     0.037 A 
HETATM   15  C   UNL     1      25.575  47.055  50.796  1.00  0.00     0.003 A 
HETATM   16  C   UNL     1      25.960  45.783  50.370  1.00  0.00     0.009 A 
BRANCH  13  17
HETATM   17  O   UNL     1      25.690  46.512  54.459  1.00  0.00    -0.356 OA
HETATM   18  C   UNL     1      26.260  47.709  54.975  1.00  0.00     0.210 C 
ENDBRANCH  13  17
ENDBRANCH   1  11
BRANCH   8  19
HETATM   19  C   UNL     1      26.410  40.645  49.208  1.00  0.00    -0.035 A 
HETATM   20  C   UNL     1      27.628  39.967  49.024  1.00  0.00     0.010 A 
HETATM   21  C   UNL     1      28.108  39.675  47.743  1.00  0.00     0.019 A 
HETATM   22  C   UNL     1      27.373  40.055  46.625  1.00  0.00     0.011 A 
HETATM   23 BR   UNL     1      28.021  39.661  44.894  1.00  0.00    -0.051 Br
HETATM   24  C   UNL     1      26.161  40.720  46.777  1.00  0.00     0.019 A 
HETATM   25  C   UNL     1      25.683  41.009  48.059  1.00  0.00     0.010 A 
ENDBRANCH   8  19
BRANCH   5  26
HETATM   26  N   UNL     1      30.633  42.543  53.275  1.00  0.00    -0.229 N 
HETATM   27  H   UNL     1      30.767  41.985  54.108  1.00  0.00     0.174 HD
HETATM   28  H   UNL     1      31.028  43.473  53.322  1.00  0.00     0.174 HD
ENDBRANCH   5  26
TORSDOF 4
ENDMDL
