MODEL 1
REMARK VINA RESULT:      -9.0      0.000      0.000
REMARK  6 active torsions:
REMARK  status: ('A' for Active; 'I' for Inactive)
REMARK    1  A    between atoms: C_2  and  O_3 
REMARK    2  A    between atoms: O_3  and  C_4 
REMARK    3  A    between atoms: C_9  and  S_10 
REMARK    4  A    between atoms: S_10  and  C_11 
REMARK    5  A    between atoms: C_11  and  C_12 
REMARK       I    between atoms: C_12  and  N_13 
REMARK    6  A    between atoms: N_13  and  C_14 
ROOT
HETATM    1  C   UNL     1      30.561  44.170  55.602  1.00  0.00     0.069 A 
HETATM    2  C   UNL     1      29.739  45.296  55.610  1.00  0.00     0.050 A 
HETATM    3  C   UNL     1      28.555  45.320  54.846  1.00  0.00    -0.004 A 
HETATM    4  C   UNL     1      28.177  44.204  54.080  1.00  0.00     0.068 A 
HETATM    5  N   UNL     1      27.068  44.190  53.325  1.00  0.00    -0.241 NA
HETATM    6  C   UNL     1      26.311  45.310  53.250  1.00  0.00     0.100 A 
HETATM    7  C   UNL     1      26.580  46.458  53.995  1.00  0.00    -0.026 A 
HETATM    8  C   UNL     1      25.714  47.682  53.949  1.00  0.00     0.051 C 
HETATM    9  C   UNL     1      27.721  46.445  54.806  1.00  0.00     0.023 A 
HETATM   10  C   UNL     1      28.994  43.083  54.108  1.00  0.00     0.035 A 
HETATM   11  C   UNL     1      30.174  43.059  54.858  1.00  0.00     0.039 A 
ENDROOT
BRANCH   6  12
HETATM   12  S   UNL     1      24.971  45.229  52.078  1.00  0.00    -0.096 SA
BRANCH  12  13
HETATM   13  C   UNL     1      25.793  45.756  50.524  1.00  0.00     0.142 C 
HETATM   14  C   UNL     1      25.705  44.741  49.392  1.00  0.00     0.031 C 
BRANCH  13  15
HETATM   15  C   UNL     1      25.395  47.189  50.152  1.00  0.00     0.236 C 
HETATM   16  N   UNL     1      24.198  47.302  49.465  1.00  0.00    -0.326 N 
HETATM   17  H   UNL     1      23.653  46.452  49.356  1.00  0.00     0.169 HD
HETATM   18  O   UNL     1      26.107  48.128  50.501  1.00  0.00    -0.272 OA
BRANCH  16  19
HETATM   19  C   UNL     1      23.582  48.484  49.004  1.00  0.00     0.034 A 
HETATM   20  C   UNL     1      24.263  49.530  48.378  1.00  0.00     0.029 A 
HETATM   21  C   UNL     1      23.576  50.669  47.948  1.00  0.00     0.002 A 
HETATM   22  C   UNL     1      22.201  50.772  48.136  1.00  0.00     0.000 A 
HETATM   23  C   UNL     1      21.510  49.733  48.756  1.00  0.00     0.002 A 
HETATM   24  C   UNL     1      22.197  48.596  49.187  1.00  0.00     0.029 A 
ENDBRANCH  16  19
ENDBRANCH  13  15
ENDBRANCH  12  13
ENDBRANCH   6  12
BRANCH   1  25
HETATM   25  O   UNL     1      31.744  44.031  56.270  1.00  0.00    -0.351 OA
BRANCH  25  26
HETATM   26  C   UNL     1      31.672  43.680  57.651  1.00  0.00     0.171 C 
HETATM   27  C   UNL     1      31.153  44.885  58.414  1.00  0.00     0.034 C 
ENDBRANCH  25  26
ENDBRANCH   1  25
TORSDOF 6
ENDMDL
MODEL 2
REMARK VINA RESULT:      -8.9      2.177      3.863
REMARK  6 active torsions:
REMARK  status: ('A' for Active; 'I' for Inactive)
REMARK    1  A    between atoms: C_2  and  O_3 
REMARK    2  A    between atoms: O_3  and  C_4 
REMARK    3  A    between atoms: C_9  and  S_10 
REMARK    4  A    between atoms: S_10  and  C_11 
REMARK    5  A    between atoms: C_11  and  C_12 
REMARK       I    between atoms: C_12  and  N_13 
REMARK    6  A    between atoms: N_13  and  C_14 
ROOT
HETATM    1  C   UNL     1      27.498  45.858  54.916  1.00  0.00     0.069 A 
HETATM    2  C   UNL     1      27.375  45.076  53.768  1.00  0.00     0.050 A 
HETATM    3  C   UNL     1      26.591  45.519  52.684  1.00  0.00    -0.004 A 
HETATM    4  C   UNL     1      25.935  46.762  52.738  1.00  0.00     0.068 A 
HETATM    5  N   UNL     1      25.165  47.214  51.736  1.00  0.00    -0.241 NA
HETATM    6  C   UNL     1      24.962  46.424  50.655  1.00  0.00     0.100 A 
HETATM    7  C   UNL     1      25.591  45.190  50.490  1.00  0.00    -0.026 A 
HETATM    8  C   UNL     1      25.405  44.337  49.271  1.00  0.00     0.051 C 
HETATM    9  C   UNL     1      26.421  44.748  51.527  1.00  0.00     0.023 A 
HETATM   10  C   UNL     1      26.093  47.536  53.877  1.00  0.00     0.035 A 
HETATM   11  C   UNL     1      26.863  47.096  54.957  1.00  0.00     0.039 A 
ENDROOT
BRANCH   6  12
HETATM   12  S   UNL     1      23.779  47.053  49.481  1.00  0.00    -0.096 SA
BRANCH  12  13
HETATM   13  C   UNL     1      24.323  48.795  49.290  1.00  0.00     0.142 C 
HETATM   14  C   UNL     1      25.783  48.957  48.887  1.00  0.00     0.031 C 
BRANCH  13  15
HETATM   15  C   UNL     1      23.319  49.593  48.449  1.00  0.00     0.236 C 
HETATM   16  N   UNL     1      22.038  49.651  48.969  1.00  0.00    -0.326 N 
HETATM   17  H   UNL     1      21.902  49.249  49.892  1.00  0.00     0.169 HD
HETATM   18  O   UNL     1      23.696  50.150  47.419  1.00  0.00    -0.272 OA
BRANCH  16  19
HETATM   19  C   UNL     1      20.919  50.313  48.423  1.00  0.00     0.034 A 
HETATM   20  C   UNL     1      20.219  49.870  47.298  1.00  0.00     0.029 A 
HETATM   21  C   UNL     1      19.117  50.585  46.820  1.00  0.00     0.002 A 
HETATM   22  C   UNL     1      18.701  51.747  47.464  1.00  0.00     0.000 A 
HETATM   23  C   UNL     1      19.389  52.196  48.588  1.00  0.00     0.002 A 
HETATM   24  C   UNL     1      20.492  51.483  49.065  1.00  0.00     0.029 A 
ENDBRANCH  16  19
ENDBRANCH  13  15
ENDBRANCH  12  13
ENDBRANCH   6  12
BRANCH   1  25
HETATM   25  O   UNL     1      28.198  45.532  56.042  1.00  0.00    -0.351 OA
BRANCH  25  26
HETATM   26  C   UNL     1      29.579  45.893  56.074  1.00  0.00     0.171 C 
HETATM   27  C   UNL     1      30.010  45.965  57.528  1.00  0.00     0.034 C 
ENDBRANCH  25  26
ENDBRANCH   1  25
TORSDOF 6
ENDMDL
MODEL 3
REMARK VINA RESULT:      -8.8      1.513      2.702
REMARK  6 active torsions:
REMARK  status: ('A' for Active; 'I' for Inactive)
REMARK    1  A    between atoms: C_2  and  O_3 
REMARK    2  A    between atoms: O_3  and  C_4 
REMARK    3  A    between atoms: C_9  and  S_10 
REMARK    4  A    between atoms: S_10  and  C_11 
REMARK    5  A    between atoms: C_11  and  C_12 
REMARK       I    between atoms: C_12  and  N_13 
REMARK    6  A    between atoms: N_13  and  C_14 
ROOT
HETATM    1  C   UNL     1      29.272  43.877  54.790  1.00  0.00     0.069 A 
HETATM    2  C   UNL     1      28.958  43.417  53.512  1.00  0.00     0.050 A 
HETATM    3  C   UNL     1      27.999  44.090  52.729  1.00  0.00    -0.004 A 
HETATM    4  C   UNL     1      27.359  45.242  53.217  1.00  0.00     0.068 A 
HETATM    5  N   UNL     1      26.428  45.903  52.512  1.00  0.00    -0.241 NA
HETATM    6  C   UNL     1      26.045  45.414  51.309  1.00  0.00     0.100 A 
HETATM    7  C   UNL     1      26.640  44.298  50.721  1.00  0.00    -0.026 A 
HETATM    8  C   UNL     1      26.250  43.784  49.367  1.00  0.00     0.051 C 
HETATM    9  C   UNL     1      27.636  43.640  51.453  1.00  0.00     0.023 A 
HETATM   10  C   UNL     1      27.707  45.699  54.480  1.00  0.00     0.035 A 
HETATM   11  C   UNL     1      28.651  45.029  55.263  1.00  0.00     0.039 A 
ENDROOT
BRANCH   6  12
HETATM   12  S   UNL     1      24.678  46.271  50.554  1.00  0.00    -0.096 SA
BRANCH  12  13
HETATM   13  C   UNL     1      25.443  47.872  50.087  1.00  0.00     0.142 C 
HETATM   14  C   UNL     1      26.859  47.754  49.538  1.00  0.00     0.031 C 
BRANCH  13  15
HETATM   15  C   UNL     1      24.480  48.713  49.241  1.00  0.00     0.236 C 
HETATM   16  N   UNL     1      23.168  48.716  49.680  1.00  0.00    -0.326 N 
HETATM   17  H   UNL     1      22.981  48.247  50.561  1.00  0.00     0.169 HD
HETATM   18  O   UNL     1      24.911  49.348  48.280  1.00  0.00    -0.272 OA
BRANCH  16  19
HETATM   19  C   UNL     1      22.073  49.398  49.110  1.00  0.00     0.034 A 
HETATM   20  C   UNL     1      21.745  50.726  49.392  1.00  0.00     0.029 A 
HETATM   21  C   UNL     1      20.641  51.331  48.782  1.00  0.00     0.002 A 
HETATM   22  C   UNL     1      19.858  50.615  47.882  1.00  0.00     0.000 A 
HETATM   23  C   UNL     1      20.177  49.291  47.590  1.00  0.00     0.002 A 
HETATM   24  C   UNL     1      21.279  48.686  48.201  1.00  0.00     0.029 A 
ENDBRANCH  16  19
ENDBRANCH  13  15
ENDBRANCH  12  13
ENDBRANCH   6  12
BRANCH   1  25
HETATM   25  O   UNL     1      30.156  43.302  55.659  1.00  0.00    -0.351 OA
BRANCH  25  26
HETATM   26  C   UNL     1      30.934  44.182  56.470  1.00  0.00     0.171 C 
HETATM   27  C   UNL     1      31.987  43.353  57.183  1.00  0.00     0.034 C 
ENDBRANCH  25  26
ENDBRANCH   1  25
TORSDOF 6
ENDMDL
MODEL 4
REMARK VINA RESULT:      -8.7      2.035      9.694
REMARK  6 active torsions:
REMARK  status: ('A' for Active; 'I' for Inactive)
REMARK    1  A    between atoms: C_2  and  O_3 
REMARK    2  A    between atoms: O_3  and  C_4 
REMARK    3  A    between atoms: C_9  and  S_10 
REMARK    4  A    between atoms: S_10  and  C_11 
REMARK    5  A    between atoms: C_11  and  C_12 
REMARK       I    between atoms: C_12  and  N_13 
REMARK    6  A    between atoms: N_13  and  C_14 
ROOT
HETATM    1  C   UNL     1      21.782  50.660  48.626  1.00  0.00     0.069 A 
HETATM    2  C   UNL     1      23.170  50.769  48.560  1.00  0.00     0.050 A 
HETATM    3  C   UNL     1      23.986  49.651  48.823  1.00  0.00    -0.004 A 
HETATM    4  C   UNL     1      23.413  48.407  49.140  1.00  0.00     0.068 A 
HETATM    5  N   UNL     1      24.153  47.322  49.416  1.00  0.00    -0.241 NA
HETATM    6  C   UNL     1      25.502  47.438  49.446  1.00  0.00     0.100 A 
HETATM    7  C   UNL     1      26.169  48.617  49.116  1.00  0.00    -0.026 A 
HETATM    8  C   UNL     1      27.665  48.732  49.103  1.00  0.00     0.051 C 
HETATM    9  C   UNL     1      25.385  49.731  48.795  1.00  0.00     0.023 A 
HETATM   10  C   UNL     1      22.030  48.313  49.173  1.00  0.00     0.035 A 
HETATM   11  C   UNL     1      21.217  49.422  48.920  1.00  0.00     0.039 A 
ENDROOT
BRANCH   6  12
HETATM   12  S   UNL     1      26.364  45.980  50.001  1.00  0.00    -0.096 SA
BRANCH  12  13
HETATM   13  C   UNL     1      25.537  45.635  51.601  1.00  0.00     0.142 C 
HETATM   14  C   UNL     1      24.639  44.404  51.591  1.00  0.00     0.031 C 
BRANCH  13  15
HETATM   15  C   UNL     1      26.536  45.707  52.761  1.00  0.00     0.236 C 
HETATM   16  N   UNL     1      27.407  44.636  52.849  1.00  0.00    -0.326 N 
HETATM   17  H   UNL     1      27.372  43.957  52.095  1.00  0.00     0.169 HD
HETATM   18  O   UNL     1      26.540  46.690  53.501  1.00  0.00    -0.272 OA
BRANCH  16  19
HETATM   19  C   UNL     1      28.429  44.435  53.801  1.00  0.00     0.034 A 
HETATM   20  C   UNL     1      29.296  43.340  53.800  1.00  0.00     0.029 A 
HETATM   21  C   UNL     1      30.285  43.216  54.781  1.00  0.00     0.002 A 
HETATM   22  C   UNL     1      30.419  44.187  55.769  1.00  0.00     0.000 A 
HETATM   23  C   UNL     1      29.562  45.285  55.778  1.00  0.00     0.002 A 
HETATM   24  C   UNL     1      28.572  45.408  54.799  1.00  0.00     0.029 A 
ENDBRANCH  16  19
ENDBRANCH  13  15
ENDBRANCH  12  13
ENDBRANCH   6  12
BRANCH   1  25
HETATM   25  O   UNL     1      20.883  51.668  48.424  1.00  0.00    -0.351 OA
BRANCH  25  26
HETATM   26  C   UNL     1      19.558  51.464  48.913  1.00  0.00     0.171 C 
HETATM   27  C   UNL     1      18.636  52.424  48.183  1.00  0.00     0.034 C 
ENDBRANCH  25  26
ENDBRANCH   1  25
TORSDOF 6
ENDMDL
MODEL 5
REMARK VINA RESULT:      -8.6      1.413      2.375
REMARK  6 active torsions:
REMARK  status: ('A' for Active; 'I' for Inactive)
REMARK    1  A    between atoms: C_2  and  O_3 
REMARK    2  A    between atoms: O_3  and  C_4 
REMARK    3  A    between atoms: C_9  and  S_10 
REMARK    4  A    between atoms: S_10  and  C_11 
REMARK    5  A    between atoms: C_11  and  C_12 
REMARK       I    between atoms: C_12  and  N_13 
REMARK    6  A    between atoms: N_13  and  C_14 
ROOT
HETATM    1  C   UNL     1      29.396  44.675  55.112  1.00  0.00     0.069 A 
HETATM    2  C   UNL     1      29.070  43.738  54.132  1.00  0.00     0.050 A 
HETATM    3  C   UNL     1      27.917  43.909  53.338  1.00  0.00    -0.004 A 
HETATM    4  C   UNL     1      27.090  45.032  53.512  1.00  0.00     0.068 A 
HETATM    5  N   UNL     1      25.975  45.224  52.792  1.00  0.00    -0.241 NA
HETATM    6  C   UNL     1      25.596  44.276  51.902  1.00  0.00     0.100 A 
HETATM    7  C   UNL     1      26.362  43.143  51.631  1.00  0.00    -0.026 A 
HETATM    8  C   UNL     1      25.968  42.116  50.611  1.00  0.00     0.051 C 
HETATM    9  C   UNL     1      27.542  42.973  52.365  1.00  0.00     0.023 A 
HETATM   10  C   UNL     1      27.448  45.966  54.473  1.00  0.00     0.035 A 
HETATM   11  C   UNL     1      28.585  45.796  55.268  1.00  0.00     0.039 A 
ENDROOT
BRANCH   6  12
HETATM   12  S   UNL     1      24.009  44.555  51.141  1.00  0.00    -0.096 SA
BRANCH  12  13
HETATM   13  C   UNL     1      24.474  45.453  49.610  1.00  0.00     0.142 C 
HETATM   14  C   UNL     1      24.011  44.782  48.323  1.00  0.00     0.031 C 
BRANCH  13  15
HETATM   15  C   UNL     1      24.141  46.945  49.727  1.00  0.00     0.236 C 
HETATM   16  N   UNL     1      23.135  47.387  48.886  1.00  0.00    -0.326 N 
HETATM   17  H   UNL     1      22.650  46.677  48.345  1.00  0.00     0.169 HD
HETATM   18  O   UNL     1      24.732  47.637  50.555  1.00  0.00    -0.272 OA
BRANCH  16  19
HETATM   19  C   UNL     1      22.617  48.694  48.779  1.00  0.00     0.034 A 
HETATM   20  C   UNL     1      23.377  49.811  48.428  1.00  0.00     0.029 A 
HETATM   21  C   UNL     1      22.785  51.076  48.344  1.00  0.00     0.002 A 
HETATM   22  C   UNL     1      21.427  51.233  48.605  1.00  0.00     0.000 A 
HETATM   23  C   UNL     1      20.658  50.125  48.953  1.00  0.00     0.002 A 
HETATM   24  C   UNL     1      21.250  48.862  49.039  1.00  0.00     0.029 A 
ENDBRANCH  16  19
ENDBRANCH  13  15
ENDBRANCH  12  13
ENDBRANCH   6  12
BRANCH   1  25
HETATM   25  O   UNL     1      30.461  44.613  55.964  1.00  0.00    -0.351 OA
BRANCH  25  26
HETATM   26  C   UNL     1      31.110  43.348  56.100  1.00  0.00     0.171 C 
HETATM   27  C   UNL     1      31.968  43.395  57.352  1.00  0.00     0.034 C 
ENDBRANCH  25  26
ENDBRANCH   1  25
TORSDOF 6
ENDMDL
MODEL 6
REMARK VINA RESULT:      -8.5      3.724      6.759
REMARK  6 active torsions:
REMARK  status: ('A' for Active; 'I' for Inactive)
REMARK    1  A    between atoms: C_2  and  O_3 
REMARK    2  A    between atoms: O_3  and  C_4 
REMARK    3  A    between atoms: C_9  and  S_10 
REMARK    4  A    between atoms: S_10  and  C_11 
REMARK    5  A    between atoms: C_11  and  C_12 
REMARK       I    between atoms: C_12  and  N_13 
REMARK    6  A    between atoms: N_13  and  C_14 
ROOT
HETATM    1  C   UNL     1      30.018  44.251  55.440  1.00  0.00     0.069 A 
HETATM    2  C   UNL     1      28.859  44.952  55.112  1.00  0.00     0.050 A 
HETATM    3  C   UNL     1      28.190  44.696  53.898  1.00  0.00    -0.004 A 
HETATM    4  C   UNL     1      28.672  43.719  53.009  1.00  0.00     0.068 A 
HETATM    5  N   UNL     1      28.077  43.456  51.836  1.00  0.00    -0.241 NA
HETATM    6  C   UNL     1      27.005  44.195  51.463  1.00  0.00     0.100 A 
HETATM    7  C   UNL     1      26.430  45.164  52.284  1.00  0.00    -0.026 A 
HETATM    8  C   UNL     1      25.214  45.949  51.892  1.00  0.00     0.051 C 
HETATM    9  C   UNL     1      27.041  45.403  53.522  1.00  0.00     0.023 A 
HETATM   10  C   UNL     1      29.811  43.013  53.368  1.00  0.00     0.035 A 
HETATM   11  C   UNL     1      30.481  43.270  54.567  1.00  0.00     0.039 A 
ENDROOT
BRANCH   6  12
HETATM   12  S   UNL     1      26.417  43.877  49.811  1.00  0.00    -0.096 SA
BRANCH  12  13
HETATM   13  C   UNL     1      25.345  42.410  50.065  1.00  0.00     0.142 C 
HETATM   14  C   UNL     1      23.945  42.546  49.480  1.00  0.00     0.031 C 
BRANCH  13  15
HETATM   15  C   UNL     1      26.087  41.120  49.696  1.00  0.00     0.236 C 
HETATM   16  N   UNL     1      27.393  41.047  50.148  1.00  0.00    -0.326 N 
HETATM   17  H   UNL     1      27.707  41.799  50.755  1.00  0.00     0.169 HD
HETATM   18  O   UNL     1      25.497  40.235  49.078  1.00  0.00    -0.272 OA
BRANCH  16  19
HETATM   19  C   UNL     1      28.307  39.989  49.967  1.00  0.00     0.034 A 
HETATM   20  C   UNL     1      28.701  39.499  48.720  1.00  0.00     0.029 A 
HETATM   21  C   UNL     1      29.615  38.444  48.627  1.00  0.00     0.002 A 
HETATM   22  C   UNL     1      30.146  37.873  49.779  1.00  0.00     0.000 A 
HETATM   23  C   UNL     1      29.763  38.355  51.029  1.00  0.00     0.002 A 
HETATM   24  C   UNL     1      28.848  39.408  51.121  1.00  0.00     0.029 A 
ENDBRANCH  16  19
ENDBRANCH  13  15
ENDBRANCH  12  13
ENDBRANCH   6  12
BRANCH   1  25
HETATM   25  O   UNL     1      30.774  44.423  56.564  1.00  0.00    -0.351 OA
BRANCH  25  26
HETATM   26  C   UNL     1      30.633  45.663  57.257  1.00  0.00     0.171 C 
HETATM   27  C   UNL     1      30.062  45.368  58.632  1.00  0.00     0.034 C 
ENDBRANCH  25  26
ENDBRANCH   1  25
TORSDOF 6
ENDMDL
MODEL 7
REMARK VINA RESULT:      -8.5      2.691     10.103
REMARK  6 active torsions:
REMARK  status: ('A' for Active; 'I' for Inactive)
REMARK    1  A    between atoms: C_2  and  O_3 
REMARK    2  A    between atoms: O_3  and  C_4 
REMARK    3  A    between atoms: C_9  and  S_10 
REMARK    4  A    between atoms: S_10  and  C_11 
REMARK    5  A    between atoms: C_11  and  C_12 
REMARK       I    between atoms: C_12  and  N_13 
REMARK    6  A    between atoms: N_13  and  C_14 
ROOT
HETATM    1  C   UNL     1      19.637  50.685  48.387  1.00  0.00     0.069 A 
HETATM    2  C   UNL     1      20.932  51.024  48.000  1.00  0.00     0.050 A 
HETATM    3  C   UNL     1      22.016  50.183  48.322  1.00  0.00    -0.004 A 
HETATM    4  C   UNL     1      21.804  48.983  49.023  1.00  0.00     0.068 A 
HETATM    5  N   UNL     1      22.809  48.161  49.365  1.00  0.00    -0.241 NA
HETATM    6  C   UNL     1      24.082  48.525  49.078  1.00  0.00     0.100 A 
HETATM    7  C   UNL     1      24.396  49.678  48.360  1.00  0.00    -0.026 A 
HETATM    8  C   UNL     1      25.802  50.057  48.000  1.00  0.00     0.051 C 
HETATM    9  C   UNL     1      23.334  50.507  47.977  1.00  0.00     0.023 A 
HETATM   10  C   UNL     1      20.505  48.649  49.373  1.00  0.00     0.035 A 
HETATM   11  C   UNL     1      19.428  49.485  49.062  1.00  0.00     0.039 A 
ENDROOT
BRANCH   6  12
HETATM   12  S   UNL     1      25.335  47.447  49.743  1.00  0.00    -0.096 SA
BRANCH  12  13
HETATM   13  C   UNL     1      24.364  45.949  50.163  1.00  0.00     0.142 C 
HETATM   14  C   UNL     1      24.028  45.063  48.971  1.00  0.00     0.031 C 
BRANCH  13  15
HETATM   15  C   UNL     1      24.972  45.222  51.368  1.00  0.00     0.236 C 
HETATM   16  N   UNL     1      26.315  45.476  51.586  1.00  0.00    -0.326 N 
HETATM   17  H   UNL     1      26.746  46.183  50.998  1.00  0.00     0.169 HD
HETATM   18  O   UNL     1      24.258  44.511  52.074  1.00  0.00    -0.272 OA
BRANCH  16  19
HETATM   19  C   UNL     1      27.132  44.959  52.613  1.00  0.00     0.034 A 
HETATM   20  C   UNL     1      27.961  43.844  52.468  1.00  0.00     0.029 A 
HETATM   21  C   UNL     1      28.741  43.395  53.538  1.00  0.00     0.002 A 
HETATM   22  C   UNL     1      28.703  44.057  54.761  1.00  0.00     0.000 A 
HETATM   23  C   UNL     1      27.883  45.172  54.917  1.00  0.00     0.002 A 
HETATM   24  C   UNL     1      27.101  45.620  53.848  1.00  0.00     0.029 A 
ENDBRANCH  16  19
ENDBRANCH  13  15
ENDBRANCH  12  13
ENDBRANCH   6  12
BRANCH   1  25
HETATM   25  O   UNL     1      18.509  51.423  48.165  1.00  0.00    -0.351 OA
BRANCH  25  26
HETATM   26  C   UNL     1      18.334  52.595  48.961  1.00  0.00     0.171 C 
HETATM   27  C   UNL     1      17.103  52.393  49.826  1.00  0.00     0.034 C 
ENDBRANCH  25  26
ENDBRANCH   1  25
TORSDOF 6
ENDMDL
MODEL 8
REMARK VINA RESULT:      -8.2      2.526      5.193
REMARK  6 active torsions:
REMARK  status: ('A' for Active; 'I' for Inactive)
REMARK    1  A    between atoms: C_2  and  O_3 
REMARK    2  A    between atoms: O_3  and  C_4 
REMARK    3  A    between atoms: C_9  and  S_10 
REMARK    4  A    between atoms: S_10  and  C_11 
REMARK    5  A    between atoms: C_11  and  C_12 
REMARK       I    between atoms: C_12  and  N_13 
REMARK    6  A    between atoms: N_13  and  C_14 
ROOT
HETATM    1  C   UNL     1      30.088  43.565  55.171  1.00  0.00     0.069 A 
HETATM    2  C   UNL     1      29.345  44.745  55.169  1.00  0.00     0.050 A 
HETATM    3  C   UNL     1      28.166  44.843  54.404  1.00  0.00    -0.004 A 
HETATM    4  C   UNL     1      27.713  43.749  53.646  1.00  0.00     0.068 A 
HETATM    5  N   UNL     1      26.606  43.805  52.889  1.00  0.00    -0.241 NA
HETATM    6  C   UNL     1      25.927  44.974  52.805  1.00  0.00     0.100 A 
HETATM    7  C   UNL     1      26.273  46.106  53.541  1.00  0.00    -0.026 A 
HETATM    8  C   UNL     1      25.493  47.386  53.484  1.00  0.00     0.051 C 
HETATM    9  C   UNL     1      27.410  46.022  54.354  1.00  0.00     0.023 A 
HETATM   10  C   UNL     1      28.452  42.576  53.684  1.00  0.00     0.035 A 
HETATM   11  C   UNL     1      29.626  42.478  54.435  1.00  0.00     0.039 A 
ENDROOT
BRANCH   6  12
HETATM   12  S   UNL     1      24.586  44.975  51.632  1.00  0.00    -0.096 SA
BRANCH  12  13
HETATM   13  C   UNL     1      25.447  45.406  50.070  1.00  0.00     0.142 C 
HETATM   14  C   UNL     1      25.812  46.879  49.939  1.00  0.00     0.031 C 
BRANCH  13  15
HETATM   15  C   UNL     1      26.587  44.421  49.784  1.00  0.00     0.236 C 
HETATM   16  N   UNL     1      26.195  43.103  49.630  1.00  0.00    -0.326 N 
HETATM   17  H   UNL     1      25.195  42.923  49.624  1.00  0.00     0.169 HD
HETATM   18  O   UNL     1      27.738  44.839  49.672  1.00  0.00    -0.272 OA
BRANCH  16  19
HETATM   19  C   UNL     1      27.016  41.989  49.356  1.00  0.00     0.034 A 
HETATM   20  C   UNL     1      27.331  41.546  48.069  1.00  0.00     0.029 A 
HETATM   21  C   UNL     1      28.154  40.431  47.884  1.00  0.00     0.002 A 
HETATM   22  C   UNL     1      28.673  39.752  48.982  1.00  0.00     0.000 A 
HETATM   23  C   UNL     1      28.369  40.186  50.269  1.00  0.00     0.002 A 
HETATM   24  C   UNL     1      27.545  41.299  50.455  1.00  0.00     0.029 A 
ENDBRANCH  16  19
ENDBRANCH  13  15
ENDBRANCH  12  13
ENDBRANCH   6  12
BRANCH   1  25
HETATM   25  O   UNL     1      31.258  43.351  55.841  1.00  0.00    -0.351 OA
BRANCH  25  26
HETATM   26  C   UNL     1      31.728  44.405  56.681  1.00  0.00     0.171 C 
HETATM   27  C   UNL     1      30.998  44.306  58.009  1.00  0.00     0.034 C 
ENDBRANCH  25  26
ENDBRANCH   1  25
TORSDOF 6
ENDMDL
MODEL 9
REMARK VINA RESULT:      -7.9      2.222      3.608
REMARK  6 active torsions:
REMARK  status: ('A' for Active; 'I' for Inactive)
REMARK    1  A    between atoms: C_2  and  O_3 
REMARK    2  A    between atoms: O_3  and  C_4 
REMARK    3  A    between atoms: C_9  and  S_10 
REMARK    4  A    between atoms: S_10  and  C_11 
REMARK    5  A    between atoms: C_11  and  C_12 
REMARK       I    between atoms: C_12  and  N_13 
REMARK    6  A    between atoms: N_13  and  C_14 
ROOT
HETATM    1  C   UNL     1      28.054  44.819  54.128  1.00  0.00     0.069 A 
HETATM    2  C   UNL     1      27.801  43.793  53.219  1.00  0.00     0.050 A 
HETATM    3  C   UNL     1      26.687  43.861  52.358  1.00  0.00    -0.004 A 
HETATM    4  C   UNL     1      25.824  44.971  52.394  1.00  0.00     0.068 A 
HETATM    5  N   UNL     1      24.742  45.068  51.606  1.00  0.00    -0.241 NA
HETATM    6  C   UNL     1      24.434  44.037  50.784  1.00  0.00     0.100 A 
HETATM    7  C   UNL     1      25.240  42.907  50.651  1.00  0.00    -0.026 A 
HETATM    8  C   UNL     1      24.923  41.786  49.705  1.00  0.00     0.051 C 
HETATM    9  C   UNL     1      26.385  42.836  51.453  1.00  0.00     0.023 A 
HETATM   10  C   UNL     1      26.109  45.993  53.287  1.00  0.00     0.035 A 
HETATM   11  C   UNL     1      27.209  45.925  54.147  1.00  0.00     0.039 A 
ENDROOT
BRANCH   6  12
HETATM   12  S   UNL     1      22.881  44.204  49.926  1.00  0.00    -0.096 SA
BRANCH  12  13
HETATM   13  C   UNL     1      23.413  44.877  48.305  1.00  0.00     0.142 C 
HETATM   14  C   UNL     1      23.390  43.865  47.166  1.00  0.00     0.031 C 
BRANCH  13  15
HETATM   15  C   UNL     1      22.716  46.210  48.010  1.00  0.00     0.236 C 
HETATM   16  N   UNL     1      22.753  47.130  49.044  1.00  0.00    -0.326 N 
HETATM   17  H   UNL     1      23.312  46.882  49.855  1.00  0.00     0.169 HD
HETATM   18  O   UNL     1      22.214  46.403  46.903  1.00  0.00    -0.272 OA
BRANCH  16  19
HETATM   19  C   UNL     1      22.206  48.430  49.057  1.00  0.00     0.034 A 
HETATM   20  C   UNL     1      20.844  48.706  49.197  1.00  0.00     0.029 A 
HETATM   21  C   UNL     1      20.384  50.026  49.200  1.00  0.00     0.002 A 
HETATM   22  C   UNL     1      21.279  51.083  49.068  1.00  0.00     0.000 A 
HETATM   23  C   UNL     1      22.640  50.820  48.931  1.00  0.00     0.002 A 
HETATM   24  C   UNL     1      23.101  49.501  48.926  1.00  0.00     0.029 A 
ENDBRANCH  16  19
ENDBRANCH  13  15
ENDBRANCH  12  13
ENDBRANCH   6  12
BRANCH   1  25
HETATM   25  O   UNL     1      29.076  44.861  55.033  1.00  0.00    -0.351 OA
BRANCH  25  26
HETATM   26  C   UNL     1      30.010  43.781  55.008  1.00  0.00     0.171 C 
HETATM   27  C   UNL     1      30.983  43.977  56.156  1.00  0.00     0.034 C 
ENDBRANCH  25  26
ENDBRANCH   1  25
TORSDOF 6
ENDMDL
MODEL 10
REMARK VINA RESULT:      -7.8      6.479      9.098
REMARK  6 active torsions:
REMARK  status: ('A' for Active; 'I' for Inactive)
REMARK    1  A    between atoms: C_2  and  O_3 
REMARK    2  A    between atoms: O_3  and  C_4 
REMARK    3  A    between atoms: C_9  and  S_10 
REMARK    4  A    between atoms: S_10  and  C_11 
REMARK    5  A    between atoms: C_11  and  C_12 
REMARK       I    between atoms: C_12  and  N_13 
REMARK    6  A    between atoms: N_13  and  C_14 
ROOT
HETATM    1  C   UNL     1      24.425  49.733  48.601  1.00  0.00     0.069 A 
HETATM    2  C   UNL     1      23.496  50.764  48.471  1.00  0.00     0.050 A 
HETATM    3  C   UNL     1      22.122  50.514  48.662  1.00  0.00    -0.004 A 
HETATM    4  C   UNL     1      21.671  49.227  49.002  1.00  0.00     0.068 A 
HETATM    5  N   UNL     1      20.371  48.941  49.175  1.00  0.00    -0.241 NA
HETATM    6  C   UNL     1      19.451  49.911  48.960  1.00  0.00     0.100 A 
HETATM    7  C   UNL     1      19.795  51.227  48.652  1.00  0.00    -0.026 A 
HETATM    8  C   UNL     1      18.778  52.313  48.461  1.00  0.00     0.051 C 
HETATM    9  C   UNL     1      21.158  51.519  48.510  1.00  0.00     0.023 A 
HETATM   10  C   UNL     1      22.614  48.222  49.154  1.00  0.00     0.035 A 
HETATM   11  C   UNL     1      23.977  48.464  48.958  1.00  0.00     0.039 A 
ENDROOT
BRANCH   6  12
HETATM   12  S   UNL     1      17.757  49.365  49.042  1.00  0.00    -0.096 SA
BRANCH  12  13
HETATM   13  C   UNL     1      17.561  48.491  47.441  1.00  0.00     0.142 C 
HETATM   14  C   UNL     1      18.041  49.282  46.230  1.00  0.00     0.031 C 
BRANCH  13  15
HETATM   15  C   UNL     1      18.087  47.054  47.534  1.00  0.00     0.236 C 
HETATM   16  N   UNL     1      19.321  46.844  46.944  1.00  0.00    -0.326 N 
HETATM   17  H   UNL     1      19.804  47.666  46.593  1.00  0.00     0.169 HD
HETATM   18  O   UNL     1      17.432  46.205  48.137  1.00  0.00    -0.272 OA
BRANCH  16  19
HETATM   19  C   UNL     1      20.049  45.638  46.880  1.00  0.00     0.034 A 
HETATM   20  C   UNL     1      21.071  45.292  47.767  1.00  0.00     0.029 A 
HETATM   21  C   UNL     1      21.744  44.073  47.634  1.00  0.00     0.002 A 
HETATM   22  C   UNL     1      21.399  43.188  46.618  1.00  0.00     0.000 A 
HETATM   23  C   UNL     1      20.379  43.520  45.730  1.00  0.00     0.002 A 
HETATM   24  C   UNL     1      19.708  44.739  45.860  1.00  0.00     0.029 A 
ENDBRANCH  16  19
ENDBRANCH  13  15
ENDBRANCH  12  13
ENDBRANCH   6  12
BRANCH   1  25
HETATM   25  O   UNL     1      25.774  49.835  48.414  1.00  0.00    -0.351 OA
BRANCH  25  26
HETATM   26  C   UNL     1      26.585  48.791  48.953  1.00  0.00     0.171 C 
HETATM   27  C   UNL     1      27.976  49.351  49.183  1.00  0.00     0.034 C 
ENDBRANCH  25  26
ENDBRANCH   1  25
TORSDOF 6
ENDMDL
