MODEL 1
REMARK VINA RESULT:      -8.6      0.000      0.000
REMARK  5 active torsions:
REMARK  status: ('A' for Active; 'I' for Inactive)
REMARK    1  A    between atoms: N_2  and  C_4 
REMARK    2  A    between atoms: C_4  and  C_5 
REMARK    3  A    between atoms: C_8  and  C_9 
REMARK    4  A    between atoms: C_9  and  N_10 
REMARK       I    between atoms: N_10  and  C_11 
REMARK       I    between atoms: C_11  and  N_12 
REMARK    5  A    between atoms: N_12  and  C_13 
ROOT
HETATM    1  N   UNL     1      26.009  44.036  51.173  1.00  0.00    -0.339 N 
HETATM    2  C   UNL     1      24.653  44.117  51.209  1.00  0.00     0.322 C 
HETATM    3  N   UNL     1      24.076  45.290  50.841  1.00  0.00    -0.287 N 
HETATM    4  O   UNL     1      23.941  43.185  51.577  1.00  0.00    -0.247 OA
HETATM    5  H   UNL     1      26.514  44.853  50.837  1.00  0.00     0.164 HD
HETATM    6  H   UNL     1      23.068  45.319  50.885  1.00  0.00     0.172 HD
ENDROOT
BRANCH   1   7
HETATM    7  C   UNL     1      26.728  42.803  51.377  1.00  0.00     0.162 C 
BRANCH   7   8
HETATM    8  C   UNL     1      27.804  42.877  52.440  1.00  0.00    -0.040 A 
HETATM    9  C   UNL     1      29.162  42.733  52.135  1.00  0.00     0.009 A 
HETATM   10  C   UNL     1      30.143  42.898  53.117  1.00  0.00     0.009 A 
HETATM   11  C   UNL     1      29.784  43.234  54.429  1.00  0.00    -0.033 A 
HETATM   12  C   UNL     1      28.426  43.376  54.744  1.00  0.00     0.009 A 
HETATM   13  C   UNL     1      27.449  43.201  53.758  1.00  0.00     0.009 A 
BRANCH  11  14
HETATM   14  C   UNL     1      30.843  43.501  55.463  1.00  0.00     0.272 C 
BRANCH  14  15
HETATM   15  N   UNL     1      30.378  44.448  56.548  1.00  0.00    -0.075 N 
HETATM   16  C   UNL     1      30.303  45.879  56.091  1.00  0.00     0.269 C 
HETATM   17  H   UNL     1      29.418  44.168  56.781  1.00  0.00     0.279 HD
HETATM   18  C   UNL     1      31.199  44.309  57.796  1.00  0.00     0.269 C 
ENDBRANCH  14  15
ENDBRANCH  11  14
ENDBRANCH   7   8
ENDBRANCH   1   7
BRANCH   3  19
HETATM   19  C   UNL     1      24.719  46.383  50.337  1.00  0.00     0.175 A 
HETATM   20  S   UNL     1      23.714  47.466  49.496  1.00  0.00    -0.050 SA
HETATM   21  C   UNL     1      25.087  48.449  49.149  1.00  0.00     0.037 A 
HETATM   22  C   UNL     1      26.219  47.863  49.725  1.00  0.00     0.076 A 
HETATM   23  C   UNL     1      25.158  49.646  48.419  1.00  0.00     0.021 A 
HETATM   24  N   UNL     1      25.992  46.678  50.414  1.00  0.00    -0.223 NA
HETATM   25  C   UNL     1      27.467  48.499  49.561  1.00  0.00     0.033 A 
HETATM   26  C   UNL     1      27.548  49.691  48.833  1.00  0.00     0.002 A 
HETATM   27  C   UNL     1      26.408  50.255  48.270  1.00  0.00     0.002 A 
ENDBRANCH   3  19
TORSDOF 5
ENDMDL
MODEL 2
REMARK VINA RESULT:      -8.4      3.689      7.234
REMARK  5 active torsions:
REMARK  status: ('A' for Active; 'I' for Inactive)
REMARK    1  A    between atoms: N_2  and  C_4 
REMARK    2  A    between atoms: C_4  and  C_5 
REMARK    3  A    between atoms: C_8  and  C_9 
REMARK    4  A    between atoms: C_9  and  N_10 
REMARK       I    between atoms: N_10  and  C_11 
REMARK       I    between atoms: C_11  and  N_12 
REMARK    5  A    between atoms: N_12  and  C_13 
ROOT
HETATM    1  N   UNL     1      26.304  44.564  53.074  1.00  0.00    -0.339 N 
HETATM    2  C   UNL     1      26.284  45.919  53.185  1.00  0.00     0.322 C 
HETATM    3  N   UNL     1      27.143  46.497  54.065  1.00  0.00    -0.287 N 
HETATM    4  O   UNL     1      25.515  46.628  52.539  1.00  0.00    -0.247 OA
HETATM    5  H   UNL     1      26.987  44.062  53.636  1.00  0.00     0.164 HD
HETATM    6  H   UNL     1      27.099  47.503  54.127  1.00  0.00     0.172 HD
ENDROOT
BRANCH   1   7
HETATM    7  C   UNL     1      25.566  43.848  52.063  1.00  0.00     0.162 C 
BRANCH   7   8
HETATM    8  C   UNL     1      26.281  42.632  51.513  1.00  0.00    -0.040 A 
HETATM    9  C   UNL     1      25.793  41.918  50.412  1.00  0.00     0.009 A 
HETATM   10  C   UNL     1      26.517  40.857  49.863  1.00  0.00     0.009 A 
HETATM   11  C   UNL     1      27.763  40.498  50.394  1.00  0.00    -0.033 A 
HETATM   12  C   UNL     1      28.256  41.205  51.499  1.00  0.00     0.009 A 
HETATM   13  C   UNL     1      27.522  42.261  52.049  1.00  0.00     0.009 A 
BRANCH  11  14
HETATM   14  C   UNL     1      28.584  39.417  49.748  1.00  0.00     0.272 C 
BRANCH  14  15
HETATM   15  N   UNL     1      28.428  38.074  50.430  1.00  0.00    -0.075 N 
HETATM   16  C   UNL     1      29.743  37.425  50.763  1.00  0.00     0.269 C 
HETATM   17  H   UNL     1      27.962  38.261  51.326  1.00  0.00     0.279 HD
HETATM   18  C   UNL     1      27.540  37.153  49.647  1.00  0.00     0.269 C 
ENDBRANCH  14  15
ENDBRANCH  11  14
ENDBRANCH   7   8
ENDBRANCH   1   7
BRANCH   3  19
HETATM   19  C   UNL     1      28.105  45.859  54.792  1.00  0.00     0.175 A 
HETATM   20  S   UNL     1      28.374  46.517  56.336  1.00  0.00    -0.050 SA
HETATM   21  C   UNL     1      29.618  45.353  56.599  1.00  0.00     0.037 A 
HETATM   22  C   UNL     1      29.720  44.536  55.469  1.00  0.00     0.076 A 
HETATM   23  C   UNL     1      30.445  45.180  57.720  1.00  0.00     0.021 A 
HETATM   24  N   UNL     1      28.836  44.832  54.439  1.00  0.00    -0.223 NA
HETATM   25  C   UNL     1      30.686  43.509  55.462  1.00  0.00     0.033 A 
HETATM   26  C   UNL     1      31.517  43.329  56.574  1.00  0.00     0.002 A 
HETATM   27  C   UNL     1      31.397  44.155  57.687  1.00  0.00     0.002 A 
ENDBRANCH   3  19
TORSDOF 5
ENDMDL
MODEL 3
REMARK VINA RESULT:      -8.3      2.547      8.020
REMARK  5 active torsions:
REMARK  status: ('A' for Active; 'I' for Inactive)
REMARK    1  A    between atoms: N_2  and  C_4 
REMARK    2  A    between atoms: C_4  and  C_5 
REMARK    3  A    between atoms: C_8  and  C_9 
REMARK    4  A    between atoms: C_9  and  N_10 
REMARK       I    between atoms: N_10  and  C_11 
REMARK       I    between atoms: C_11  and  N_12 
REMARK    5  A    between atoms: N_12  and  C_13 
ROOT
HETATM    1  N   UNL     1      26.379  44.160  51.103  1.00  0.00    -0.339 N 
HETATM    2  C   UNL     1      25.423  43.617  51.903  1.00  0.00     0.322 C 
HETATM    3  N   UNL     1      25.738  43.390  53.204  1.00  0.00    -0.287 N 
HETATM    4  O   UNL     1      24.306  43.311  51.491  1.00  0.00    -0.247 OA
HETATM    5  H   UNL     1      27.268  44.396  51.536  1.00  0.00     0.164 HD
HETATM    6  H   UNL     1      25.009  42.982  53.770  1.00  0.00     0.172 HD
ENDROOT
BRANCH   1   7
HETATM    7  C   UNL     1      26.118  44.600  49.755  1.00  0.00     0.162 C 
BRANCH   7   8
HETATM    8  C   UNL     1      25.538  45.995  49.655  1.00  0.00    -0.040 A 
HETATM    9  C   UNL     1      26.347  47.137  49.645  1.00  0.00     0.009 A 
HETATM   10  C   UNL     1      25.798  48.408  49.458  1.00  0.00     0.009 A 
HETATM   11  C   UNL     1      24.420  48.563  49.256  1.00  0.00    -0.033 A 
HETATM   12  C   UNL     1      23.602  47.425  49.270  1.00  0.00     0.009 A 
HETATM   13  C   UNL     1      24.158  46.157  49.465  1.00  0.00     0.009 A 
BRANCH  11  14
HETATM   14  C   UNL     1      23.841  49.919  48.965  1.00  0.00     0.272 C 
BRANCH  14  15
HETATM   15  N   UNL     1      22.327  49.937  49.025  1.00  0.00    -0.075 N 
HETATM   16  C   UNL     1      21.688  50.253  47.701  1.00  0.00     0.269 C 
HETATM   17  H   UNL     1      22.040  48.981  49.265  1.00  0.00     0.279 HD
HETATM   18  C   UNL     1      21.826  50.843  50.111  1.00  0.00     0.269 C 
ENDBRANCH  14  15
ENDBRANCH  11  14
ENDBRANCH   7   8
ENDBRANCH   1   7
BRANCH   3  19
HETATM   19  C   UNL     1      26.898  43.744  53.828  1.00  0.00     0.175 A 
HETATM   20  S   UNL     1      28.074  42.518  53.876  1.00  0.00    -0.050 SA
HETATM   21  C   UNL     1      29.114  43.569  54.763  1.00  0.00     0.037 A 
HETATM   22  C   UNL     1      28.469  44.797  54.942  1.00  0.00     0.076 A 
HETATM   23  C   UNL     1      30.402  43.324  55.265  1.00  0.00     0.021 A 
HETATM   24  N   UNL     1      27.197  44.888  54.391  1.00  0.00    -0.223 NA
HETATM   25  C   UNL     1      29.138  45.815  55.652  1.00  0.00     0.033 A 
HETATM   26  C   UNL     1      30.421  45.580  56.159  1.00  0.00     0.002 A 
HETATM   27  C   UNL     1      31.043  44.350  55.968  1.00  0.00     0.002 A 
ENDBRANCH   3  19
TORSDOF 5
ENDMDL
MODEL 4
REMARK VINA RESULT:      -8.0      2.509      7.629
REMARK  5 active torsions:
REMARK  status: ('A' for Active; 'I' for Inactive)
REMARK    1  A    between atoms: N_2  and  C_4 
REMARK    2  A    between atoms: C_4  and  C_5 
REMARK    3  A    between atoms: C_8  and  C_9 
REMARK    4  A    between atoms: C_9  and  N_10 
REMARK       I    between atoms: N_10  and  C_11 
REMARK       I    between atoms: C_11  and  N_12 
REMARK    5  A    between atoms: N_12  and  C_13 
ROOT
HETATM    1  N   UNL     1      27.286  42.510  50.723  1.00  0.00    -0.339 N 
HETATM    2  C   UNL     1      26.858  41.375  51.337  1.00  0.00     0.322 C 
HETATM    3  N   UNL     1      27.233  41.170  52.626  1.00  0.00    -0.287 N 
HETATM    4  O   UNL     1      26.168  40.531  50.768  1.00  0.00    -0.247 OA
HETATM    5  H   UNL     1      27.838  43.159  51.279  1.00  0.00     0.164 HD
HETATM    6  H   UNL     1      26.903  40.316  53.051  1.00  0.00     0.172 HD
ENDROOT
BRANCH   1   7
HETATM    7  C   UNL     1      26.822  42.922  49.421  1.00  0.00     0.162 C 
BRANCH   7   8
HETATM    8  C   UNL     1      26.068  44.234  49.414  1.00  0.00    -0.040 A 
HETATM    9  C   UNL     1      24.712  44.311  49.074  1.00  0.00     0.009 A 
HETATM   10  C   UNL     1      24.014  45.518  49.165  1.00  0.00     0.009 A 
HETATM   11  C   UNL     1      24.656  46.677  49.620  1.00  0.00    -0.033 A 
HETATM   12  C   UNL     1      26.014  46.610  49.957  1.00  0.00     0.009 A 
HETATM   13  C   UNL     1      26.709  45.400  49.856  1.00  0.00     0.009 A 
BRANCH  11  14
HETATM   14  C   UNL     1      23.883  47.953  49.803  1.00  0.00     0.272 C 
BRANCH  14  15
HETATM   15  N   UNL     1      23.688  48.714  48.508  1.00  0.00    -0.075 N 
HETATM   16  C   UNL     1      24.732  49.773  48.284  1.00  0.00     0.269 C 
HETATM   17  H   UNL     1      23.805  48.028  47.753  1.00  0.00     0.279 HD
HETATM   18  C   UNL     1      22.301  49.273  48.396  1.00  0.00     0.269 C 
ENDBRANCH  14  15
ENDBRANCH  11  14
ENDBRANCH   7   8
ENDBRANCH   1   7
BRANCH   3  19
HETATM   19  C   UNL     1      27.925  42.043  53.414  1.00  0.00     0.175 A 
HETATM   20  S   UNL     1      27.073  43.458  53.815  1.00  0.00    -0.050 SA
HETATM   21  C   UNL     1      28.452  44.026  54.679  1.00  0.00     0.037 A 
HETATM   22  C   UNL     1      29.464  43.064  54.598  1.00  0.00     0.076 A 
HETATM   23  C   UNL     1      28.626  45.234  55.373  1.00  0.00     0.021 A 
HETATM   24  N   UNL     1      29.144  41.923  53.875  1.00  0.00    -0.223 NA
HETATM   25  C   UNL     1      30.695  43.324  55.234  1.00  0.00     0.033 A 
HETATM   26  C   UNL     1      30.880  44.526  55.927  1.00  0.00     0.002 A 
HETATM   27  C   UNL     1      29.857  45.468  55.994  1.00  0.00     0.002 A 
ENDBRANCH   3  19
TORSDOF 5
ENDMDL
MODEL 5
REMARK VINA RESULT:      -7.9      3.904      6.072
REMARK  5 active torsions:
REMARK  status: ('A' for Active; 'I' for Inactive)
REMARK    1  A    between atoms: N_2  and  C_4 
REMARK    2  A    between atoms: C_4  and  C_5 
REMARK    3  A    between atoms: C_8  and  C_9 
REMARK    4  A    between atoms: C_9  and  N_10 
REMARK       I    between atoms: N_10  and  C_11 
REMARK       I    between atoms: C_11  and  N_12 
REMARK    5  A    between atoms: N_12  and  C_13 
ROOT
HETATM    1  N   UNL     1      25.166  48.876  48.989  1.00  0.00    -0.339 N 
HETATM    2  C   UNL     1      25.090  49.826  48.019  1.00  0.00     0.322 C 
HETATM    3  N   UNL     1      23.857  50.257  47.648  1.00  0.00    -0.287 N 
HETATM    4  O   UNL     1      26.084  50.288  47.462  1.00  0.00    -0.247 OA
HETATM    5  H   UNL     1      24.291  48.566  49.405  1.00  0.00     0.164 HD
HETATM    6  H   UNL     1      23.835  50.958  46.922  1.00  0.00     0.172 HD
ENDROOT
BRANCH   1   7
HETATM    7  C   UNL     1      26.412  48.460  49.585  1.00  0.00     0.162 C 
BRANCH   7   8
HETATM    8  C   UNL     1      26.380  47.074  50.193  1.00  0.00    -0.040 A 
HETATM    9  C   UNL     1      27.022  45.984  49.594  1.00  0.00     0.009 A 
HETATM   10  C   UNL     1      27.058  44.735  50.221  1.00  0.00     0.009 A 
HETATM   11  C   UNL     1      26.467  44.555  51.478  1.00  0.00    -0.033 A 
HETATM   12  C   UNL     1      25.818  45.640  52.083  1.00  0.00     0.009 A 
HETATM   13  C   UNL     1      25.779  46.885  51.446  1.00  0.00     0.009 A 
BRANCH  11  14
HETATM   14  C   UNL     1      26.585  43.238  52.193  1.00  0.00     0.272 C 
BRANCH  14  15
HETATM   15  N   UNL     1      27.232  42.164  51.343  1.00  0.00    -0.075 N 
HETATM   16  C   UNL     1      26.246  41.162  50.807  1.00  0.00     0.269 C 
HETATM   17  H   UNL     1      27.628  42.645  50.527  1.00  0.00     0.279 HD
HETATM   18  C   UNL     1      28.365  41.493  52.063  1.00  0.00     0.269 C 
ENDBRANCH  14  15
ENDBRANCH  11  14
ENDBRANCH   7   8
ENDBRANCH   1   7
BRANCH   3  19
HETATM   19  C   UNL     1      22.671  49.902  48.221  1.00  0.00     0.175 A 
HETATM   20  S   UNL     1      21.991  51.093  49.226  1.00  0.00    -0.050 SA
HETATM   21  C   UNL     1      20.689  50.022  49.589  1.00  0.00     0.037 A 
HETATM   22  C   UNL     1      20.880  48.826  48.891  1.00  0.00     0.076 A 
HETATM   23  C   UNL     1      19.585  50.225  50.432  1.00  0.00     0.021 A 
HETATM   24  N   UNL     1      22.020  48.773  48.099  1.00  0.00    -0.223 NA
HETATM   25  C   UNL     1      19.930  47.795  49.044  1.00  0.00     0.033 A 
HETATM   26  C   UNL     1      18.827  47.986  49.884  1.00  0.00     0.002 A 
HETATM   27  C   UNL     1      18.658  49.186  50.568  1.00  0.00     0.002 A 
ENDBRANCH   3  19
TORSDOF 5
ENDMDL
MODEL 6
REMARK VINA RESULT:      -7.7      4.385      5.990
REMARK  5 active torsions:
REMARK  status: ('A' for Active; 'I' for Inactive)
REMARK    1  A    between atoms: N_2  and  C_4 
REMARK    2  A    between atoms: C_4  and  C_5 
REMARK    3  A    between atoms: C_8  and  C_9 
REMARK    4  A    between atoms: C_9  and  N_10 
REMARK       I    between atoms: N_10  and  C_11 
REMARK       I    between atoms: C_11  and  N_12 
REMARK    5  A    between atoms: N_12  and  C_13 
ROOT
HETATM    1  N   UNL     1      21.950  46.580  48.996  1.00  0.00    -0.339 N 
HETATM    2  C   UNL     1      20.816  45.831  48.963  1.00  0.00     0.322 C 
HETATM    3  N   UNL     1      19.625  46.478  49.033  1.00  0.00    -0.287 N 
HETATM    4  O   UNL     1      20.832  44.603  48.890  1.00  0.00    -0.247 OA
HETATM    5  H   UNL     1      21.838  47.590  49.039  1.00  0.00     0.164 HD
HETATM    6  H   UNL     1      18.803  45.894  49.011  1.00  0.00     0.172 HD
ENDROOT
BRANCH   1   7
HETATM    7  C   UNL     1      23.262  46.029  48.762  1.00  0.00     0.162 C 
BRANCH   7   8
HETATM    8  C   UNL     1      24.100  45.861  50.012  1.00  0.00    -0.040 A 
HETATM    9  C   UNL     1      24.303  44.611  50.608  1.00  0.00     0.009 A 
HETATM   10  C   UNL     1      25.156  44.466  51.706  1.00  0.00     0.009 A 
HETATM   11  C   UNL     1      25.845  45.572  52.220  1.00  0.00    -0.033 A 
HETATM   12  C   UNL     1      25.644  46.828  51.631  1.00  0.00     0.009 A 
HETATM   13  C   UNL     1      24.783  46.967  50.538  1.00  0.00     0.009 A 
BRANCH  11  14
HETATM   14  C   UNL     1      26.831  45.401  53.342  1.00  0.00     0.272 C 
BRANCH  14  15
HETATM   15  N   UNL     1      27.330  43.977  53.473  1.00  0.00    -0.075 N 
HETATM   16  C   UNL     1      26.869  43.304  54.737  1.00  0.00     0.269 C 
HETATM   17  H   UNL     1      26.908  43.453  52.697  1.00  0.00     0.279 HD
HETATM   18  C   UNL     1      28.819  43.893  53.314  1.00  0.00     0.269 C 
ENDBRANCH  14  15
ENDBRANCH  11  14
ENDBRANCH   7   8
ENDBRANCH   1   7
BRANCH   3  19
HETATM   19  C   UNL     1      19.439  47.830  49.037  1.00  0.00     0.175 A 
HETATM   20  S   UNL     1      18.193  48.367  50.061  1.00  0.00    -0.050 SA
HETATM   21  C   UNL     1      18.488  49.986  49.548  1.00  0.00     0.037 A 
HETATM   22  C   UNL     1      19.542  49.984  48.628  1.00  0.00     0.076 A 
HETATM   23  C   UNL     1      17.834  51.168  49.928  1.00  0.00     0.021 A 
HETATM   24  N   UNL     1      20.087  48.737  48.350  1.00  0.00    -0.223 NA
HETATM   25  C   UNL     1      19.953  51.211  48.069  1.00  0.00     0.033 A 
HETATM   26  C   UNL     1      19.306  52.395  48.439  1.00  0.00     0.002 A 
HETATM   27  C   UNL     1      18.260  52.372  49.356  1.00  0.00     0.002 A 
ENDBRANCH   3  19
TORSDOF 5
ENDMDL
MODEL 7
REMARK VINA RESULT:      -7.6     16.483     18.987
REMARK  5 active torsions:
REMARK  status: ('A' for Active; 'I' for Inactive)
REMARK    1  A    between atoms: N_2  and  C_4 
REMARK    2  A    between atoms: C_4  and  C_5 
REMARK    3  A    between atoms: C_8  and  C_9 
REMARK    4  A    between atoms: C_9  and  N_10 
REMARK       I    between atoms: N_10  and  C_11 
REMARK       I    between atoms: C_11  and  N_12 
REMARK    5  A    between atoms: N_12  and  C_13 
ROOT
HETATM    1  N   UNL     1      38.540  43.922  63.648  1.00  0.00    -0.339 N 
HETATM    2  C   UNL     1      37.832  45.068  63.829  1.00  0.00     0.322 C 
HETATM    3  N   UNL     1      38.492  46.154  64.307  1.00  0.00    -0.287 N 
HETATM    4  O   UNL     1      36.627  45.149  63.597  1.00  0.00    -0.247 OA
HETATM    5  H   UNL     1      39.536  43.955  63.850  1.00  0.00     0.164 HD
HETATM    6  H   UNL     1      37.937  46.987  64.436  1.00  0.00     0.172 HD
ENDROOT
BRANCH   1   7
HETATM    7  C   UNL     1      37.996  42.758  62.993  1.00  0.00     0.162 C 
BRANCH   7   8
HETATM    8  C   UNL     1      38.626  41.450  63.421  1.00  0.00    -0.040 A 
HETATM    9  C   UNL     1      39.148  40.539  62.496  1.00  0.00     0.009 A 
HETATM   10  C   UNL     1      39.809  39.382  62.917  1.00  0.00     0.009 A 
HETATM   11  C   UNL     1      39.982  39.121  64.283  1.00  0.00    -0.033 A 
HETATM   12  C   UNL     1      39.459  40.026  65.216  1.00  0.00     0.009 A 
HETATM   13  C   UNL     1      38.791  41.178  64.787  1.00  0.00     0.009 A 
BRANCH  11  14
HETATM   14  C   UNL     1      40.772  37.925  64.736  1.00  0.00     0.272 C 
BRANCH  14  15
HETATM   15  N   UNL     1      42.211  37.958  64.265  1.00  0.00    -0.075 N 
HETATM   16  C   UNL     1      42.886  36.616  64.332  1.00  0.00     0.269 C 
HETATM   17  H   UNL     1      42.181  38.217  63.271  1.00  0.00     0.279 HD
HETATM   18  C   UNL     1      43.005  39.012  64.979  1.00  0.00     0.269 C 
ENDBRANCH  14  15
ENDBRANCH  11  14
ENDBRANCH   7   8
ENDBRANCH   1   7
BRANCH   3  19
HETATM   19  C   UNL     1      39.834  46.247  64.537  1.00  0.00     0.175 A 
HETATM   20  S   UNL     1      40.250  47.112  65.940  1.00  0.00    -0.050 SA
HETATM   21  C   UNL     1      41.918  46.876  65.573  1.00  0.00     0.037 A 
HETATM   22  C   UNL     1      42.020  46.133  64.393  1.00  0.00     0.076 A 
HETATM   23  C   UNL     1      43.050  47.320  66.274  1.00  0.00     0.021 A 
HETATM   24  N   UNL     1      40.813  45.768  63.811  1.00  0.00    -0.223 NA
HETATM   25  C   UNL     1      43.304  45.825  63.898  1.00  0.00     0.033 A 
HETATM   26  C   UNL     1      44.439  46.264  64.588  1.00  0.00     0.002 A 
HETATM   27  C   UNL     1      44.311  47.002  65.761  1.00  0.00     0.002 A 
ENDBRANCH   3  19
TORSDOF 5
ENDMDL
MODEL 8
REMARK VINA RESULT:      -7.4     16.133     18.987
REMARK  5 active torsions:
REMARK  status: ('A' for Active; 'I' for Inactive)
REMARK    1  A    between atoms: N_2  and  C_4 
REMARK    2  A    between atoms: C_4  and  C_5 
REMARK    3  A    between atoms: C_8  and  C_9 
REMARK    4  A    between atoms: C_9  and  N_10 
REMARK       I    between atoms: N_10  and  C_11 
REMARK       I    between atoms: C_11  and  N_12 
REMARK    5  A    between atoms: N_12  and  C_13 
ROOT
HETATM    1  N   UNL     1      38.348  46.179  64.466  1.00  0.00    -0.339 N 
HETATM    2  C   UNL     1      36.993  46.150  64.376  1.00  0.00     0.322 C 
HETATM    3  N   UNL     1      36.400  44.962  64.088  1.00  0.00    -0.287 N 
HETATM    4  O   UNL     1      36.294  47.151  64.527  1.00  0.00    -0.247 OA
HETATM    5  H   UNL     1      38.841  45.297  64.345  1.00  0.00     0.164 HD
HETATM    6  H   UNL     1      35.393  44.975  64.023  1.00  0.00     0.172 HD
ENDROOT
BRANCH   1   7
HETATM    7  C   UNL     1      39.080  47.332  64.928  1.00  0.00     0.162 C 
BRANCH   7   8
HETATM    8  C   UNL     1      40.575  47.118  65.042  1.00  0.00    -0.040 A 
HETATM    9  C   UNL     1      41.344  47.753  66.025  1.00  0.00     0.009 A 
HETATM   10  C   UNL     1      42.704  47.468  66.170  1.00  0.00     0.009 A 
HETATM   11  C   UNL     1      43.324  46.522  65.344  1.00  0.00    -0.033 A 
HETATM   12  C   UNL     1      42.562  45.886  64.354  1.00  0.00     0.009 A 
HETATM   13  C   UNL     1      41.203  46.181  64.209  1.00  0.00     0.009 A 
BRANCH  11  14
HETATM   14  C   UNL     1      44.764  46.150  65.560  1.00  0.00     0.272 C 
BRANCH  14  15
HETATM   15  N   UNL     1      45.698  46.816  64.571  1.00  0.00    -0.075 N 
HETATM   16  C   UNL     1      46.761  45.891  64.047  1.00  0.00     0.269 C 
HETATM   17  H   UNL     1      45.119  47.079  63.765  1.00  0.00     0.279 HD
HETATM   18  C   UNL     1      46.289  48.077  65.129  1.00  0.00     0.269 C 
ENDBRANCH  14  15
ENDBRANCH  11  14
ENDBRANCH   7   8
ENDBRANCH   1   7
BRANCH   3  19
HETATM   19  C   UNL     1      37.025  43.755  63.973  1.00  0.00     0.175 A 
HETATM   20  S   UNL     1      36.741  42.688  65.265  1.00  0.00    -0.050 SA
HETATM   21  C   UNL     1      37.783  41.532  64.521  1.00  0.00     0.037 A 
HETATM   22  C   UNL     1      38.262  42.063  63.319  1.00  0.00     0.076 A 
HETATM   23  C   UNL     1      38.151  40.254  64.970  1.00  0.00     0.021 A 
HETATM   24  N   UNL     1      37.811  43.341  63.010  1.00  0.00    -0.223 NA
HETATM   25  C   UNL     1      39.143  41.286  62.541  1.00  0.00     0.033 A 
HETATM   26  C   UNL     1      39.519  40.011  62.981  1.00  0.00     0.002 A 
HETATM   27  C   UNL     1      39.028  39.505  64.180  1.00  0.00     0.002 A 
ENDBRANCH   3  19
TORSDOF 5
ENDMDL
MODEL 9
REMARK VINA RESULT:      -7.4      3.603      7.351
REMARK  5 active torsions:
REMARK  status: ('A' for Active; 'I' for Inactive)
REMARK    1  A    between atoms: N_2  and  C_4 
REMARK    2  A    between atoms: C_4  and  C_5 
REMARK    3  A    between atoms: C_8  and  C_9 
REMARK    4  A    between atoms: C_9  and  N_10 
REMARK       I    between atoms: N_10  and  C_11 
REMARK       I    between atoms: C_11  and  N_12 
REMARK    5  A    between atoms: N_12  and  C_13 
ROOT
HETATM    1  N   UNL     1      25.350  43.534  51.947  1.00  0.00    -0.339 N 
HETATM    2  C   UNL     1      25.178  44.880  51.864  1.00  0.00     0.322 C 
HETATM    3  N   UNL     1      26.001  45.672  52.598  1.00  0.00    -0.287 N 
HETATM    4  O   UNL     1      24.303  45.397  51.172  1.00  0.00    -0.247 OA
HETATM    5  H   UNL     1      26.111  43.199  52.532  1.00  0.00     0.164 HD
HETATM    6  H   UNL     1      25.843  46.666  52.519  1.00  0.00     0.172 HD
ENDROOT
BRANCH   1   7
HETATM    7  C   UNL     1      24.656  42.599  51.096  1.00  0.00     0.162 C 
BRANCH   7   8
HETATM    8  C   UNL     1      25.564  41.663  50.328  1.00  0.00    -0.040 A 
HETATM    9  C   UNL     1      25.174  41.075  49.119  1.00  0.00     0.009 A 
HETATM   10  C   UNL     1      26.062  40.288  48.380  1.00  0.00     0.009 A 
HETATM   11  C   UNL     1      27.375  40.089  48.828  1.00  0.00    -0.033 A 
HETATM   12  C   UNL     1      27.772  40.670  50.040  1.00  0.00     0.009 A 
HETATM   13  C   UNL     1      26.875  41.450  50.778  1.00  0.00     0.009 A 
BRANCH  11  14
HETATM   14  C   UNL     1      28.357  39.319  47.990  1.00  0.00     0.272 C 
BRANCH  14  15
HETATM   15  N   UNL     1      27.688  38.498  46.908  1.00  0.00    -0.075 N 
HETATM   16  C   UNL     1      27.923  37.020  47.058  1.00  0.00     0.269 C 
HETATM   17  H   UNL     1      26.678  38.643  47.021  1.00  0.00     0.279 HD
HETATM   18  C   UNL     1      28.059  38.979  45.536  1.00  0.00     0.269 C 
ENDBRANCH  14  15
ENDBRANCH  11  14
ENDBRANCH   7   8
ENDBRANCH   1   7
BRANCH   3  19
HETATM   19  C   UNL     1      27.063  45.258  53.348  1.00  0.00     0.175 A 
HETATM   20  S   UNL     1      27.418  46.257  54.677  1.00  0.00    -0.050 SA
HETATM   21  C   UNL     1      28.755  45.240  55.065  1.00  0.00     0.037 A 
HETATM   22  C   UNL     1      28.814  44.196  54.136  1.00  0.00     0.076 A 
HETATM   23  C   UNL     1      29.685  45.361  56.110  1.00  0.00     0.021 A 
HETATM   24  N   UNL     1      27.828  44.213  53.158  1.00  0.00    -0.223 NA
HETATM   25  C   UNL     1      29.843  43.240  54.259  1.00  0.00     0.033 A 
HETATM   26  C   UNL     1      30.776  43.352  55.296  1.00  0.00     0.002 A 
HETATM   27  C   UNL     1      30.696  44.399  56.208  1.00  0.00     0.002 A 
ENDBRANCH   3  19
TORSDOF 5
ENDMDL
MODEL 10
REMARK VINA RESULT:      -7.3      3.280      7.805
REMARK  5 active torsions:
REMARK  status: ('A' for Active; 'I' for Inactive)
REMARK    1  A    between atoms: N_2  and  C_4 
REMARK    2  A    between atoms: C_4  and  C_5 
REMARK    3  A    between atoms: C_8  and  C_9 
REMARK    4  A    between atoms: C_9  and  N_10 
REMARK       I    between atoms: N_10  and  C_11 
REMARK       I    between atoms: C_11  and  N_12 
REMARK    5  A    between atoms: N_12  and  C_13 
ROOT
HETATM    1  N   UNL     1      25.281  43.475  50.270  1.00  0.00    -0.339 N 
HETATM    2  C   UNL     1      25.719  42.321  50.838  1.00  0.00     0.322 C 
HETATM    3  N   UNL     1      26.427  42.410  51.993  1.00  0.00    -0.287 N 
HETATM    4  O   UNL     1      25.516  41.215  50.340  1.00  0.00    -0.247 OA
HETATM    5  H   UNL     1      25.481  44.341  50.763  1.00  0.00     0.164 HD
HETATM    6  H   UNL     1      26.743  41.536  52.386  1.00  0.00     0.172 HD
ENDROOT
BRANCH   1   7
HETATM    7  C   UNL     1      24.383  43.503  49.142  1.00  0.00     0.162 C 
BRANCH   7   8
HETATM    8  C   UNL     1      23.813  44.871  48.832  1.00  0.00    -0.040 A 
HETATM    9  C   UNL     1      22.778  45.053  47.907  1.00  0.00     0.009 A 
HETATM   10  C   UNL     1      22.205  46.312  47.706  1.00  0.00     0.009 A 
HETATM   11  C   UNL     1      22.643  47.418  48.446  1.00  0.00    -0.033 A 
HETATM   12  C   UNL     1      23.682  47.245  49.370  1.00  0.00     0.009 A 
HETATM   13  C   UNL     1      24.257  45.984  49.561  1.00  0.00     0.009 A 
BRANCH  11  14
HETATM   14  C   UNL     1      21.965  48.751  48.296  1.00  0.00     0.272 C 
BRANCH  14  15
HETATM   15  N   UNL     1      21.300  49.220  49.573  1.00  0.00    -0.075 N 
HETATM   16  C   UNL     1      19.848  48.839  49.657  1.00  0.00     0.269 C 
HETATM   17  H   UNL     1      21.774  48.727  50.339  1.00  0.00     0.279 HD
HETATM   18  C   UNL     1      21.499  50.690  49.795  1.00  0.00     0.269 C 
ENDBRANCH  14  15
ENDBRANCH  11  14
ENDBRANCH   7   8
ENDBRANCH   1   7
BRANCH   3  19
HETATM   19  C   UNL     1      26.667  43.548  52.707  1.00  0.00     0.175 A 
HETATM   20  S   UNL     1      28.152  43.561  53.533  1.00  0.00    -0.050 SA
HETATM   21  C   UNL     1      27.765  45.113  54.176  1.00  0.00     0.037 A 
HETATM   22  C   UNL     1      26.514  45.505  53.688  1.00  0.00     0.076 A 
HETATM   23  C   UNL     1      28.510  45.921  55.050  1.00  0.00     0.021 A 
HETATM   24  N   UNL     1      25.897  44.599  52.836  1.00  0.00    -0.223 NA
HETATM   25  C   UNL     1      25.991  46.751  54.092  1.00  0.00     0.033 A 
HETATM   26  C   UNL     1      26.725  47.563  54.964  1.00  0.00     0.002 A 
HETATM   27  C   UNL     1      27.967  47.151  55.436  1.00  0.00     0.002 A 
ENDBRANCH   3  19
TORSDOF 5
ENDMDL
