MODEL 1
REMARK VINA RESULT:      -7.6      0.000      0.000
REMARK  8 active torsions:
REMARK  status: ('A' for Active; 'I' for Inactive)
REMARK    1  A    between atoms: C_3  and  C_4 
REMARK    2  A    between atoms: C_4  and  C_5 
REMARK       I    between atoms: C_5  and  N_6 
REMARK    3  A    between atoms: N_6  and  C_7 
REMARK    4  A    between atoms: C_14  and  N_15 
REMARK       I    between atoms: N_15  and  C_16 
REMARK    5  A    between atoms: C_16  and  C_17 
REMARK    6  A    between atoms: C_26  and  C_27 
REMARK    7  A    between atoms: C_27  and  O_28 
REMARK    8  A    between atoms: C_30  and  O_31 
ROOT
HETATM    1  C   UNL     1      23.555  49.918  38.776  1.00  0.00     0.216 C 
HETATM    2  C   UNL     1      22.474  50.658  39.435  1.00  0.00    -0.098 C 
HETATM    3  C   UNL     1      21.580  51.255  39.969  1.00  0.00     0.014 C 
ENDROOT
BRANCH   1   4
HETATM    4  N   UNL     1      24.808  50.140  39.448  1.00  0.00    -0.351 N 
HETATM    5  C   UNL     1      26.013  50.045  38.806  1.00  0.00     0.219 C 
HETATM    6  O   UNL     1      26.133  49.792  37.610  1.00  0.00    -0.274 OA
HETATM    7  H   UNL     1      24.791  50.117  40.469  1.00  0.00     0.163 HD
BRANCH   5   8
HETATM    8  C   UNL     1      27.228  50.314  39.678  1.00  0.00     0.114 C 
BRANCH   8   9
HETATM    9  C   UNL     1      28.545  50.263  38.874  1.00  0.00     0.056 C 
HETATM   10  C   UNL     1      29.566  51.505  39.005  1.00  0.00    -0.030 C 
HETATM   11  C   UNL     1      29.990  51.829  37.528  1.00  0.00     0.016 C 
HETATM   12  C   UNL     1      30.914  51.210  39.811  1.00  0.00     0.012 C 
HETATM   13  C   UNL     1      28.929  52.822  39.527  1.00  0.00     0.013 C 
HETATM   14  C   UNL     1      31.604  49.908  39.330  1.00  0.00     0.055 C 
HETATM   15  C   UNL     1      30.828  51.370  41.387  1.00  0.00     0.008 C 
HETATM   16  C   UNL     1      30.620  48.804  39.256  1.00  0.00     0.012 A 
HETATM   17  C   UNL     1      29.260  48.942  39.081  1.00  0.00     0.056 A 
HETATM   18  S   UNL     1      31.046  47.161  39.402  1.00  0.00    -0.055 SA
HETATM   19  N   UNL     1      28.554  47.754  39.157  1.00  0.00    -0.227 NA
HETATM   20  C   UNL     1      29.388  46.760  39.330  1.00  0.00     0.174 A 
HETATM   21  C   UNL     1      32.262  51.347  41.992  1.00  0.00     0.020 C 
HETATM   22  C   UNL     1      30.197  52.752  41.722  1.00  0.00     0.128 C 
HETATM   23  C   UNL     1      28.843  52.950  41.048  1.00  0.00     0.033 C 
BRANCH  20  24
HETATM   24  N   UNL     1      29.137  45.434  39.502  1.00  0.00    -0.301 N 
HETATM   25  C   UNL     1      29.076  44.542  38.456  1.00  0.00     0.264 C 
HETATM   26  O   UNL     1      29.279  44.835  37.281  1.00  0.00    -0.267 OA
HETATM   27  H   UNL     1      28.919  45.120  40.436  1.00  0.00     0.171 HD
BRANCH  25  28
HETATM   28  C   UNL     1      28.708  43.181  38.850  1.00  0.00     0.072 A 
HETATM   29  S   UNL     1      29.145  41.801  37.924  1.00  0.00    -0.097 SA
HETATM   30  C   UNL     1      28.406  40.731  39.031  1.00  0.00     0.050 A 
HETATM   31  C   UNL     1      27.828  41.400  40.087  1.00  0.00     0.009 A 
HETATM   32  C   UNL     1      28.000  42.810  39.980  1.00  0.00     0.025 A 
ENDBRANCH  25  28
ENDBRANCH  20  24
BRANCH  15  33
HETATM   33  C   UNL     1      30.030  50.244  42.087  1.00  0.00     0.176 C 
BRANCH  33  34
HETATM   34  O   UNL     1      30.908  49.324  42.730  1.00  0.00    -0.400 OA
HETATM   35  H   UNL     1      31.024  49.634  43.646  1.00  0.00     0.209 HD
ENDBRANCH  33  34
ENDBRANCH  15  33
BRANCH  22  36
HETATM   36  O   UNL     1      31.051  53.816  41.283  1.00  0.00    -0.395 OA
HETATM   37  H   UNL     1      31.927  53.657  41.673  1.00  0.00     0.210 HD
ENDBRANCH  22  36
ENDBRANCH   8   9
ENDBRANCH   5   8
ENDBRANCH   1   4
TORSDOF 8
ENDMDL
MODEL 2
REMARK VINA RESULT:      -7.6     10.093     13.672
REMARK  8 active torsions:
REMARK  status: ('A' for Active; 'I' for Inactive)
REMARK    1  A    between atoms: C_3  and  C_4 
REMARK    2  A    between atoms: C_4  and  C_5 
REMARK       I    between atoms: C_5  and  N_6 
REMARK    3  A    between atoms: N_6  and  C_7 
REMARK    4  A    between atoms: C_14  and  N_15 
REMARK       I    between atoms: N_15  and  C_16 
REMARK    5  A    between atoms: C_16  and  C_17 
REMARK    6  A    between atoms: C_26  and  C_27 
REMARK    7  A    between atoms: C_27  and  O_28 
REMARK    8  A    between atoms: C_30  and  O_31 
ROOT
HETATM    1  C   UNL     1      16.972  52.720  49.943  1.00  0.00     0.216 C 
HETATM    2  C   UNL     1      15.531  52.882  50.165  1.00  0.00    -0.098 C 
HETATM    3  C   UNL     1      14.354  53.027  50.351  1.00  0.00     0.014 C 
ENDROOT
BRANCH   1   4
HETATM    4  N   UNL     1      17.230  51.615  49.058  1.00  0.00    -0.351 N 
HETATM    5  C   UNL     1      18.426  51.457  48.411  1.00  0.00     0.219 C 
HETATM    6  O   UNL     1      19.383  52.215  48.545  1.00  0.00    -0.274 OA
HETATM    7  H   UNL     1      16.416  51.095  48.724  1.00  0.00     0.163 HD
BRANCH   5   8
HETATM    8  C   UNL     1      18.515  50.229  47.519  1.00  0.00     0.114 C 
BRANCH   8   9
HETATM    9  C   UNL     1      18.319  48.918  48.310  1.00  0.00     0.056 C 
HETATM   10  C   UNL     1      17.150  47.912  47.837  1.00  0.00    -0.030 C 
HETATM   11  C   UNL     1      16.416  47.504  49.164  1.00  0.00     0.016 C 
HETATM   12  C   UNL     1      17.640  46.554  47.153  1.00  0.00     0.012 C 
HETATM   13  C   UNL     1      16.043  48.562  46.961  1.00  0.00     0.013 C 
HETATM   14  C   UNL     1      18.744  45.851  47.986  1.00  0.00     0.055 C 
HETATM   15  C   UNL     1      17.935  46.629  45.596  1.00  0.00     0.008 C 
HETATM   16  C   UNL     1      19.796  46.822  48.365  1.00  0.00     0.012 A 
HETATM   17  C   UNL     1      19.634  48.185  48.487  1.00  0.00     0.056 A 
HETATM   18  S   UNL     1      21.407  46.374  48.690  1.00  0.00    -0.055 SA
HETATM   19  N   UNL     1      20.805  48.875  48.748  1.00  0.00    -0.227 NA
HETATM   20  C   UNL     1      21.795  48.027  48.866  1.00  0.00     0.174 A 
HETATM   21  C   UNL     1      18.107  45.190  45.027  1.00  0.00     0.020 C 
HETATM   22  C   UNL     1      16.712  47.275  44.881  1.00  0.00     0.128 C 
HETATM   23  C   UNL     1      16.351  48.637  45.466  1.00  0.00     0.033 C 
BRANCH  20  24
HETATM   24  N   UNL     1      23.119  48.261  49.075  1.00  0.00    -0.301 N 
HETATM   25  C   UNL     1      23.858  49.125  48.300  1.00  0.00     0.264 C 
HETATM   26  O   UNL     1      23.400  49.796  47.379  1.00  0.00    -0.267 OA
HETATM   27  H   UNL     1      23.579  47.716  49.789  1.00  0.00     0.171 HD
BRANCH  25  28
HETATM   28  C   UNL     1      25.282  49.165  48.638  1.00  0.00     0.072 A 
HETATM   29  S   UNL     1      26.035  47.959  49.604  1.00  0.00    -0.097 SA
HETATM   30  C   UNL     1      27.565  48.707  49.476  1.00  0.00     0.050 A 
HETATM   31  C   UNL     1      27.516  49.857  48.720  1.00  0.00     0.009 A 
HETATM   32  C   UNL     1      26.200  50.121  48.241  1.00  0.00     0.025 A 
ENDBRANCH  25  28
ENDBRANCH  20  24
BRANCH  15  33
HETATM   33  C   UNL     1      19.224  47.407  45.240  1.00  0.00     0.176 C 
BRANCH  33  34
HETATM   34  O   UNL     1      20.261  46.515  44.840  1.00  0.00    -0.400 OA
HETATM   35  H   UNL     1      19.868  45.626  44.790  1.00  0.00     0.209 HD
ENDBRANCH  33  34
ENDBRANCH  15  33
BRANCH  22  36
HETATM   36  O   UNL     1      15.556  46.439  45.004  1.00  0.00    -0.395 OA
HETATM   37  H   UNL     1      15.794  45.568  44.643  1.00  0.00     0.210 HD
ENDBRANCH  22  36
ENDBRANCH   8   9
ENDBRANCH   5   8
ENDBRANCH   1   4
TORSDOF 8
ENDMDL
MODEL 3
REMARK VINA RESULT:      -7.5      9.844     12.878
REMARK  8 active torsions:
REMARK  status: ('A' for Active; 'I' for Inactive)
REMARK    1  A    between atoms: C_3  and  C_4 
REMARK    2  A    between atoms: C_4  and  C_5 
REMARK       I    between atoms: C_5  and  N_6 
REMARK    3  A    between atoms: N_6  and  C_7 
REMARK    4  A    between atoms: C_14  and  N_15 
REMARK       I    between atoms: N_15  and  C_16 
REMARK    5  A    between atoms: C_16  and  C_17 
REMARK    6  A    between atoms: C_26  and  C_27 
REMARK    7  A    between atoms: C_27  and  O_28 
REMARK    8  A    between atoms: C_30  and  O_31 
ROOT
HETATM    1  C   UNL     1      24.793  48.258  49.550  1.00  0.00     0.216 C 
HETATM    2  C   UNL     1      25.827  49.084  48.918  1.00  0.00    -0.098 C 
HETATM    3  C   UNL     1      26.683  49.752  48.406  1.00  0.00     0.014 C 
ENDROOT
BRANCH   1   4
HETATM    4  N   UNL     1      23.509  48.498  48.946  1.00  0.00    -0.351 N 
HETATM    5  C   UNL     1      22.776  49.625  49.203  1.00  0.00     0.219 C 
HETATM    6  O   UNL     1      23.152  50.533  49.939  1.00  0.00    -0.274 OA
HETATM    7  H   UNL     1      23.043  47.693  48.523  1.00  0.00     0.163 HD
BRANCH   5   8
HETATM    8  C   UNL     1      21.445  49.706  48.473  1.00  0.00     0.114 C 
BRANCH   8   9
HETATM    9  C   UNL     1      20.323  48.955  49.221  1.00  0.00     0.056 C 
HETATM   10  C   UNL     1      19.048  49.803  49.728  1.00  0.00    -0.030 C 
HETATM   11  C   UNL     1      18.813  49.324  51.205  1.00  0.00     0.016 C 
HETATM   12  C   UNL     1      17.683  49.537  48.941  1.00  0.00     0.012 C 
HETATM   13  C   UNL     1      19.286  51.333  49.847  1.00  0.00     0.013 C 
HETATM   14  C   UNL     1      17.384  48.022  48.796  1.00  0.00     0.055 C 
HETATM   15  C   UNL     1      17.470  50.383  47.616  1.00  0.00     0.008 C 
HETATM   16  C   UNL     1      18.584  47.308  48.304  1.00  0.00     0.012 A 
HETATM   17  C   UNL     1      19.890  47.719  48.459  1.00  0.00     0.056 A 
HETATM   18  S   UNL     1      18.510  45.846  47.432  1.00  0.00    -0.055 SA
HETATM   19  N   UNL     1      20.817  46.922  47.809  1.00  0.00    -0.227 NA
HETATM   20  C   UNL     1      20.204  45.919  47.234  1.00  0.00     0.174 A 
HETATM   21  C   UNL     1      15.996  50.240  47.137  1.00  0.00     0.020 C 
HETATM   22  C   UNL     1      17.719  51.887  47.932  1.00  0.00     0.128 C 
HETATM   23  C   UNL     1      19.089  52.129  48.557  1.00  0.00     0.033 C 
BRANCH  20  24
HETATM   24  N   UNL     1      20.708  44.923  46.455  1.00  0.00    -0.301 N 
HETATM   25  C   UNL     1      21.371  43.833  46.970  1.00  0.00     0.264 C 
HETATM   26  O   UNL     1      21.542  43.627  48.169  1.00  0.00    -0.267 OA
HETATM   27  H   UNL     1      20.644  45.039  45.455  1.00  0.00     0.171 HD
BRANCH  25  28
HETATM   28  C   UNL     1      21.908  42.924  45.956  1.00  0.00     0.072 A 
HETATM   29  S   UNL     1      21.850  41.215  46.125  1.00  0.00    -0.097 SA
HETATM   30  C   UNL     1      22.597  40.966  44.609  1.00  0.00     0.050 A 
HETATM   31  C   UNL     1      22.896  42.153  43.980  1.00  0.00     0.009 A 
HETATM   32  C   UNL     1      22.502  43.281  44.757  1.00  0.00     0.025 A 
ENDBRANCH  25  28
ENDBRANCH  20  24
BRANCH  15  33
HETATM   33  C   UNL     1      18.368  49.937  46.439  1.00  0.00     0.176 C 
BRANCH  33  34
HETATM   34  O   UNL     1      17.607  49.244  45.454  1.00  0.00    -0.400 OA
HETATM   35  H   UNL     1      16.821  48.883  45.903  1.00  0.00     0.209 HD
ENDBRANCH  33  34
ENDBRANCH  15  33
BRANCH  22  36
HETATM   36  O   UNL     1      16.738  52.378  48.852  1.00  0.00    -0.395 OA
HETATM   37  H   UNL     1      16.588  53.315  48.637  1.00  0.00     0.210 HD
ENDBRANCH  22  36
ENDBRANCH   8   9
ENDBRANCH   5   8
ENDBRANCH   1   4
TORSDOF 8
ENDMDL
MODEL 4
REMARK VINA RESULT:      -7.4     11.278     12.890
REMARK  8 active torsions:
REMARK  status: ('A' for Active; 'I' for Inactive)
REMARK    1  A    between atoms: C_3  and  C_4 
REMARK    2  A    between atoms: C_4  and  C_5 
REMARK       I    between atoms: C_5  and  N_6 
REMARK    3  A    between atoms: N_6  and  C_7 
REMARK    4  A    between atoms: C_14  and  N_15 
REMARK       I    between atoms: N_15  and  C_16 
REMARK    5  A    between atoms: C_16  and  C_17 
REMARK    6  A    between atoms: C_26  and  C_27 
REMARK    7  A    between atoms: C_27  and  O_28 
REMARK    8  A    between atoms: C_30  and  O_31 
ROOT
HETATM    1  C   UNL     1      16.857  44.148  45.421  1.00  0.00     0.216 C 
HETATM    2  C   UNL     1      17.812  44.013  44.317  1.00  0.00    -0.098 C 
HETATM    3  C   UNL     1      18.586  43.895  43.406  1.00  0.00     0.014 C 
ENDROOT
BRANCH   1   4
HETATM    4  N   UNL     1      17.143  45.322  46.202  1.00  0.00    -0.351 N 
HETATM    5  C   UNL     1      17.967  45.296  47.294  1.00  0.00     0.219 C 
HETATM    6  O   UNL     1      18.552  44.289  47.685  1.00  0.00    -0.274 OA
HETATM    7  H   UNL     1      16.515  46.120  46.077  1.00  0.00     0.163 HD
BRANCH   5   8
HETATM    8  C   UNL     1      18.152  46.633  47.992  1.00  0.00     0.114 C 
BRANCH   8   9
HETATM    9  C   UNL     1      18.997  47.616  47.155  1.00  0.00     0.056 C 
HETATM   10  C   UNL     1      18.365  49.060  46.810  1.00  0.00    -0.030 C 
HETATM   11  C   UNL     1      18.655  49.266  45.281  1.00  0.00     0.016 C 
HETATM   12  C   UNL     1      19.024  50.303  47.569  1.00  0.00     0.012 C 
HETATM   13  C   UNL     1      16.819  49.143  46.930  1.00  0.00     0.013 C 
HETATM   14  C   UNL     1      20.572  50.282  47.479  1.00  0.00     0.055 C 
HETATM   15  C   UNL     1      18.450  50.616  49.014  1.00  0.00     0.008 C 
HETATM   16  C   UNL     1      21.088  48.939  47.831  1.00  0.00     0.012 A 
HETATM   17  C   UNL     1      20.397  47.752  47.720  1.00  0.00     0.056 A 
HETATM   18  S   UNL     1      22.647  48.673  48.462  1.00  0.00    -0.055 SA
HETATM   19  N   UNL     1      21.073  46.652  48.219  1.00  0.00    -0.227 NA
HETATM   20  C   UNL     1      22.256  47.021  48.640  1.00  0.00     0.174 A 
HETATM   21  C   UNL     1      18.966  52.005  49.491  1.00  0.00     0.020 C 
HETATM   22  C   UNL     1      16.897  50.692  48.936  1.00  0.00     0.128 C 
HETATM   23  C   UNL     1      16.285  49.431  48.333  1.00  0.00     0.033 C 
BRANCH  20  24
HETATM   24  N   UNL     1      23.232  46.288  49.243  1.00  0.00    -0.301 N 
HETATM   25  C   UNL     1      23.718  45.113  48.717  1.00  0.00     0.264 C 
HETATM   26  O   UNL     1      23.358  44.630  47.646  1.00  0.00    -0.267 OA
HETATM   27  H   UNL     1      23.552  46.598  50.148  1.00  0.00     0.171 HD
BRANCH  25  28
HETATM   28  C   UNL     1      24.702  44.439  49.566  1.00  0.00     0.072 A 
HETATM   29  S   UNL     1      24.272  43.186  50.661  1.00  0.00    -0.097 SA
HETATM   30  C   UNL     1      25.889  42.971  51.166  1.00  0.00     0.050 A 
HETATM   31  C   UNL     1      26.749  43.834  50.525  1.00  0.00     0.009 A 
HETATM   32  C   UNL     1      26.064  44.682  49.607  1.00  0.00     0.025 A 
ENDBRANCH  25  28
ENDBRANCH  20  24
BRANCH  15  33
HETATM   33  C   UNL     1      18.873  49.589  50.091  1.00  0.00     0.176 C 
BRANCH  33  34
HETATM   34  O   UNL     1      19.930  50.103  50.896  1.00  0.00    -0.400 OA
HETATM   35  H   UNL     1      19.698  51.023  51.117  1.00  0.00     0.209 HD
ENDBRANCH  33  34
ENDBRANCH  15  33
BRANCH  22  36
HETATM   36  O   UNL     1      16.487  51.796  48.122  1.00  0.00    -0.395 OA
HETATM   37  H   UNL     1      17.296  52.239  47.812  1.00  0.00     0.210 HD
ENDBRANCH  22  36
ENDBRANCH   8   9
ENDBRANCH   5   8
ENDBRANCH   1   4
TORSDOF 8
ENDMDL
MODEL 5
REMARK VINA RESULT:      -7.0     11.543     13.161
REMARK  8 active torsions:
REMARK  status: ('A' for Active; 'I' for Inactive)
REMARK    1  A    between atoms: C_3  and  C_4 
REMARK    2  A    between atoms: C_4  and  C_5 
REMARK       I    between atoms: C_5  and  N_6 
REMARK    3  A    between atoms: N_6  and  C_7 
REMARK    4  A    between atoms: C_14  and  N_15 
REMARK       I    between atoms: N_15  and  C_16 
REMARK    5  A    between atoms: C_16  and  C_17 
REMARK    6  A    between atoms: C_26  and  C_27 
REMARK    7  A    between atoms: C_27  and  O_28 
REMARK    8  A    between atoms: C_30  and  O_31 
ROOT
HETATM    1  C   UNL     1      15.460  45.967  43.978  1.00  0.00     0.216 C 
HETATM    2  C   UNL     1      13.996  45.891  43.941  1.00  0.00    -0.098 C 
HETATM    3  C   UNL     1      12.798  45.818  43.902  1.00  0.00     0.014 C 
ENDROOT
BRANCH   1   4
HETATM    4  N   UNL     1      15.899  46.803  45.064  1.00  0.00    -0.351 N 
HETATM    5  C   UNL     1      17.032  46.537  45.784  1.00  0.00     0.219 C 
HETATM    6  O   UNL     1      17.781  45.590  45.556  1.00  0.00    -0.274 OA
HETATM    7  H   UNL     1      15.211  47.453  45.449  1.00  0.00     0.163 HD
BRANCH   5   8
HETATM    8  C   UNL     1      17.338  47.533  46.891  1.00  0.00     0.114 C 
BRANCH   8   9
HETATM    9  C   UNL     1      18.409  48.562  46.469  1.00  0.00     0.056 C 
HETATM   10  C   UNL     1      17.955  50.097  46.276  1.00  0.00    -0.030 C 
HETATM   11  C   UNL     1      18.611  50.538  44.920  1.00  0.00     0.016 C 
HETATM   12  C   UNL     1      18.478  51.119  47.388  1.00  0.00     0.012 C 
HETATM   13  C   UNL     1      16.431  50.305  46.059  1.00  0.00     0.013 C 
HETATM   14  C   UNL     1      19.999  50.965  47.646  1.00  0.00     0.055 C 
HETATM   15  C   UNL     1      17.593  51.228  48.700  1.00  0.00     0.008 C 
HETATM   16  C   UNL     1      20.345  49.539  47.840  1.00  0.00     0.012 A 
HETATM   17  C   UNL     1      19.639  48.461  47.350  1.00  0.00     0.056 A 
HETATM   18  S   UNL     1      21.692  49.018  48.742  1.00  0.00    -0.055 SA
HETATM   19  N   UNL     1      20.117  47.231  47.768  1.00  0.00    -0.227 NA
HETATM   20  C   UNL     1      21.184  47.406  48.506  1.00  0.00     0.174 A 
HETATM   21  C   UNL     1      18.053  52.457  49.538  1.00  0.00     0.020 C 
HETATM   22  C   UNL     1      16.110  51.466  48.291  1.00  0.00     0.128 C 
HETATM   23  C   UNL     1      15.593  50.395  47.335  1.00  0.00     0.033 C 
BRANCH  20  24
HETATM   24  N   UNL     1      21.948  46.488  49.160  1.00  0.00    -0.301 N 
HETATM   25  C   UNL     1      22.670  45.514  48.510  1.00  0.00     0.264 C 
HETATM   26  O   UNL     1      22.732  45.396  47.288  1.00  0.00    -0.267 OA
HETATM   27  H   UNL     1      21.917  46.494  50.169  1.00  0.00     0.171 HD
BRANCH  25  28
HETATM   28  C   UNL     1      23.353  44.577  49.403  1.00  0.00     0.072 A 
HETATM   29  S   UNL     1      24.509  45.088  50.567  1.00  0.00    -0.097 SA
HETATM   30  C   UNL     1      24.748  43.496  51.137  1.00  0.00     0.050 A 
HETATM   31  C   UNL     1      23.973  42.583  50.458  1.00  0.00     0.009 A 
HETATM   32  C   UNL     1      23.172  43.206  49.457  1.00  0.00     0.025 A 
ENDBRANCH  25  28
ENDBRANCH  20  24
BRANCH  15  33
HETATM   33  C   UNL     1      17.692  49.993  49.626  1.00  0.00     0.176 C 
BRANCH  33  34
HETATM   34  O   UNL     1      18.533  50.263  50.744  1.00  0.00    -0.400 OA
HETATM   35  H   UNL     1      18.612  49.433  51.248  1.00  0.00     0.209 HD
ENDBRANCH  33  34
ENDBRANCH  15  33
BRANCH  22  36
HETATM   36  O   UNL     1      15.964  52.730  47.633  1.00  0.00    -0.395 OA
HETATM   37  H   UNL     1      15.454  52.571  46.820  1.00  0.00     0.210 HD
ENDBRANCH  22  36
ENDBRANCH   8   9
ENDBRANCH   5   8
ENDBRANCH   1   4
TORSDOF 8
ENDMDL
MODEL 6
REMARK VINA RESULT:      -6.7     10.338     13.576
REMARK  8 active torsions:
REMARK  status: ('A' for Active; 'I' for Inactive)
REMARK    1  A    between atoms: C_3  and  C_4 
REMARK    2  A    between atoms: C_4  and  C_5 
REMARK       I    between atoms: C_5  and  N_6 
REMARK    3  A    between atoms: N_6  and  C_7 
REMARK    4  A    between atoms: C_14  and  N_15 
REMARK       I    between atoms: N_15  and  C_16 
REMARK    5  A    between atoms: C_16  and  C_17 
REMARK    6  A    between atoms: C_26  and  C_27 
REMARK    7  A    between atoms: C_27  and  O_28 
REMARK    8  A    between atoms: C_30  and  O_31 
ROOT
HETATM    1  C   UNL     1      22.643  50.744  49.057  1.00  0.00     0.216 C 
HETATM    2  C   UNL     1      23.930  50.350  48.474  1.00  0.00    -0.098 C 
HETATM    3  C   UNL     1      24.988  50.028  48.008  1.00  0.00     0.014 C 
ENDROOT
BRANCH   1   4
HETATM    4  N   UNL     1      21.558  50.403  48.176  1.00  0.00    -0.351 N 
HETATM    5  C   UNL     1      20.387  51.110  48.146  1.00  0.00     0.219 C 
HETATM    6  O   UNL     1      20.168  52.102  48.836  1.00  0.00    -0.274 OA
HETATM    7  H   UNL     1      21.581  49.470  47.760  1.00  0.00     0.163 HD
BRANCH   5   8
HETATM    8  C   UNL     1      19.356  50.604  47.150  1.00  0.00     0.114 C 
BRANCH   8   9
HETATM    9  C   UNL     1      18.074  50.098  47.844  1.00  0.00     0.056 C 
HETATM   10  C   UNL     1      16.650  50.581  47.260  1.00  0.00    -0.030 C 
HETATM   11  C   UNL     1      15.823  51.001  48.527  1.00  0.00     0.016 C 
HETATM   12  C   UNL     1      15.794  49.462  46.508  1.00  0.00     0.012 C 
HETATM   13  C   UNL     1      16.705  51.864  46.386  1.00  0.00     0.013 C 
HETATM   14  C   UNL     1      15.696  48.154  47.336  1.00  0.00     0.055 C 
HETATM   15  C   UNL     1      16.129  49.248  44.972  1.00  0.00     0.008 C 
HETATM   16  C   UNL     1      17.037  47.752  47.820  1.00  0.00     0.012 A 
HETATM   17  C   UNL     1      18.109  48.593  48.025  1.00  0.00     0.056 A 
HETATM   18  S   UNL     1      17.456  46.140  48.179  1.00  0.00    -0.055 SA
HETATM   19  N   UNL     1      19.280  47.944  48.377  1.00  0.00    -0.227 NA
HETATM   20  C   UNL     1      19.054  46.659  48.478  1.00  0.00     0.174 A 
HETATM   21  C   UNL     1      15.031  48.359  44.318  1.00  0.00     0.020 C 
HETATM   22  C   UNL     1      16.108  50.628  44.254  1.00  0.00     0.128 C 
HETATM   23  C   UNL     1      17.043  51.639  44.912  1.00  0.00     0.033 C 
BRANCH  20  24
HETATM   24  N   UNL     1      19.918  45.644  48.754  1.00  0.00    -0.301 N 
HETATM   25  C   UNL     1      21.157  45.534  48.166  1.00  0.00     0.264 C 
HETATM   26  O   UNL     1      21.623  46.348  47.372  1.00  0.00    -0.267 OA
HETATM   27  H   UNL     1      19.592  44.912  49.367  1.00  0.00     0.171 HD
BRANCH  25  28
HETATM   28  C   UNL     1      21.891  44.323  48.536  1.00  0.00     0.072 A 
HETATM   29  S   UNL     1      22.285  43.098  47.397  1.00  0.00    -0.097 SA
HETATM   30  C   UNL     1      23.094  42.161  48.573  1.00  0.00     0.050 A 
HETATM   31  C   UNL     1      23.067  42.755  49.815  1.00  0.00     0.009 A 
HETATM   32  C   UNL     1      22.370  43.998  49.793  1.00  0.00     0.025 A 
ENDBRANCH  25  28
ENDBRANCH  20  24
BRANCH  15  33
HETATM   33  C   UNL     1      17.483  48.543  44.719  1.00  0.00     0.176 C 
BRANCH  33  34
HETATM   34  O   UNL     1      17.284  47.191  44.317  1.00  0.00    -0.400 OA
HETATM   35  H   UNL     1      16.535  46.847  44.836  1.00  0.00     0.209 HD
ENDBRANCH  33  34
ENDBRANCH  15  33
BRANCH  22  36
HETATM   36  O   UNL     1      14.790  51.188  44.276  1.00  0.00    -0.395 OA
HETATM   37  H   UNL     1      14.416  51.001  45.154  1.00  0.00     0.210 HD
ENDBRANCH  22  36
ENDBRANCH   8   9
ENDBRANCH   5   8
ENDBRANCH   1   4
TORSDOF 8
ENDMDL
MODEL 7
REMARK VINA RESULT:      -6.6     10.936     12.625
REMARK  8 active torsions:
REMARK  status: ('A' for Active; 'I' for Inactive)
REMARK    1  A    between atoms: C_3  and  C_4 
REMARK    2  A    between atoms: C_4  and  C_5 
REMARK       I    between atoms: C_5  and  N_6 
REMARK    3  A    between atoms: N_6  and  C_7 
REMARK    4  A    between atoms: C_14  and  N_15 
REMARK       I    between atoms: N_15  and  C_16 
REMARK    5  A    between atoms: C_16  and  C_17 
REMARK    6  A    between atoms: C_26  and  C_27 
REMARK    7  A    between atoms: C_27  and  O_28 
REMARK    8  A    between atoms: C_30  and  O_31 
ROOT
HETATM    1  C   UNL     1      14.876  48.107  43.895  1.00  0.00     0.216 C 
HETATM    2  C   UNL     1      14.665  49.502  43.494  1.00  0.00    -0.098 C 
HETATM    3  C   UNL     1      14.480  50.640  43.160  1.00  0.00     0.014 C 
ENDROOT
BRANCH   1   4
HETATM    4  N   UNL     1      15.916  48.013  44.885  1.00  0.00    -0.351 N 
HETATM    5  C   UNL     1      15.654  48.015  46.228  1.00  0.00     0.219 C 
HETATM    6  O   UNL     1      14.524  48.069  46.705  1.00  0.00    -0.274 OA
HETATM    7  H   UNL     1      16.869  48.203  44.568  1.00  0.00     0.163 HD
BRANCH   5   8
HETATM    8  C   UNL     1      16.879  47.906  47.122  1.00  0.00     0.114 C 
BRANCH   8   9
HETATM    9  C   UNL     1      18.070  48.726  46.581  1.00  0.00     0.056 C 
HETATM   10  C   UNL     1      18.055  50.324  46.800  1.00  0.00    -0.030 C 
HETATM   11  C   UNL     1      18.463  50.920  45.406  1.00  0.00     0.016 C 
HETATM   12  C   UNL     1      19.109  50.887  47.862  1.00  0.00     0.012 C 
HETATM   13  C   UNL     1      16.655  50.931  47.091  1.00  0.00     0.013 C 
HETATM   14  C   UNL     1      20.533  50.322  47.620  1.00  0.00     0.055 C 
HETATM   15  C   UNL     1      18.641  50.873  49.377  1.00  0.00     0.008 C 
HETATM   16  C   UNL     1      20.479  48.851  47.453  1.00  0.00     0.012 A 
HETATM   17  C   UNL     1      19.391  48.125  47.020  1.00  0.00     0.056 A 
HETATM   18  S   UNL     1      21.790  47.822  47.804  1.00  0.00    -0.055 SA
HETATM   19  N   UNL     1      19.572  46.753  47.057  1.00  0.00    -0.227 NA
HETATM   20  C   UNL     1      20.788  46.484  47.459  1.00  0.00     0.174 A 
HETATM   21  C   UNL     1      19.631  51.712  50.237  1.00  0.00     0.020 C 
HETATM   22  C   UNL     1      17.241  51.545  49.480  1.00  0.00     0.128 C 
HETATM   23  C   UNL     1      16.216  50.896  48.555  1.00  0.00     0.033 C 
BRANCH  20  24
HETATM   24  N   UNL     1      21.383  45.281  47.686  1.00  0.00    -0.301 N 
HETATM   25  C   UNL     1      22.122  44.620  46.732  1.00  0.00     0.264 C 
HETATM   26  O   UNL     1      22.353  45.056  45.607  1.00  0.00    -0.267 OA
HETATM   27  H   UNL     1      21.206  44.836  48.574  1.00  0.00     0.171 HD
BRANCH  25  28
HETATM   28  C   UNL     1      22.601  43.302  47.152  1.00  0.00     0.072 A 
HETATM   29  S   UNL     1      23.151  42.120  46.033  1.00  0.00    -0.097 SA
HETATM   30  C   UNL     1      23.518  41.007  47.275  1.00  0.00     0.050 A 
HETATM   31  C   UNL     1      23.225  41.511  48.522  1.00  0.00     0.009 A 
HETATM   32  C   UNL     1      22.694  42.831  48.451  1.00  0.00     0.025 A 
ENDBRANCH  25  28
ENDBRANCH  20  24
BRANCH  15  33
HETATM   33  C   UNL     1      18.593  49.459  50.004  1.00  0.00     0.176 C 
BRANCH  33  34
HETATM   34  O   UNL     1      18.970  49.500  51.378  1.00  0.00    -0.400 OA
HETATM   35  H   UNL     1      19.511  50.300  51.501  1.00  0.00     0.209 HD
ENDBRANCH  33  34
ENDBRANCH  15  33
BRANCH  22  36
HETATM   36  O   UNL     1      17.319  52.930  49.124  1.00  0.00    -0.395 OA
HETATM   37  H   UNL     1      17.977  53.005  48.412  1.00  0.00     0.210 HD
ENDBRANCH  22  36
ENDBRANCH   8   9
ENDBRANCH   5   8
ENDBRANCH   1   4
TORSDOF 8
ENDMDL
MODEL 8
REMARK VINA RESULT:      -6.4      2.898      7.864
REMARK  8 active torsions:
REMARK  status: ('A' for Active; 'I' for Inactive)
REMARK    1  A    between atoms: C_3  and  C_4 
REMARK    2  A    between atoms: C_4  and  C_5 
REMARK       I    between atoms: C_5  and  N_6 
REMARK    3  A    between atoms: N_6  and  C_7 
REMARK    4  A    between atoms: C_14  and  N_15 
REMARK       I    between atoms: N_15  and  C_16 
REMARK    5  A    between atoms: C_16  and  C_17 
REMARK    6  A    between atoms: C_26  and  C_27 
REMARK    7  A    between atoms: C_27  and  O_28 
REMARK    8  A    between atoms: C_30  and  O_31 
ROOT
HETATM    1  C   UNL     1      27.950  41.463  40.999  1.00  0.00     0.216 C 
HETATM    2  C   UNL     1      28.706  41.125  42.209  1.00  0.00    -0.098 C 
HETATM    3  C   UNL     1      29.329  40.837  43.194  1.00  0.00     0.014 C 
ENDROOT
BRANCH   1   4
HETATM    4  N   UNL     1      27.656  42.871  40.958  1.00  0.00    -0.351 N 
HETATM    5  C   UNL     1      28.290  43.730  40.102  1.00  0.00     0.219 C 
HETATM    6  O   UNL     1      29.136  43.379  39.283  1.00  0.00    -0.274 OA
HETATM    7  H   UNL     1      27.148  43.256  41.757  1.00  0.00     0.163 HD
BRANCH   5   8
HETATM    8  C   UNL     1      27.845  45.180  40.200  1.00  0.00     0.114 C 
BRANCH   8   9
HETATM    9  C   UNL     1      27.969  45.920  38.852  1.00  0.00     0.056 C 
HETATM   10  C   UNL     1      26.641  46.086  37.950  1.00  0.00    -0.030 C 
HETATM   11  C   UNL     1      27.096  45.699  36.498  1.00  0.00     0.016 C 
HETATM   12  C   UNL     1      26.046  47.566  37.861  1.00  0.00     0.012 C 
HETATM   13  C   UNL     1      25.498  45.088  38.281  1.00  0.00     0.013 C 
HETATM   14  C   UNL     1      27.140  48.612  37.525  1.00  0.00     0.055 C 
HETATM   15  C   UNL     1      25.064  47.990  39.033  1.00  0.00     0.008 C 
HETATM   16  C   UNL     1      28.318  48.421  38.403  1.00  0.00     0.012 A 
HETATM   17  C   UNL     1      28.685  47.245  39.020  1.00  0.00     0.056 A 
HETATM   18  S   UNL     1      29.400  49.675  38.799  1.00  0.00    -0.055 SA
HETATM   19  N   UNL     1      29.767  47.367  39.874  1.00  0.00    -0.227 NA
HETATM   20  C   UNL     1      30.214  48.596  39.841  1.00  0.00     0.174 A 
HETATM   21  C   UNL     1      24.344  49.318  38.656  1.00  0.00     0.020 C 
HETATM   22  C   UNL     1      23.972  46.893  39.199  1.00  0.00     0.128 C 
HETATM   23  C   UNL     1      24.571  45.508  39.422  1.00  0.00     0.033 C 
BRANCH  20  24
HETATM   24  N   UNL     1      31.224  49.174  40.548  1.00  0.00    -0.301 N 
HETATM   25  C   UNL     1      31.034  49.769  41.774  1.00  0.00     0.264 C 
HETATM   26  O   UNL     1      29.959  49.808  42.368  1.00  0.00    -0.267 OA
HETATM   27  H   UNL     1      32.131  49.219  40.109  1.00  0.00     0.171 HD
BRANCH  25  28
HETATM   28  C   UNL     1      32.233  50.406  42.323  1.00  0.00     0.072 A 
HETATM   29  S   UNL     1      33.762  50.322  41.543  1.00  0.00    -0.097 SA
HETATM   30  C   UNL     1      34.510  51.277  42.745  1.00  0.00     0.050 A 
HETATM   31  C   UNL     1      33.624  51.654  43.730  1.00  0.00     0.009 A 
HETATM   32  C   UNL     1      32.314  51.149  43.488  1.00  0.00     0.025 A 
ENDBRANCH  25  28
ENDBRANCH  20  24
BRANCH  15  33
HETATM   33  C   UNL     1      25.774  48.235  40.385  1.00  0.00     0.176 C 
BRANCH  33  34
HETATM   34  O   UNL     1      26.134  49.606  40.528  1.00  0.00    -0.400 OA
HETATM   35  H   UNL     1      26.203  49.784  41.483  1.00  0.00     0.209 HD
ENDBRANCH  33  34
ENDBRANCH  15  33
BRANCH  22  36
HETATM   36  O   UNL     1      23.150  46.819  38.029  1.00  0.00    -0.395 OA
HETATM   37  H   UNL     1      22.589  47.614  38.023  1.00  0.00     0.210 HD
ENDBRANCH  22  36
ENDBRANCH   8   9
ENDBRANCH   5   8
ENDBRANCH   1   4
TORSDOF 8
ENDMDL
MODEL 9
REMARK VINA RESULT:      -6.3      3.922      8.376
REMARK  8 active torsions:
REMARK  status: ('A' for Active; 'I' for Inactive)
REMARK    1  A    between atoms: C_3  and  C_4 
REMARK    2  A    between atoms: C_4  and  C_5 
REMARK       I    between atoms: C_5  and  N_6 
REMARK    3  A    between atoms: N_6  and  C_7 
REMARK    4  A    between atoms: C_14  and  N_15 
REMARK       I    between atoms: N_15  and  C_16 
REMARK    5  A    between atoms: C_16  and  C_17 
REMARK    6  A    between atoms: C_26  and  C_27 
REMARK    7  A    between atoms: C_27  and  O_28 
REMARK    8  A    between atoms: C_30  and  O_31 
ROOT
HETATM    1  C   UNL     1      28.796  52.929  39.385  1.00  0.00     0.216 C 
HETATM    2  C   UNL     1      29.946  53.205  40.252  1.00  0.00    -0.098 C 
HETATM    3  C   UNL     1      30.888  53.443  40.957  1.00  0.00     0.014 C 
ENDROOT
BRANCH   1   4
HETATM    4  N   UNL     1      28.092  51.754  39.828  1.00  0.00    -0.351 N 
HETATM    5  C   UNL     1      27.564  50.842  38.956  1.00  0.00     0.219 C 
HETATM    6  O   UNL     1      27.663  50.925  37.735  1.00  0.00    -0.274 OA
HETATM    7  H   UNL     1      27.774  51.750  40.800  1.00  0.00     0.163 HD
BRANCH   5   8
HETATM    8  C   UNL     1      26.858  49.664  39.609  1.00  0.00     0.114 C 
BRANCH   8   9
HETATM    9  C   UNL     1      26.227  48.714  38.569  1.00  0.00     0.056 C 
HETATM   10  C   UNL     1      26.956  47.304  38.284  1.00  0.00    -0.030 C 
HETATM   11  C   UNL     1      26.983  47.180  36.719  1.00  0.00     0.016 C 
HETATM   12  C   UNL     1      26.196  46.009  38.830  1.00  0.00     0.012 C 
HETATM   13  C   UNL     1      28.449  47.244  38.707  1.00  0.00     0.013 C 
HETATM   14  C   UNL     1      24.697  46.006  38.433  1.00  0.00     0.055 C 
HETATM   15  C   UNL     1      26.480  45.625  40.343  1.00  0.00     0.008 C 
HETATM   16  C   UNL     1      24.082  47.317  38.744  1.00  0.00     0.012 A 
HETATM   17  C   UNL     1      24.747  48.521  38.834  1.00  0.00     0.056 A 
HETATM   18  S   UNL     1      22.421  47.519  39.062  1.00  0.00    -0.055 SA
HETATM   19  N   UNL     1      23.953  49.578  39.245  1.00  0.00    -0.227 NA
HETATM   20  C   UNL     1      22.721  49.165  39.400  1.00  0.00     0.174 A 
HETATM   21  C   UNL     1      25.919  44.202  40.634  1.00  0.00     0.020 C 
HETATM   22  C   UNL     1      28.018  45.583  40.574  1.00  0.00     0.128 C 
HETATM   23  C   UNL     1      28.702  46.886  40.172  1.00  0.00     0.033 C 
BRANCH  20  24
HETATM   24  N   UNL     1      21.623  49.844  39.832  1.00  0.00    -0.301 N 
HETATM   25  C   UNL     1      20.759  50.491  38.978  1.00  0.00     0.264 C 
HETATM   26  O   UNL     1      20.862  50.490  37.754  1.00  0.00    -0.267 OA
HETATM   27  H   UNL     1      21.491  49.926  40.829  1.00  0.00     0.171 HD
BRANCH  25  28
HETATM   28  C   UNL     1      19.693  51.233  39.654  1.00  0.00     0.072 A 
HETATM   29  S   UNL     1      18.210  51.628  38.880  1.00  0.00    -0.097 SA
HETATM   30  C   UNL     1      17.598  52.392  40.279  1.00  0.00     0.050 A 
HETATM   31  C   UNL     1      18.498  52.359  41.320  1.00  0.00     0.009 A 
HETATM   32  C   UNL     1      19.706  51.694  40.958  1.00  0.00     0.025 A 
ENDBRANCH  25  28
ENDBRANCH  20  24
BRANCH  15  33
HETATM   33  C   UNL     1      25.821  46.582  41.365  1.00  0.00     0.176 C 
BRANCH  33  34
HETATM   34  O   UNL     1      24.731  45.946  42.027  1.00  0.00    -0.400 OA
HETATM   35  H   UNL     1      24.211  45.487  41.343  1.00  0.00     0.209 HD
ENDBRANCH  33  34
ENDBRANCH  15  33
BRANCH  22  36
HETATM   36  O   UNL     1      28.615  44.533  39.802  1.00  0.00    -0.395 OA
HETATM   37  H   UNL     1      29.510  44.829  39.563  1.00  0.00     0.210 HD
ENDBRANCH  22  36
ENDBRANCH   8   9
ENDBRANCH   5   8
ENDBRANCH   1   4
TORSDOF 8
ENDMDL
MODEL 10
REMARK VINA RESULT:      -6.3      7.380     11.467
REMARK  8 active torsions:
REMARK  status: ('A' for Active; 'I' for Inactive)
REMARK    1  A    between atoms: C_3  and  C_4 
REMARK    2  A    between atoms: C_4  and  C_5 
REMARK       I    between atoms: C_5  and  N_6 
REMARK    3  A    between atoms: N_6  and  C_7 
REMARK    4  A    between atoms: C_14  and  N_15 
REMARK       I    between atoms: N_15  and  C_16 
REMARK    5  A    between atoms: C_16  and  C_17 
REMARK    6  A    between atoms: C_26  and  C_27 
REMARK    7  A    between atoms: C_27  and  O_28 
REMARK    8  A    between atoms: C_30  and  O_31 
ROOT
HETATM    1  C   UNL     1      38.959  54.022  48.498  1.00  0.00     0.216 C 
HETATM    2  C   UNL     1      40.420  54.132  48.437  1.00  0.00    -0.098 C 
HETATM    3  C   UNL     1      41.616  54.226  48.400  1.00  0.00     0.014 C 
ENDROOT
BRANCH   1   4
HETATM    4  N   UNL     1      38.464  53.202  47.424  1.00  0.00    -0.351 N 
HETATM    5  C   UNL     1      37.782  53.721  46.357  1.00  0.00     0.219 C 
HETATM    6  O   UNL     1      37.557  54.919  46.207  1.00  0.00    -0.274 OA
HETATM    7  H   UNL     1      38.409  52.197  47.602  1.00  0.00     0.163 HD
BRANCH   5   8
HETATM    8  C   UNL     1      37.339  52.702  45.320  1.00  0.00     0.114 C 
BRANCH   8   9
HETATM    9  C   UNL     1      37.484  53.236  43.879  1.00  0.00     0.056 C 
HETATM   10  C   UNL     1      38.972  53.437  43.288  1.00  0.00    -0.030 C 
HETATM   11  C   UNL     1      38.943  54.853  42.611  1.00  0.00     0.016 C 
HETATM   12  C   UNL     1      39.412  52.399  42.156  1.00  0.00     0.012 C 
HETATM   13  C   UNL     1      40.092  53.539  44.359  1.00  0.00     0.013 C 
HETATM   14  C   UNL     1      38.335  52.258  41.049  1.00  0.00     0.055 C 
HETATM   15  C   UNL     1      40.015  51.025  42.670  1.00  0.00     0.008 C 
HETATM   16  C   UNL     1      37.000  52.051  41.656  1.00  0.00     0.012 A 
HETATM   17  C   UNL     1      36.614  52.453  42.916  1.00  0.00     0.056 A 
HETATM   18  S   UNL     1      35.728  51.244  40.863  1.00  0.00    -0.055 SA
HETATM   19  N   UNL     1      35.344  52.039  43.280  1.00  0.00    -0.227 NA
HETATM   20  C   UNL     1      34.793  51.392  42.284  1.00  0.00     0.174 A 
HETATM   21  C   UNL     1      40.663  50.261  41.479  1.00  0.00     0.020 C 
HETATM   22  C   UNL     1      41.137  51.323  43.707  1.00  0.00     0.128 C 
HETATM   23  C   UNL     1      40.650  52.204  44.853  1.00  0.00     0.033 C 
BRANCH  20  24
HETATM   24  N   UNL     1      33.583  50.774  42.211  1.00  0.00    -0.301 N 
HETATM   25  C   UNL     1      32.433  51.424  41.823  1.00  0.00     0.264 C 
HETATM   26  O   UNL     1      32.385  52.599  41.470  1.00  0.00    -0.267 OA
HETATM   27  H   UNL     1      33.531  49.817  42.525  1.00  0.00     0.171 HD
BRANCH  25  28
HETATM   28  C   UNL     1      31.226  50.600  41.897  1.00  0.00     0.072 A 
HETATM   29  S   UNL     1      31.248  48.978  42.465  1.00  0.00    -0.097 SA
HETATM   30  C   UNL     1      29.561  48.805  42.262  1.00  0.00     0.050 A 
HETATM   31  C   UNL     1      28.981  49.951  41.767  1.00  0.00     0.009 A 
HETATM   32  C   UNL     1      29.941  50.983  41.553  1.00  0.00     0.025 A 
ENDBRANCH  25  28
ENDBRANCH  20  24
BRANCH  15  33
HETATM   33  C   UNL     1      38.964  50.075  43.291  1.00  0.00     0.176 C 
BRANCH  33  34
HETATM   34  O   UNL     1      39.427  49.547  44.532  1.00  0.00    -0.400 OA
HETATM   35  H   UNL     1      38.796  48.855  44.799  1.00  0.00     0.209 HD
ENDBRANCH  33  34
ENDBRANCH  15  33
BRANCH  22  36
HETATM   36  O   UNL     1      42.233  52.003  43.083  1.00  0.00    -0.395 OA
HETATM   37  H   UNL     1      41.954  52.923  42.941  1.00  0.00     0.210 HD
ENDBRANCH  22  36
ENDBRANCH   8   9
ENDBRANCH   5   8
ENDBRANCH   1   4
TORSDOF 8
ENDMDL
