MODEL 1
REMARK VINA RESULT:      -9.0      0.000      0.000
REMARK  6 active torsions:
REMARK  status: ('A' for Active; 'I' for Inactive)
REMARK    1  A    between atoms: O_2  and  C_3 
REMARK    2  A    between atoms: C_3  and  C_4 
REMARK    3  A    between atoms: C_4  and  N_5 
REMARK       I    between atoms: N_5  and  C_6 
REMARK    4  A    between atoms: C_6  and  C_7 
REMARK    5  A    between atoms: C_12  and  C_13 
REMARK    6  A    between atoms: C_22  and  C_23 
ROOT
HETATM    1  C   UNL     1      25.123  46.974  50.507  1.00  0.00     0.148 A 
HETATM    2  N   UNL     1      25.660  45.924  49.841  1.00  0.00    -0.165 NA
HETATM    3  N   UNL     1      26.160  45.158  50.823  1.00  0.00    -0.240 N 
HETATM    4  C   UNL     1      26.050  45.702  52.072  1.00  0.00     0.123 A 
HETATM    5  N   UNL     1      26.610  45.112  53.149  1.00  0.00    -0.366 N 
HETATM    6  C   UNL     1      27.370  43.869  53.047  1.00  0.00     0.118 C 
HETATM    7  C   UNL     1      27.920  43.675  51.619  1.00  0.00     0.066 C 
HETATM    8  C   UNL     1      26.835  43.904  50.553  1.00  0.00     0.221 C 
HETATM    9  C   UNL     1      25.333  46.857  51.911  1.00  0.00     0.088 A 
HETATM   10  H   UNL     1      26.396  45.432  54.093  1.00  0.00     0.161 HD
ENDROOT
BRANCH   1  11
HETATM   11  C   UNL     1      24.451  48.084  49.814  1.00  0.00     0.272 C 
HETATM   12  N   UNL     1      23.082  47.945  49.751  1.00  0.00    -0.354 N 
HETATM   13  H   UNL     1      22.719  47.046  50.057  1.00  0.00     0.162 HD
HETATM   14  O   UNL     1      25.059  49.028  49.319  1.00  0.00    -0.266 OA
BRANCH  12  15
HETATM   15  C   UNL     1      22.248  48.825  48.961  1.00  0.00     0.149 C 
BRANCH  15  16
HETATM   16  C   UNL     1      20.790  48.364  48.916  1.00  0.00     0.186 C 
BRANCH  16  17
HETATM   17  O   UNL     1      20.012  49.173  49.807  1.00  0.00    -0.394 OA
HETATM   18  C   UNL     1      18.882  48.465  50.297  1.00  0.00     0.201 C 
ENDBRANCH  16  17
ENDBRANCH  15  16
ENDBRANCH  12  15
ENDBRANCH   1  11
BRANCH   8  19
HETATM   19  C   UNL     1      25.826  42.778  50.502  1.00  0.00     0.409 C 
HETATM   20  F   UNL     1      24.708  43.046  51.209  1.00  0.00    -0.169 F 
HETATM   21  F   UNL     1      25.430  42.578  49.216  1.00  0.00    -0.169 F 
HETATM   22  F   UNL     1      26.317  41.598  50.936  1.00  0.00    -0.169 F 
ENDBRANCH   8  19
BRANCH   6  23
HETATM   23  C   UNL     1      28.510  43.887  54.053  1.00  0.00    -0.034 A 
HETATM   24  C   UNL     1      28.567  44.857  55.072  1.00  0.00     0.034 A 
HETATM   25  C   UNL     1      29.626  44.885  55.985  1.00  0.00     0.056 A 
HETATM   26 CL   UNL     1      29.605  46.108  57.205  1.00  0.00    -0.083 Cl
HETATM   27  C   UNL     1      30.652  43.942  55.885  1.00  0.00     0.055 A 
HETATM   28 CL   UNL     1      31.995  43.912  56.971  1.00  0.00    -0.083 Cl
HETATM   29  C   UNL     1      30.611  42.978  54.873  1.00  0.00     0.026 A 
HETATM   30  C   UNL     1      29.550  42.950  53.964  1.00  0.00     0.011 A 
ENDBRANCH   6  23
TORSDOF 6
ENDMDL
MODEL 2
REMARK VINA RESULT:      -8.6      1.972      2.812
REMARK  6 active torsions:
REMARK  status: ('A' for Active; 'I' for Inactive)
REMARK    1  A    between atoms: O_2  and  C_3 
REMARK    2  A    between atoms: C_3  and  C_4 
REMARK    3  A    between atoms: C_4  and  N_5 
REMARK       I    between atoms: N_5  and  C_6 
REMARK    4  A    between atoms: C_6  and  C_7 
REMARK    5  A    between atoms: C_12  and  C_13 
REMARK    6  A    between atoms: C_22  and  C_23 
ROOT
HETATM    1  C   UNL     1      24.797  44.361  50.649  1.00  0.00     0.148 A 
HETATM    2  N   UNL     1      25.950  43.867  50.139  1.00  0.00    -0.165 NA
HETATM    3  N   UNL     1      26.675  43.582  51.232  1.00  0.00    -0.240 N 
HETATM    4  C   UNL     1      26.084  43.946  52.409  1.00  0.00     0.123 A 
HETATM    5  N   UNL     1      26.735  43.838  53.587  1.00  0.00    -0.366 N 
HETATM    6  C   UNL     1      28.103  43.334  53.676  1.00  0.00     0.118 C 
HETATM    7  C   UNL     1      28.844  43.515  52.336  1.00  0.00     0.066 C 
HETATM    8  C   UNL     1      28.006  43.016  51.147  1.00  0.00     0.221 C 
HETATM    9  C   UNL     1      24.840  44.407  52.072  1.00  0.00     0.088 A 
HETATM   10  H   UNL     1      26.242  43.962  54.472  1.00  0.00     0.161 HD
ENDROOT
BRANCH   1  11
HETATM   11  C   UNL     1      23.687  44.809  49.794  1.00  0.00     0.272 C 
HETATM   12  N   UNL     1      23.861  46.079  49.288  1.00  0.00    -0.354 N 
HETATM   13  H   UNL     1      24.647  46.598  49.670  1.00  0.00     0.162 HD
HETATM   14  O   UNL     1      22.693  44.124  49.576  1.00  0.00    -0.266 OA
BRANCH  12  15
HETATM   15  C   UNL     1      22.814  46.780  48.576  1.00  0.00     0.149 C 
BRANCH  15  16
HETATM   16  C   UNL     1      22.790  48.276  48.898  1.00  0.00     0.186 C 
BRANCH  16  17
HETATM   17  O   UNL     1      23.255  49.011  47.759  1.00  0.00    -0.394 OA
HETATM   18  C   UNL     1      24.365  49.833  48.091  1.00  0.00     0.201 C 
ENDBRANCH  16  17
ENDBRANCH  15  16
ENDBRANCH  12  15
ENDBRANCH   1  11
BRANCH   8  19
HETATM   19  C   UNL     1      27.921  41.506  51.092  1.00  0.00     0.409 C 
HETATM   20  F   UNL     1      26.713  41.038  51.472  1.00  0.00    -0.169 F 
HETATM   21  F   UNL     1      28.113  41.085  49.813  1.00  0.00    -0.169 F 
HETATM   22  F   UNL     1      28.858  40.889  51.841  1.00  0.00    -0.169 F 
ENDBRANCH   8  19
BRANCH   6  23
HETATM   23  C   UNL     1      28.840  44.062  54.790  1.00  0.00    -0.034 A 
HETATM   24  C   UNL     1      30.006  43.521  55.365  1.00  0.00     0.034 A 
HETATM   25  C   UNL     1      30.672  44.182  56.402  1.00  0.00     0.056 A 
HETATM   26 CL   UNL     1      32.099  43.446  57.041  1.00  0.00    -0.083 Cl
HETATM   27  C   UNL     1      30.174  45.395  56.884  1.00  0.00     0.055 A 
HETATM   28 CL   UNL     1      30.936  46.270  58.164  1.00  0.00    -0.083 Cl
HETATM   29  C   UNL     1      29.013  45.938  56.326  1.00  0.00     0.026 A 
HETATM   30  C   UNL     1      28.350  45.277  55.287  1.00  0.00     0.011 A 
ENDBRANCH   6  23
TORSDOF 6
ENDMDL
MODEL 3
REMARK VINA RESULT:      -8.4      3.983      6.648
REMARK  6 active torsions:
REMARK  status: ('A' for Active; 'I' for Inactive)
REMARK    1  A    between atoms: O_2  and  C_3 
REMARK    2  A    between atoms: C_3  and  C_4 
REMARK    3  A    between atoms: C_4  and  N_5 
REMARK       I    between atoms: N_5  and  C_6 
REMARK    4  A    between atoms: C_6  and  C_7 
REMARK    5  A    between atoms: C_12  and  C_13 
REMARK    6  A    between atoms: C_22  and  C_23 
ROOT
HETATM    1  C   UNL     1      26.402  41.301  50.411  1.00  0.00     0.148 A 
HETATM    2  N   UNL     1      25.358  42.024  50.881  1.00  0.00    -0.165 NA
HETATM    3  N   UNL     1      25.950  43.029  51.544  1.00  0.00    -0.240 N 
HETATM    4  C   UNL     1      27.313  42.942  51.598  1.00  0.00     0.123 A 
HETATM    5  N   UNL     1      28.046  43.808  52.328  1.00  0.00    -0.366 N 
HETATM    6  C   UNL     1      27.434  44.881  53.107  1.00  0.00     0.118 C 
HETATM    7  C   UNL     1      25.968  44.545  53.450  1.00  0.00     0.066 C 
HETATM    8  C   UNL     1      25.188  44.064  52.215  1.00  0.00     0.221 C 
HETATM    9  C   UNL     1      27.644  41.861  50.827  1.00  0.00     0.088 A 
HETATM   10  H   UNL     1      29.062  43.837  52.243  1.00  0.00     0.161 HD
ENDROOT
BRANCH   1  11
HETATM   11  C   UNL     1      26.217  40.083  49.608  1.00  0.00     0.272 C 
HETATM   12  N   UNL     1      26.512  38.924  50.290  1.00  0.00    -0.354 N 
HETATM   13  H   UNL     1      26.948  39.050  51.200  1.00  0.00     0.162 HD
HETATM   14  O   UNL     1      25.859  40.105  48.434  1.00  0.00    -0.266 OA
BRANCH  12  15
HETATM   15  C   UNL     1      26.573  37.633  49.638  1.00  0.00     0.149 C 
BRANCH  15  16
HETATM   16  C   UNL     1      27.974  37.020  49.685  1.00  0.00     0.186 C 
BRANCH  16  17
HETATM   17  O   UNL     1      28.901  37.998  50.170  1.00  0.00    -0.394 OA
HETATM   18  C   UNL     1      29.888  37.409  51.005  1.00  0.00     0.201 C 
ENDBRANCH  16  17
ENDBRANCH  15  16
ENDBRANCH  12  15
ENDBRANCH   1  11
BRANCH   8  19
HETATM   19  C   UNL     1      24.884  45.187  51.249  1.00  0.00     0.409 C 
HETATM   20  F   UNL     1      23.706  45.021  50.610  1.00  0.00    -0.169 F 
HETATM   21  F   UNL     1      24.792  46.362  51.928  1.00  0.00    -0.169 F 
HETATM   22  F   UNL     1      25.840  45.362  50.313  1.00  0.00    -0.169 F 
ENDBRANCH   8  19
BRANCH   6  23
HETATM   23  C   UNL     1      28.236  45.105  54.380  1.00  0.00    -0.034 A 
HETATM   24  C   UNL     1      29.309  44.261  54.722  1.00  0.00     0.034 A 
HETATM   25  C   UNL     1      30.034  44.457  55.903  1.00  0.00     0.056 A 
HETATM   26 CL   UNL     1      31.339  43.374  56.235  1.00  0.00    -0.083 Cl
HETATM   27  C   UNL     1      29.687  45.500  56.764  1.00  0.00     0.055 A 
HETATM   28 CL   UNL     1      30.529  45.805  58.241  1.00  0.00    -0.083 Cl
HETATM   29  C   UNL     1      28.618  46.341  56.439  1.00  0.00     0.026 A 
HETATM   30  C   UNL     1      27.897  46.146  55.257  1.00  0.00     0.011 A 
ENDBRANCH   6  23
TORSDOF 6
ENDMDL
MODEL 4
REMARK VINA RESULT:      -8.3      1.507      2.224
REMARK  6 active torsions:
REMARK  status: ('A' for Active; 'I' for Inactive)
REMARK    1  A    between atoms: O_2  and  C_3 
REMARK    2  A    between atoms: C_3  and  C_4 
REMARK    3  A    between atoms: C_4  and  N_5 
REMARK       I    between atoms: N_5  and  C_6 
REMARK    4  A    between atoms: C_6  and  C_7 
REMARK    5  A    between atoms: C_12  and  C_13 
REMARK    6  A    between atoms: C_22  and  C_23 
ROOT
HETATM    1  C   UNL     1      24.367  46.003  49.960  1.00  0.00     0.148 A 
HETATM    2  N   UNL     1      25.157  45.154  49.262  1.00  0.00    -0.165 NA
HETATM    3  N   UNL     1      25.788  44.458  50.222  1.00  0.00    -0.240 N 
HETATM    4  C   UNL     1      25.509  44.874  51.493  1.00  0.00     0.123 A 
HETATM    5  N   UNL     1      26.153  44.357  52.561  1.00  0.00    -0.366 N 
HETATM    6  C   UNL     1      27.185  43.333  52.425  1.00  0.00     0.118 C 
HETATM    7  C   UNL     1      27.815  43.370  51.018  1.00  0.00     0.066 C 
HETATM    8  C   UNL     1      26.746  43.415  49.913  1.00  0.00     0.221 C 
HETATM    9  C   UNL     1      24.548  45.841  51.364  1.00  0.00     0.088 A 
HETATM   10  H   UNL     1      25.836  44.554  53.510  1.00  0.00     0.161 HD
ENDROOT
BRANCH   1  11
HETATM   11  C   UNL     1      23.479  46.972  49.300  1.00  0.00     0.272 C 
HETATM   12  N   UNL     1      23.642  48.263  49.750  1.00  0.00    -0.354 N 
HETATM   13  H   UNL     1      24.240  48.371  50.565  1.00  0.00     0.162 HD
HETATM   14  O   UNL     1      22.655  46.651  48.448  1.00  0.00    -0.266 OA
BRANCH  12  15
HETATM   15  C   UNL     1      22.750  49.337  49.369  1.00  0.00     0.149 C 
BRANCH  15  16
HETATM   16  C   UNL     1      23.478  50.476  48.651  1.00  0.00     0.186 C 
BRANCH  16  17
HETATM   17  O   UNL     1      24.247  49.935  47.570  1.00  0.00    -0.394 OA
HETATM   18  C   UNL     1      25.641  50.094  47.794  1.00  0.00     0.201 C 
ENDBRANCH  16  17
ENDBRANCH  15  16
ENDBRANCH  12  15
ENDBRANCH   1  11
BRANCH   8  19
HETATM   19  C   UNL     1      26.031  42.093  49.745  1.00  0.00     0.409 C 
HETATM   20  F   UNL     1      26.741  41.051  50.227  1.00  0.00    -0.169 F 
HETATM   21  F   UNL     1      24.860  42.116  50.439  1.00  0.00    -0.169 F 
HETATM   22  F   UNL     1      25.709  41.817  48.464  1.00  0.00    -0.169 F 
ENDBRANCH   8  19
BRANCH   6  23
HETATM   23  C   UNL     1      28.253  43.545  53.487  1.00  0.00    -0.034 A 
HETATM   24  C   UNL     1      28.160  44.603  54.412  1.00  0.00     0.034 A 
HETATM   25  C   UNL     1      29.153  44.808  55.376  1.00  0.00     0.056 A 
HETATM   26 CL   UNL     1      28.949  46.128  56.472  1.00  0.00    -0.083 Cl
HETATM   27  C   UNL     1      30.260  43.958  55.422  1.00  0.00     0.055 A 
HETATM   28 CL   UNL     1      31.529  44.148  56.579  1.00  0.00    -0.083 Cl
HETATM   29  C   UNL     1      30.367  42.908  54.505  1.00  0.00     0.026 A 
HETATM   30  C   UNL     1      29.372  42.703  53.544  1.00  0.00     0.011 A 
ENDBRANCH   6  23
TORSDOF 6
ENDMDL
MODEL 5
REMARK VINA RESULT:      -8.0      2.612      3.129
REMARK  6 active torsions:
REMARK  status: ('A' for Active; 'I' for Inactive)
REMARK    1  A    between atoms: O_2  and  C_3 
REMARK    2  A    between atoms: C_3  and  C_4 
REMARK    3  A    between atoms: C_4  and  N_5 
REMARK       I    between atoms: N_5  and  C_6 
REMARK    4  A    between atoms: C_6  and  C_7 
REMARK    5  A    between atoms: C_12  and  C_13 
REMARK    6  A    between atoms: C_22  and  C_23 
ROOT
HETATM    1  C   UNL     1      25.105  43.770  49.852  1.00  0.00     0.148 A 
HETATM    2  N   UNL     1      26.259  43.129  49.549  1.00  0.00    -0.165 NA
HETATM    3  N   UNL     1      26.833  42.941  50.747  1.00  0.00    -0.240 N 
HETATM    4  C   UNL     1      26.153  43.503  51.791  1.00  0.00     0.123 A 
HETATM    5  N   UNL     1      26.661  43.506  53.042  1.00  0.00    -0.366 N 
HETATM    6  C   UNL     1      27.961  42.920  53.355  1.00  0.00     0.118 C 
HETATM    7  C   UNL     1      28.856  42.864  52.101  1.00  0.00     0.066 C 
HETATM    8  C   UNL     1      28.111  42.272  50.893  1.00  0.00     0.221 C 
HETATM    9  C   UNL     1      24.999  44.004  51.253  1.00  0.00     0.088 A 
HETATM   10  H   UNL     1      26.088  43.784  53.839  1.00  0.00     0.161 HD
ENDROOT
BRANCH   1  11
HETATM   11  C   UNL     1      24.139  44.180  48.822  1.00  0.00     0.272 C 
HETATM   12  N   UNL     1      23.440  45.321  49.146  1.00  0.00    -0.354 N 
HETATM   13  H   UNL     1      23.567  45.657  50.097  1.00  0.00     0.162 HD
HETATM   14  O   UNL     1      23.960  43.547  47.785  1.00  0.00    -0.266 OA
BRANCH  12  15
HETATM   15  C   UNL     1      22.319  45.794  48.362  1.00  0.00     0.149 C 
BRANCH  15  16
HETATM   16  C   UNL     1      20.992  45.172  48.803  1.00  0.00     0.186 C 
BRANCH  16  17
HETATM   17  O   UNL     1      20.698  44.047  47.967  1.00  0.00    -0.394 OA
HETATM   18  C   UNL     1      20.050  44.447  46.768  1.00  0.00     0.201 C 
ENDBRANCH  16  17
ENDBRANCH  15  16
ENDBRANCH  12  15
ENDBRANCH   1  11
BRANCH   8  19
HETATM   19  C   UNL     1      27.899  40.780  51.017  1.00  0.00     0.409 C 
HETATM   20  F   UNL     1      26.664  40.464  51.463  1.00  0.00    -0.169 F 
HETATM   21  F   UNL     1      28.029  40.197  49.795  1.00  0.00    -0.169 F 
HETATM   22  F   UNL     1      28.797  40.176  51.824  1.00  0.00    -0.169 F 
ENDBRANCH   8  19
BRANCH   6  23
HETATM   23  C   UNL     1      28.635  43.735  54.449  1.00  0.00    -0.034 A 
HETATM   24  C   UNL     1      29.819  43.287  55.065  1.00  0.00     0.034 A 
HETATM   25  C   UNL     1      30.427  44.028  56.084  1.00  0.00     0.056 A 
HETATM   26 CL   UNL     1      31.881  43.403  56.776  1.00  0.00    -0.083 Cl
HETATM   27  C   UNL     1      29.851  45.229  56.506  1.00  0.00     0.055 A 
HETATM   28 CL   UNL     1      30.539  46.199  57.759  1.00  0.00    -0.083 Cl
HETATM   29  C   UNL     1      28.671  45.680  55.907  1.00  0.00     0.026 A 
HETATM   30  C   UNL     1      28.067  44.940  54.886  1.00  0.00     0.011 A 
ENDBRANCH   6  23
TORSDOF 6
ENDMDL
MODEL 6
REMARK VINA RESULT:      -8.0      3.673      5.867
REMARK  6 active torsions:
REMARK  status: ('A' for Active; 'I' for Inactive)
REMARK    1  A    between atoms: O_2  and  C_3 
REMARK    2  A    between atoms: C_3  and  C_4 
REMARK    3  A    between atoms: C_4  and  N_5 
REMARK       I    between atoms: N_5  and  C_6 
REMARK    4  A    between atoms: C_6  and  C_7 
REMARK    5  A    between atoms: C_12  and  C_13 
REMARK    6  A    between atoms: C_22  and  C_23 
ROOT
HETATM    1  C   UNL     1      25.829  42.189  50.187  1.00  0.00     0.148 A 
HETATM    2  N   UNL     1      25.052  42.949  50.995  1.00  0.00    -0.165 NA
HETATM    3  N   UNL     1      25.944  43.627  51.735  1.00  0.00    -0.240 N 
HETATM    4  C   UNL     1      27.245  43.278  51.505  1.00  0.00     0.123 A 
HETATM    5  N   UNL     1      28.251  43.779  52.252  1.00  0.00    -0.366 N 
HETATM    6  C   UNL     1      28.014  44.715  53.348  1.00  0.00     0.118 C 
HETATM    7  C   UNL     1      26.574  44.580  53.885  1.00  0.00     0.066 C 
HETATM    8  C   UNL     1      25.539  44.580  52.748  1.00  0.00     0.221 C 
HETATM    9  C   UNL     1      27.211  42.385  50.468  1.00  0.00     0.088 A 
HETATM   10  H   UNL     1      29.225  43.641  51.981  1.00  0.00     0.161 HD
ENDROOT
BRANCH   1  11
HETATM   11  C   UNL     1      25.261  41.270  49.189  1.00  0.00     0.272 C 
HETATM   12  N   UNL     1      26.189  40.413  48.640  1.00  0.00    -0.354 N 
HETATM   13  H   UNL     1      27.158  40.606  48.878  1.00  0.00     0.162 HD
HETATM   14  O   UNL     1      24.078  41.288  48.862  1.00  0.00    -0.266 OA
BRANCH  12  15
HETATM   15  C   UNL     1      25.883  39.556  47.515  1.00  0.00     0.149 C 
BRANCH  15  16
HETATM   16  C   UNL     1      26.199  38.085  47.798  1.00  0.00     0.186 C 
BRANCH  16  17
HETATM   17  O   UNL     1      26.755  37.967  49.113  1.00  0.00    -0.394 OA
HETATM   18  C   UNL     1      27.040  36.613  49.436  1.00  0.00     0.201 C 
ENDBRANCH  16  17
ENDBRANCH  15  16
ENDBRANCH  12  15
ENDBRANCH   1  11
BRANCH   8  19
HETATM   19  C   UNL     1      25.362  45.948  52.126  1.00  0.00     0.409 C 
HETATM   20  F   UNL     1      25.337  46.939  53.043  1.00  0.00    -0.169 F 
HETATM   21  F   UNL     1      26.410  46.212  51.301  1.00  0.00    -0.169 F 
HETATM   22  F   UNL     1      24.247  46.053  51.373  1.00  0.00    -0.169 F 
ENDBRANCH   8  19
BRANCH   6  23
HETATM   23  C   UNL     1      29.018  44.457  54.461  1.00  0.00    -0.034 A 
HETATM   24  C   UNL     1      29.128  45.331  55.560  1.00  0.00     0.034 A 
HETATM   25  C   UNL     1      30.065  45.102  56.573  1.00  0.00     0.056 A 
HETATM   26 CL   UNL     1      30.122  46.226  57.885  1.00  0.00    -0.083 Cl
HETATM   27  C   UNL     1      30.914  43.995  56.496  1.00  0.00     0.055 A 
HETATM   28 CL   UNL     1      32.099  43.647  57.704  1.00  0.00    -0.083 Cl
HETATM   29  C   UNL     1      30.819  43.124  55.407  1.00  0.00     0.026 A 
HETATM   30  C   UNL     1      29.880  43.352  54.397  1.00  0.00     0.011 A 
ENDBRANCH   6  23
TORSDOF 6
ENDMDL
MODEL 7
REMARK VINA RESULT:      -7.7      4.355      7.574
REMARK  6 active torsions:
REMARK  status: ('A' for Active; 'I' for Inactive)
REMARK    1  A    between atoms: O_2  and  C_3 
REMARK    2  A    between atoms: C_3  and  C_4 
REMARK    3  A    between atoms: C_4  and  N_5 
REMARK       I    between atoms: N_5  and  C_6 
REMARK    4  A    between atoms: C_6  and  C_7 
REMARK    5  A    between atoms: C_12  and  C_13 
REMARK    6  A    between atoms: C_22  and  C_23 
ROOT
HETATM    1  C   UNL     1      27.535  45.383  54.462  1.00  0.00     0.148 A 
HETATM    2  N   UNL     1      27.178  45.983  53.302  1.00  0.00    -0.165 NA
HETATM    3  N   UNL     1      26.829  44.954  52.515  1.00  0.00    -0.240 N 
HETATM    4  C   UNL     1      27.025  43.724  53.078  1.00  0.00     0.123 A 
HETATM    5  N   UNL     1      26.837  42.588  52.373  1.00  0.00    -0.366 N 
HETATM    6  C   UNL     1      26.421  42.602  50.973  1.00  0.00     0.118 C 
HETATM    7  C   UNL     1      26.794  43.940  50.301  1.00  0.00     0.066 C 
HETATM    8  C   UNL     1      26.368  45.146  51.154  1.00  0.00     0.221 C 
HETATM    9  C   UNL     1      27.432  43.966  54.362  1.00  0.00     0.088 A 
HETATM   10  H   UNL     1      26.832  41.679  52.835  1.00  0.00     0.161 HD
ENDROOT
BRANCH   1  11
HETATM   11  C   UNL     1      27.995  46.145  55.633  1.00  0.00     0.272 C 
HETATM   12  N   UNL     1      28.953  45.491  56.374  1.00  0.00    -0.354 N 
HETATM   13  H   UNL     1      29.123  44.524  56.113  1.00  0.00     0.162 HD
HETATM   14  O   UNL     1      27.545  47.249  55.930  1.00  0.00    -0.266 OA
BRANCH  12  15
HETATM   15  C   UNL     1      29.408  45.979  57.658  1.00  0.00     0.149 C 
BRANCH  15  16
HETATM   16  C   UNL     1      30.702  45.302  58.116  1.00  0.00     0.186 C 
BRANCH  16  17
HETATM   17  O   UNL     1      31.302  44.631  57.001  1.00  0.00    -0.394 OA
HETATM   18  C   UNL     1      31.688  43.306  57.340  1.00  0.00     0.201 C 
ENDBRANCH  16  17
ENDBRANCH  15  16
ENDBRANCH  12  15
ENDBRANCH   1  11
BRANCH   8  19
HETATM   19  C   UNL     1      24.871  45.362  51.145  1.00  0.00     0.409 C 
HETATM   20  F   UNL     1      24.264  44.859  52.241  1.00  0.00    -0.169 F 
HETATM   21  F   UNL     1      24.602  46.695  51.133  1.00  0.00    -0.169 F 
HETATM   22  F   UNL     1      24.261  44.841  50.059  1.00  0.00    -0.169 F 
ENDBRANCH   8  19
BRANCH   6  23
HETATM   23  C   UNL     1      27.076  41.442  50.238  1.00  0.00    -0.034 A 
HETATM   24  C   UNL     1      27.962  40.569  50.898  1.00  0.00     0.034 A 
HETATM   25  C   UNL     1      28.577  39.514  50.216  1.00  0.00     0.056 A 
HETATM   26 CL   UNL     1      29.644  38.491  51.112  1.00  0.00    -0.083 Cl
HETATM   27  C   UNL     1      28.319  39.323  48.857  1.00  0.00     0.055 A 
HETATM   28 CL   UNL     1      29.043  38.047  47.944  1.00  0.00    -0.083 Cl
HETATM   29  C   UNL     1      27.448  40.188  48.188  1.00  0.00     0.026 A 
HETATM   30  C   UNL     1      26.831  41.240  48.873  1.00  0.00     0.011 A 
ENDBRANCH   6  23
TORSDOF 6
ENDMDL
MODEL 8
REMARK VINA RESULT:      -7.7      4.631      6.602
REMARK  6 active torsions:
REMARK  status: ('A' for Active; 'I' for Inactive)
REMARK    1  A    between atoms: O_2  and  C_3 
REMARK    2  A    between atoms: C_3  and  C_4 
REMARK    3  A    between atoms: C_4  and  N_5 
REMARK       I    between atoms: N_5  and  C_6 
REMARK    4  A    between atoms: C_6  and  C_7 
REMARK    5  A    between atoms: C_12  and  C_13 
REMARK    6  A    between atoms: C_22  and  C_23 
ROOT
HETATM    1  C   UNL     1      27.099  40.297  50.239  1.00  0.00     0.148 A 
HETATM    2  N   UNL     1      26.147  41.185  50.608  1.00  0.00    -0.165 NA
HETATM    3  N   UNL     1      26.839  42.124  51.272  1.00  0.00    -0.240 N 
HETATM    4  C   UNL     1      28.167  41.840  51.424  1.00  0.00     0.123 A 
HETATM    5  N   UNL     1      28.974  42.623  52.172  1.00  0.00    -0.366 N 
HETATM    6  C   UNL     1      28.480  43.810  52.865  1.00  0.00     0.118 C 
HETATM    7  C   UNL     1      26.962  43.709  53.117  1.00  0.00     0.066 C 
HETATM    8  C   UNL     1      26.199  43.290  51.849  1.00  0.00     0.221 C 
HETATM    9  C   UNL     1      28.382  40.687  50.719  1.00  0.00     0.088 A 
HETATM   10  H   UNL     1      29.986  42.500  52.156  1.00  0.00     0.161 HD
ENDROOT
BRANCH   1  11
HETATM   11  C   UNL     1      26.786  39.082  49.471  1.00  0.00     0.272 C 
HETATM   12  N   UNL     1      26.738  39.288  48.110  1.00  0.00    -0.354 N 
HETATM   13  H   UNL     1      26.783  40.259  47.813  1.00  0.00     0.162 HD
HETATM   14  O   UNL     1      26.565  37.996  50.000  1.00  0.00    -0.266 OA
BRANCH  12  15
HETATM   15  C   UNL     1      26.271  38.275  47.188  1.00  0.00     0.149 C 
BRANCH  15  16
HETATM   16  C   UNL     1      27.406  37.391  46.666  1.00  0.00     0.186 C 
BRANCH  16  17
HETATM   17  O   UNL     1      28.279  38.180  45.849  1.00  0.00    -0.394 OA
HETATM   18  C   UNL     1      27.632  38.603  44.657  1.00  0.00     0.201 C 
ENDBRANCH  16  17
ENDBRANCH  15  16
ENDBRANCH  12  15
ENDBRANCH   1  11
BRANCH   8  19
HETATM   19  C   UNL     1      26.128  44.398  50.822  1.00  0.00     0.409 C 
HETATM   20  F   UNL     1      27.003  44.226  49.808  1.00  0.00    -0.169 F 
HETATM   21  F   UNL     1      24.889  44.422  50.262  1.00  0.00    -0.169 F 
HETATM   22  F   UNL     1      26.334  45.625  51.343  1.00  0.00    -0.169 F 
ENDBRANCH   8  19
BRANCH   6  23
HETATM   23  C   UNL     1      29.224  43.975  54.181  1.00  0.00    -0.034 A 
HETATM   24  C   UNL     1      28.830  44.944  55.124  1.00  0.00     0.034 A 
HETATM   25  C   UNL     1      29.526  45.107  56.326  1.00  0.00     0.056 A 
HETATM   26 CL   UNL     1      28.965  46.317  57.423  1.00  0.00    -0.083 Cl
HETATM   27  C   UNL     1      30.636  44.303  56.599  1.00  0.00     0.055 A 
HETATM   28 CL   UNL     1      31.550  44.445  58.057  1.00  0.00    -0.083 Cl
HETATM   29  C   UNL     1      31.041  43.342  55.668  1.00  0.00     0.026 A 
HETATM   30  C   UNL     1      30.342  43.179  54.468  1.00  0.00     0.011 A 
ENDBRANCH   6  23
TORSDOF 6
ENDMDL
MODEL 9
REMARK VINA RESULT:      -7.6      3.369      3.899
REMARK  6 active torsions:
REMARK  status: ('A' for Active; 'I' for Inactive)
REMARK    1  A    between atoms: O_2  and  C_3 
REMARK    2  A    between atoms: C_3  and  C_4 
REMARK    3  A    between atoms: C_4  and  N_5 
REMARK       I    between atoms: N_5  and  C_6 
REMARK    4  A    between atoms: C_6  and  C_7 
REMARK    5  A    between atoms: C_12  and  C_13 
REMARK    6  A    between atoms: C_22  and  C_23 
ROOT
HETATM    1  C   UNL     1      24.219  43.230  49.386  1.00  0.00     0.148 A 
HETATM    2  N   UNL     1      25.358  42.620  48.982  1.00  0.00    -0.165 NA
HETATM    3  N   UNL     1      26.045  42.459  50.124  1.00  0.00    -0.240 N 
HETATM    4  C   UNL     1      25.448  43.011  51.222  1.00  0.00     0.123 A 
HETATM    5  N   UNL     1      26.067  43.040  52.421  1.00  0.00    -0.366 N 
HETATM    6  C   UNL     1      27.407  42.494  52.618  1.00  0.00     0.118 C 
HETATM    7  C   UNL     1      28.185  42.453  51.286  1.00  0.00     0.066 C 
HETATM    8  C   UNL     1      27.350  41.829  50.155  1.00  0.00     0.221 C 
HETATM    9  C   UNL     1      24.234  43.473  50.790  1.00  0.00     0.088 A 
HETATM   10  H   UNL     1      25.562  43.308  53.266  1.00  0.00     0.161 HD
ENDROOT
BRANCH   1  11
HETATM   11  C   UNL     1      23.151  43.603  48.446  1.00  0.00     0.272 C 
HETATM   12  N   UNL     1      23.611  43.916  47.186  1.00  0.00    -0.354 N 
HETATM   13  H   UNL     1      24.620  43.988  47.094  1.00  0.00     0.162 HD
HETATM   14  O   UNL     1      21.967  43.654  48.767  1.00  0.00    -0.266 OA
BRANCH  12  15
HETATM   15  C   UNL     1      22.754  44.481  46.166  1.00  0.00     0.149 C 
BRANCH  15  16
HETATM   16  C   UNL     1      23.327  44.303  44.758  1.00  0.00     0.186 C 
BRANCH  16  17
HETATM   17  O   UNL     1      22.935  45.416  43.946  1.00  0.00    -0.394 OA
HETATM   18  C   UNL     1      22.643  45.011  42.616  1.00  0.00     0.201 C 
ENDBRANCH  16  17
ENDBRANCH  15  16
ENDBRANCH  12  15
ENDBRANCH   1  11
BRANCH   8  19
HETATM   19  C   UNL     1      27.195  40.332  50.308  1.00  0.00     0.409 C 
HETATM   20  F   UNL     1      26.043  39.987  50.923  1.00  0.00    -0.169 F 
HETATM   21  F   UNL     1      27.165  39.749  49.080  1.00  0.00    -0.169 F 
HETATM   22  F   UNL     1      28.212  39.753  50.980  1.00  0.00    -0.169 F 
ENDBRANCH   8  19
BRANCH   6  23
HETATM   23  C   UNL     1      28.154  43.337  53.639  1.00  0.00    -0.034 A 
HETATM   24  C   UNL     1      27.682  44.609  54.018  1.00  0.00     0.034 A 
HETATM   25  C   UNL     1      28.380  45.391  54.944  1.00  0.00     0.056 A 
HETATM   26 CL   UNL     1      27.720  46.935  55.352  1.00  0.00    -0.083 Cl
HETATM   27  C   UNL     1      29.569  44.913  55.499  1.00  0.00     0.055 A 
HETATM   28 CL   UNL     1      30.490  45.820  56.645  1.00  0.00    -0.083 Cl
HETATM   29  C   UNL     1      30.052  43.655  55.126  1.00  0.00     0.026 A 
HETATM   30  C   UNL     1      29.351  42.873  54.203  1.00  0.00     0.011 A 
ENDBRANCH   6  23
TORSDOF 6
ENDMDL
MODEL 10
REMARK VINA RESULT:      -7.6     13.667     16.088
REMARK  6 active torsions:
REMARK  status: ('A' for Active; 'I' for Inactive)
REMARK    1  A    between atoms: O_2  and  C_3 
REMARK    2  A    between atoms: C_3  and  C_4 
REMARK    3  A    between atoms: C_4  and  N_5 
REMARK       I    between atoms: N_5  and  C_6 
REMARK    4  A    between atoms: C_6  and  C_7 
REMARK    5  A    between atoms: C_12  and  C_13 
REMARK    6  A    between atoms: C_22  and  C_23 
ROOT
HETATM    1  C   UNL     1      33.522  52.379  39.629  1.00  0.00     0.148 A 
HETATM    2  N   UNL     1      33.052  52.383  40.899  1.00  0.00    -0.165 NA
HETATM    3  N   UNL     1      32.030  51.513  40.853  1.00  0.00    -0.240 N 
HETATM    4  C   UNL     1      31.766  51.021  39.606  1.00  0.00     0.123 A 
HETATM    5  N   UNL     1      30.697  50.232  39.371  1.00  0.00    -0.366 N 
HETATM    6  C   UNL     1      29.758  49.861  40.427  1.00  0.00     0.118 C 
HETATM    7  C   UNL     1      29.791  50.888  41.578  1.00  0.00     0.066 C 
HETATM    8  C   UNL     1      31.229  51.203  42.021  1.00  0.00     0.221 C 
HETATM    9  C   UNL     1      32.750  51.521  38.795  1.00  0.00     0.088 A 
HETATM   10  H   UNL     1      30.591  49.742  38.482  1.00  0.00     0.161 HD
ENDROOT
BRANCH   1  11
HETATM   11  C   UNL     1      34.667  53.204  39.213  1.00  0.00     0.272 C 
HETATM   12  N   UNL     1      34.451  54.557  39.353  1.00  0.00    -0.354 N 
HETATM   13  H   UNL     1      33.499  54.826  39.588  1.00  0.00     0.162 HD
HETATM   14  O   UNL     1      35.704  52.727  38.761  1.00  0.00    -0.266 OA
BRANCH  12  15
HETATM   15  C   UNL     1      35.370  55.547  38.836  1.00  0.00     0.149 C 
BRANCH  15  16
HETATM   16  C   UNL     1      36.138  56.268  39.946  1.00  0.00     0.186 C 
BRANCH  16  17
HETATM   17  O   UNL     1      37.389  55.603  40.162  1.00  0.00    -0.394 OA
HETATM   18  C   UNL     1      37.414  54.939  41.418  1.00  0.00     0.201 C 
ENDBRANCH  16  17
ENDBRANCH  15  16
ENDBRANCH  12  15
ENDBRANCH   1  11
BRANCH   8  19
HETATM   19  C   UNL     1      31.862  50.064  42.789  1.00  0.00     0.409 C 
HETATM   20  F   UNL     1      32.880  49.485  42.119  1.00  0.00    -0.169 F 
HETATM   21  F   UNL     1      32.384  50.534  43.954  1.00  0.00    -0.169 F 
HETATM   22  F   UNL     1      30.986  49.095  43.129  1.00  0.00    -0.169 F 
ENDBRANCH   8  19
BRANCH   6  23
HETATM   23  C   UNL     1      28.355  49.765  39.846  1.00  0.00    -0.034 A 
HETATM   24  C   UNL     1      27.393  48.902  40.406  1.00  0.00     0.034 A 
HETATM   25  C   UNL     1      26.110  48.800  39.860  1.00  0.00     0.056 A 
HETATM   26 CL   UNL     1      24.995  47.721  40.620  1.00  0.00    -0.083 Cl
HETATM   27  C   UNL     1      25.773  49.558  38.736  1.00  0.00     0.055 A 
HETATM   28 CL   UNL     1      24.211  49.485  38.001  1.00  0.00    -0.083 Cl
HETATM   29  C   UNL     1      26.721  50.412  38.166  1.00  0.00     0.026 A 
HETATM   30  C   UNL     1      28.003  50.515  38.716  1.00  0.00     0.011 A 
ENDBRANCH   6  23
TORSDOF 6
ENDMDL
