MODEL 1
REMARK VINA RESULT:     -10.8      0.000      0.000
REMARK  7 active torsions:
REMARK  status: ('A' for Active; 'I' for Inactive)
REMARK    1  A    between atoms: C_2  and  C_3 
REMARK    2  A    between atoms: N_16  and  C_17 
REMARK    3  A    between atoms: C_17  and  C_18 
REMARK       I    between atoms: C_18  and  N_19 
REMARK    4  A    between atoms: N_19  and  C_20 
REMARK    5  A    between atoms: C_21  and  C_22 
REMARK       I    between atoms: C_22  and  N_23 
REMARK    6  A    between atoms: N_23  and  C_24 
REMARK    7  A    between atoms: C_24  and  C_25 
ROOT
HETATM    1  C   UNL     1      24.248  43.320  50.643  1.00  0.00     0.240 C 
ENDROOT
BRANCH   1   2
HETATM    2  N   UNL     1      25.009  44.422  51.176  1.00  0.00    -0.259 N 
HETATM    3  C   UNL     1      25.867  45.180  50.445  1.00  0.00     0.326 A 
HETATM    4  N   UNL     1      26.597  45.974  51.298  1.00  0.00    -0.321 N 
HETATM    5  O   UNL     1      26.054  45.128  49.241  1.00  0.00    -0.247 OA
HETATM    6  C   UNL     1      26.304  45.704  52.693  1.00  0.00     0.140 A 
HETATM    7  H   UNL     1      27.378  46.523  50.966  1.00  0.00     0.165 HD
HETATM    8  C   UNL     1      25.680  46.952  53.320  1.00  0.00     0.054 C 
HETATM    9  C   UNL     1      25.204  44.627  52.515  1.00  0.00     0.261 A 
HETATM   10  O   UNL     1      24.647  44.015  53.418  1.00  0.00    -0.270 OA
BRANCH   6  11
HETATM   11  C   UNL     1      27.520  45.108  53.407  1.00  0.00    -0.020 A 
HETATM   12  C   UNL     1      28.055  45.670  54.582  1.00  0.00     0.022 A 
HETATM   13  C   UNL     1      29.115  45.059  55.283  1.00  0.00    -0.025 A 
HETATM   14  C   UNL     1      29.665  43.855  54.798  1.00  0.00    -0.026 A 
HETATM   15  C   UNL     1      29.626  45.614  56.468  1.00  0.00     0.012 A 
HETATM   16  C   UNL     1      29.157  43.301  53.618  1.00  0.00     0.013 A 
HETATM   17  C   UNL     1      30.701  43.229  55.513  1.00  0.00     0.012 A 
HETATM   18  C   UNL     1      28.106  43.919  52.935  1.00  0.00     0.011 A 
HETATM   19  C   UNL     1      31.192  43.789  56.692  1.00  0.00     0.001 A 
HETATM   20  C   UNL     1      30.658  44.983  57.168  1.00  0.00     0.001 A 
ENDBRANCH   6  11
ENDBRANCH   1   2
BRANCH   1  21
HETATM   21  C   UNL     1      22.939  43.723  49.962  1.00  0.00     0.240 C 
HETATM   22  N   UNL     1      23.173  44.157  48.663  1.00  0.00    -0.325 N 
HETATM   23  H   UNL     1      24.091  44.554  48.491  1.00  0.00     0.169 HD
HETATM   24  O   UNL     1      21.846  43.731  50.522  1.00  0.00    -0.271 OA
BRANCH  22  25
HETATM   25  C   UNL     1      22.196  44.427  47.683  1.00  0.00     0.050 A 
HETATM   26  C   UNL     1      21.586  45.667  47.449  1.00  0.00     0.058 A 
HETATM   27  C   UNL     1      20.595  45.797  46.458  1.00  0.00     0.019 A 
HETATM   28  C   UNL     1      20.208  44.695  45.697  1.00  0.00     0.001 A 
HETATM   29  C   UNL     1      20.790  43.455  45.938  1.00  0.00     0.002 A 
HETATM   30  C   UNL     1      21.766  43.321  46.930  1.00  0.00     0.030 A 
BRANCH  26  31
HETATM   31  C   UNL     1      21.719  46.837  48.340  1.00  0.00     0.254 C 
HETATM   32  N   UNL     1      22.970  47.400  48.361  1.00  0.00    -0.351 N 
HETATM   33  H   UNL     1      23.732  46.733  48.270  1.00  0.00     0.163 HD
HETATM   34  O   UNL     1      20.730  47.280  48.908  1.00  0.00    -0.268 OA
BRANCH  32  35
HETATM   35  C   UNL     1      23.234  48.534  49.215  1.00  0.00     0.187 C 
BRANCH  35  36
HETATM   36  C   UNL     1      24.609  49.016  48.934  1.00  0.00     0.070 A 
HETATM   37  O   UNL     1      25.622  48.458  49.659  1.00  0.00    -0.325 OA
HETATM   38  C   UNL     1      26.778  49.026  49.230  1.00  0.00     0.142 A 
HETATM   39  C   UNL     1      26.526  49.944  48.238  1.00  0.00     0.027 A 
HETATM   40  C   UNL     1      25.124  49.942  48.047  1.00  0.00     0.036 A 
ENDBRANCH  35  36
ENDBRANCH  32  35
ENDBRANCH  26  31
ENDBRANCH  22  25
ENDBRANCH   1  21
TORSDOF 7
ENDMDL
MODEL 2
REMARK VINA RESULT:     -10.8      1.657      2.527
REMARK  7 active torsions:
REMARK  status: ('A' for Active; 'I' for Inactive)
REMARK    1  A    between atoms: C_2  and  C_3 
REMARK    2  A    between atoms: N_16  and  C_17 
REMARK    3  A    between atoms: C_17  and  C_18 
REMARK       I    between atoms: C_18  and  N_19 
REMARK    4  A    between atoms: N_19  and  C_20 
REMARK    5  A    between atoms: C_21  and  C_22 
REMARK       I    between atoms: C_22  and  N_23 
REMARK    6  A    between atoms: N_23  and  C_24 
REMARK    7  A    between atoms: C_24  and  C_25 
ROOT
HETATM    1  C   UNL     1      24.567  45.337  50.067  1.00  0.00     0.240 C 
ENDROOT
BRANCH   1   2
HETATM    2  N   UNL     1      25.291  44.114  50.308  1.00  0.00    -0.259 N 
HETATM    3  C   UNL     1      24.803  43.068  51.025  1.00  0.00     0.326 A 
HETATM    4  N   UNL     1      25.823  42.178  51.264  1.00  0.00    -0.321 N 
HETATM    5  O   UNL     1      23.676  42.946  51.477  1.00  0.00    -0.247 OA
HETATM    6  C   UNL     1      27.102  42.655  50.772  1.00  0.00     0.140 A 
HETATM    7  H   UNL     1      25.699  41.391  51.886  1.00  0.00     0.165 HD
HETATM    8  C   UNL     1      27.591  41.717  49.667  1.00  0.00     0.054 C 
HETATM    9  C   UNL     1      26.642  43.989  50.131  1.00  0.00     0.261 A 
HETATM   10  O   UNL     1      27.372  44.823  49.610  1.00  0.00    -0.270 OA
BRANCH   6  11
HETATM   11  C   UNL     1      28.070  42.925  51.925  1.00  0.00    -0.020 A 
HETATM   12  C   UNL     1      27.930  44.032  52.784  1.00  0.00     0.022 A 
HETATM   13  C   UNL     1      28.770  44.220  53.900  1.00  0.00    -0.025 A 
HETATM   14  C   UNL     1      29.787  43.280  54.169  1.00  0.00    -0.026 A 
HETATM   15  C   UNL     1      28.607  45.314  54.766  1.00  0.00     0.012 A 
HETATM   16  C   UNL     1      29.951  42.190  53.309  1.00  0.00     0.013 A 
HETATM   17  C   UNL     1      30.605  43.450  55.299  1.00  0.00     0.012 A 
HETATM   18  C   UNL     1      29.109  42.018  52.206  1.00  0.00     0.011 A 
HETATM   19  C   UNL     1      30.425  44.538  56.152  1.00  0.00     0.001 A 
HETATM   20  C   UNL     1      29.429  45.473  55.884  1.00  0.00     0.001 A 
ENDBRANCH   6  11
ENDBRANCH   1   2
BRANCH   1  21
HETATM   21  C   UNL     1      23.535  45.252  48.941  1.00  0.00     0.240 C 
HETATM   22  N   UNL     1      22.386  45.961  49.271  1.00  0.00    -0.325 N 
HETATM   23  H   UNL     1      22.192  46.045  50.263  1.00  0.00     0.169 HD
HETATM   24  O   UNL     1      23.682  44.583  47.922  1.00  0.00    -0.271 OA
BRANCH  22  25
HETATM   25  C   UNL     1      21.310  46.257  48.409  1.00  0.00     0.050 A 
HETATM   26  C   UNL     1      21.026  47.510  47.848  1.00  0.00     0.058 A 
HETATM   27  C   UNL     1      19.897  47.682  47.027  1.00  0.00     0.019 A 
HETATM   28  C   UNL     1      19.047  46.610  46.761  1.00  0.00     0.001 A 
HETATM   29  C   UNL     1      19.306  45.370  47.333  1.00  0.00     0.002 A 
HETATM   30  C   UNL     1      20.421  45.199  48.158  1.00  0.00     0.030 A 
BRANCH  26  31
HETATM   31  C   UNL     1      21.691  48.766  48.247  1.00  0.00     0.254 C 
HETATM   32  N   UNL     1      22.986  48.892  47.810  1.00  0.00    -0.351 N 
HETATM   33  H   UNL     1      23.507  48.019  47.785  1.00  0.00     0.163 HD
HETATM   34  O   UNL     1      21.052  49.630  48.834  1.00  0.00    -0.268 OA
BRANCH  32  35
HETATM   35  C   UNL     1      23.752  50.065  48.159  1.00  0.00     0.187 C 
BRANCH  35  36
HETATM   36  C   UNL     1      25.113  49.628  48.559  1.00  0.00     0.070 A 
HETATM   37  O   UNL     1      25.196  48.661  49.518  1.00  0.00    -0.325 OA
HETATM   38  C   UNL     1      26.515  48.406  49.714  1.00  0.00     0.142 A 
HETATM   39  C   UNL     1      27.285  49.196  48.893  1.00  0.00     0.027 A 
HETATM   40  C   UNL     1      26.381  49.990  48.149  1.00  0.00     0.036 A 
ENDBRANCH  35  36
ENDBRANCH  32  35
ENDBRANCH  26  31
ENDBRANCH  22  25
ENDBRANCH   1  21
TORSDOF 7
ENDMDL
MODEL 3
REMARK VINA RESULT:     -10.7      1.844      2.563
REMARK  7 active torsions:
REMARK  status: ('A' for Active; 'I' for Inactive)
REMARK    1  A    between atoms: C_2  and  C_3 
REMARK    2  A    between atoms: N_16  and  C_17 
REMARK    3  A    between atoms: C_17  and  C_18 
REMARK       I    between atoms: C_18  and  N_19 
REMARK    4  A    between atoms: N_19  and  C_20 
REMARK    5  A    between atoms: C_21  and  C_22 
REMARK       I    between atoms: C_22  and  N_23 
REMARK    6  A    between atoms: N_23  and  C_24 
REMARK    7  A    between atoms: C_24  and  C_25 
ROOT
HETATM    1  C   UNL     1      24.650  43.504  50.959  1.00  0.00     0.240 C 
ENDROOT
BRANCH   1   2
HETATM    2  N   UNL     1      25.352  44.594  51.590  1.00  0.00    -0.259 N 
HETATM    3  C   UNL     1      26.196  45.436  50.939  1.00  0.00     0.326 A 
HETATM    4  N   UNL     1      26.872  46.193  51.867  1.00  0.00    -0.321 N 
HETATM    5  O   UNL     1      26.413  45.481  49.740  1.00  0.00    -0.247 OA
HETATM    6  C   UNL     1      26.557  45.811  53.231  1.00  0.00     0.140 A 
HETATM    7  H   UNL     1      27.637  46.796  51.597  1.00  0.00     0.165 HD
HETATM    8  C   UNL     1      25.868  46.983  53.930  1.00  0.00     0.054 C 
HETATM    9  C   UNL     1      25.507  44.707  52.945  1.00  0.00     0.261 A 
HETATM   10  O   UNL     1      24.955  44.009  53.786  1.00  0.00    -0.270 OA
BRANCH   6  11
HETATM   11  C   UNL     1      27.780  45.212  53.931  1.00  0.00    -0.020 A 
HETATM   12  C   UNL     1      28.282  45.727  55.141  1.00  0.00     0.022 A 
HETATM   13  C   UNL     1      29.349  45.110  55.827  1.00  0.00    -0.025 A 
HETATM   14  C   UNL     1      29.940  43.948  55.289  1.00  0.00    -0.026 A 
HETATM   15  C   UNL     1      29.828  45.616  57.046  1.00  0.00     0.012 A 
HETATM   16  C   UNL     1      29.464  43.442  54.075  1.00  0.00     0.013 A 
HETATM   17  C   UNL     1      30.982  43.315  55.987  1.00  0.00     0.012 A 
HETATM   18  C   UNL     1      28.405  44.065  53.408  1.00  0.00     0.011 A 
HETATM   19  C   UNL     1      31.441  43.827  57.200  1.00  0.00     0.001 A 
HETATM   20  C   UNL     1      30.867  44.979  57.729  1.00  0.00     0.001 A 
ENDBRANCH   6  11
ENDBRANCH   1   2
BRANCH   1  21
HETATM   21  C   UNL     1      23.352  43.907  50.259  1.00  0.00     0.240 C 
HETATM   22  N   UNL     1      23.617  44.695  49.145  1.00  0.00    -0.325 N 
HETATM   23  H   UNL     1      24.475  45.234  49.182  1.00  0.00     0.169 HD
HETATM   24  O   UNL     1      22.231  43.631  50.676  1.00  0.00    -0.271 OA
BRANCH  22  25
HETATM   25  C   UNL     1      22.687  45.091  48.160  1.00  0.00     0.050 A 
HETATM   26  C   UNL     1      22.281  46.406  47.894  1.00  0.00     0.058 A 
HETATM   27  C   UNL     1      21.317  46.665  46.904  1.00  0.00     0.019 A 
HETATM   28  C   UNL     1      20.753  45.619  46.175  1.00  0.00     0.001 A 
HETATM   29  C   UNL     1      21.131  44.310  46.449  1.00  0.00     0.002 A 
HETATM   30  C   UNL     1      22.081  44.048  47.441  1.00  0.00     0.030 A 
BRANCH  26  31
HETATM   31  C   UNL     1      22.606  47.563  48.752  1.00  0.00     0.254 C 
HETATM   32  N   UNL     1      21.754  48.631  48.618  1.00  0.00    -0.351 N 
HETATM   33  H   UNL     1      21.404  48.772  47.674  1.00  0.00     0.163 HD
HETATM   34  O   UNL     1      23.514  47.476  49.568  1.00  0.00    -0.268 OA
BRANCH  32  35
HETATM   35  C   UNL     1      21.983  49.833  49.384  1.00  0.00     0.187 C 
BRANCH  35  36
HETATM   36  C   UNL     1      20.759  50.670  49.308  1.00  0.00     0.070 A 
HETATM   37  O   UNL     1      19.783  50.426  50.230  1.00  0.00    -0.325 OA
HETATM   38  C   UNL     1      18.778  51.306  49.988  1.00  0.00     0.142 A 
HETATM   39  C   UNL     1      19.092  52.116  48.922  1.00  0.00     0.027 A 
HETATM   40  C   UNL     1      20.371  51.704  48.478  1.00  0.00     0.036 A 
ENDBRANCH  35  36
ENDBRANCH  32  35
ENDBRANCH  26  31
ENDBRANCH  22  25
ENDBRANCH   1  21
TORSDOF 7
ENDMDL
MODEL 4
REMARK VINA RESULT:     -10.6      2.479      4.941
REMARK  7 active torsions:
REMARK  status: ('A' for Active; 'I' for Inactive)
REMARK    1  A    between atoms: C_2  and  C_3 
REMARK    2  A    between atoms: N_16  and  C_17 
REMARK    3  A    between atoms: C_17  and  C_18 
REMARK       I    between atoms: C_18  and  N_19 
REMARK    4  A    between atoms: N_19  and  C_20 
REMARK    5  A    between atoms: C_21  and  C_22 
REMARK       I    between atoms: C_22  and  N_23 
REMARK    6  A    between atoms: N_23  and  C_24 
REMARK    7  A    between atoms: C_24  and  C_25 
ROOT
HETATM    1  C   UNL     1      24.420  44.906  48.961  1.00  0.00     0.240 C 
ENDROOT
BRANCH   1   2
HETATM    2  N   UNL     1      24.948  43.941  49.892  1.00  0.00    -0.259 N 
HETATM    3  C   UNL     1      24.199  43.280  50.813  1.00  0.00     0.326 A 
HETATM    4  N   UNL     1      25.038  42.629  51.685  1.00  0.00    -0.321 N 
HETATM    5  O   UNL     1      22.985  43.309  50.933  1.00  0.00    -0.247 OA
HETATM    6  C   UNL     1      26.437  42.910  51.424  1.00  0.00     0.140 A 
HETATM    7  H   UNL     1      24.684  42.179  52.519  1.00  0.00     0.165 HD
HETATM    8  C   UNL     1      27.136  41.614  51.009  1.00  0.00     0.054 C 
HETATM    9  C   UNL     1      26.281  43.817  50.177  1.00  0.00     0.261 A 
HETATM   10  O   UNL     1      27.191  44.382  49.583  1.00  0.00    -0.270 OA
BRANCH   6  11
HETATM   11  C   UNL     1      27.067  43.695  52.577  1.00  0.00    -0.020 A 
HETATM   12  C   UNL     1      28.214  43.245  53.257  1.00  0.00     0.022 A 
HETATM   13  C   UNL     1      28.841  44.022  54.253  1.00  0.00    -0.025 A 
HETATM   14  C   UNL     1      28.307  45.284  54.588  1.00  0.00    -0.026 A 
HETATM   15  C   UNL     1      30.000  43.576  54.910  1.00  0.00     0.012 A 
HETATM   16  C   UNL     1      27.153  45.730  53.935  1.00  0.00     0.013 A 
HETATM   17  C   UNL     1      28.949  46.072  55.559  1.00  0.00     0.012 A 
HETATM   18  C   UNL     1      26.544  44.948  52.949  1.00  0.00     0.011 A 
HETATM   19  C   UNL     1      30.103  45.617  56.196  1.00  0.00     0.001 A 
HETATM   20  C   UNL     1      30.627  44.368  55.875  1.00  0.00     0.001 A 
ENDBRANCH   6  11
ENDBRANCH   1   2
BRANCH   1  21
HETATM   21  C   UNL     1      24.273  46.319  49.526  1.00  0.00     0.240 C 
HETATM   22  N   UNL     1      23.809  47.194  48.552  1.00  0.00    -0.325 N 
HETATM   23  H   UNL     1      24.038  46.948  47.595  1.00  0.00     0.169 HD
HETATM   24  O   UNL     1      24.596  46.640  50.666  1.00  0.00    -0.271 OA
BRANCH  22  25
HETATM   25  C   UNL     1      23.380  48.522  48.756  1.00  0.00     0.050 A 
HETATM   26  C   UNL     1      22.081  48.924  49.097  1.00  0.00     0.058 A 
HETATM   27  C   UNL     1      21.774  50.289  49.240  1.00  0.00     0.019 A 
HETATM   28  C   UNL     1      22.756  51.259  49.044  1.00  0.00     0.001 A 
HETATM   29  C   UNL     1      24.041  50.872  48.682  1.00  0.00     0.002 A 
HETATM   30  C   UNL     1      24.346  49.516  48.528  1.00  0.00     0.030 A 
BRANCH  26  31
HETATM   31  C   UNL     1      20.907  48.029  49.084  1.00  0.00     0.254 C 
HETATM   32  N   UNL     1      19.850  48.462  49.846  1.00  0.00    -0.351 N 
HETATM   33  H   UNL     1      20.118  48.947  50.698  1.00  0.00     0.163 HD
HETATM   34  O   UNL     1      20.901  47.048  48.353  1.00  0.00    -0.268 OA
BRANCH  32  35
HETATM   35  C   UNL     1      18.653  47.660  49.936  1.00  0.00     0.187 C 
BRANCH  35  36
HETATM   36  C   UNL     1      17.586  48.330  49.151  1.00  0.00     0.070 A 
HETATM   37  O   UNL     1      17.641  49.691  49.066  1.00  0.00    -0.325 OA
HETATM   38  C   UNL     1      16.593  50.084  48.299  1.00  0.00     0.142 A 
HETATM   39  C   UNL     1      15.861  48.996  47.887  1.00  0.00     0.027 A 
HETATM   40  C   UNL     1      16.498  47.860  48.440  1.00  0.00     0.036 A 
ENDBRANCH  35  36
ENDBRANCH  32  35
ENDBRANCH  26  31
ENDBRANCH  22  25
ENDBRANCH   1  21
TORSDOF 7
ENDMDL
MODEL 5
REMARK VINA RESULT:     -10.5      2.708      3.821
REMARK  7 active torsions:
REMARK  status: ('A' for Active; 'I' for Inactive)
REMARK    1  A    between atoms: C_2  and  C_3 
REMARK    2  A    between atoms: N_16  and  C_17 
REMARK    3  A    between atoms: C_17  and  C_18 
REMARK       I    between atoms: C_18  and  N_19 
REMARK    4  A    between atoms: N_19  and  C_20 
REMARK    5  A    between atoms: C_21  and  C_22 
REMARK       I    between atoms: C_22  and  N_23 
REMARK    6  A    between atoms: N_23  and  C_24 
REMARK    7  A    between atoms: C_24  and  C_25 
ROOT
HETATM    1  C   UNL     1      24.627  45.283  49.913  1.00  0.00     0.240 C 
ENDROOT
BRANCH   1   2
HETATM    2  N   UNL     1      25.355  44.086  50.250  1.00  0.00    -0.259 N 
HETATM    3  C   UNL     1      24.856  43.079  51.014  1.00  0.00     0.326 A 
HETATM    4  N   UNL     1      25.877  42.217  51.337  1.00  0.00    -0.321 N 
HETATM    5  O   UNL     1      23.717  42.971  51.438  1.00  0.00    -0.247 OA
HETATM    6  C   UNL     1      27.166  42.679  50.857  1.00  0.00     0.140 A 
HETATM    7  H   UNL     1      25.742  41.468  52.002  1.00  0.00     0.165 HD
HETATM    8  C   UNL     1      27.699  41.682  49.827  1.00  0.00     0.054 C 
HETATM    9  C   UNL     1      26.713  43.967  50.123  1.00  0.00     0.261 A 
HETATM   10  O   UNL     1      27.450  44.777  49.575  1.00  0.00    -0.270 OA
BRANCH   6  11
HETATM   11  C   UNL     1      28.095  43.031  52.021  1.00  0.00    -0.020 A 
HETATM   12  C   UNL     1      27.842  44.111  52.888  1.00  0.00     0.022 A 
HETATM   13  C   UNL     1      28.651  44.368  54.013  1.00  0.00    -0.025 A 
HETATM   14  C   UNL     1      29.752  43.528  54.283  1.00  0.00    -0.026 A 
HETATM   15  C   UNL     1      28.377  45.433  54.887  1.00  0.00     0.012 A 
HETATM   16  C   UNL     1      30.027  42.466  53.414  1.00  0.00     0.013 A 
HETATM   17  C   UNL     1      30.542  43.764  55.421  1.00  0.00     0.012 A 
HETATM   18  C   UNL     1      29.214  42.225  52.303  1.00  0.00     0.011 A 
HETATM   19  C   UNL     1      30.251  44.822  56.282  1.00  0.00     0.001 A 
HETATM   20  C   UNL     1      29.171  45.659  56.014  1.00  0.00     0.001 A 
ENDBRANCH   6  11
ENDBRANCH   1   2
BRANCH   1  21
HETATM   21  C   UNL     1      23.568  45.096  48.826  1.00  0.00     0.240 C 
HETATM   22  N   UNL     1      22.345  45.615  49.235  1.00  0.00    -0.325 N 
HETATM   23  H   UNL     1      22.187  45.628  50.236  1.00  0.00     0.169 HD
HETATM   24  O   UNL     1      23.763  44.500  47.771  1.00  0.00    -0.271 OA
BRANCH  22  25
HETATM   25  C   UNL     1      21.199  45.787  48.431  1.00  0.00     0.050 A 
HETATM   26  C   UNL     1      20.474  46.977  48.277  1.00  0.00     0.058 A 
HETATM   27  C   UNL     1      19.323  47.009  47.468  1.00  0.00     0.019 A 
HETATM   28  C   UNL     1      18.890  45.859  46.810  1.00  0.00     0.001 A 
HETATM   29  C   UNL     1      19.589  44.668  46.976  1.00  0.00     0.002 A 
HETATM   30  C   UNL     1      20.726  44.631  47.788  1.00  0.00     0.030 A 
BRANCH  26  31
HETATM   31  C   UNL     1      20.675  48.183  49.105  1.00  0.00     0.254 C 
HETATM   32  N   UNL     1      19.601  48.524  49.889  1.00  0.00    -0.351 N 
HETATM   33  H   UNL     1      18.696  48.334  49.465  1.00  0.00     0.163 HD
HETATM   34  O   UNL     1      21.769  48.731  49.121  1.00  0.00    -0.268 OA
BRANCH  32  35
HETATM   35  C   UNL     1      19.664  49.700  50.723  1.00  0.00     0.187 C 
BRANCH  35  36
HETATM   36  C   UNL     1      19.137  50.849  49.946  1.00  0.00     0.070 A 
HETATM   37  O   UNL     1      17.905  51.320  50.294  1.00  0.00    -0.325 OA
HETATM   38  C   UNL     1      17.633  52.368  49.474  1.00  0.00     0.142 A 
HETATM   39  C   UNL     1      18.673  52.580  48.601  1.00  0.00     0.027 A 
HETATM   40  C   UNL     1      19.646  51.596  48.901  1.00  0.00     0.036 A 
ENDBRANCH  35  36
ENDBRANCH  32  35
ENDBRANCH  26  31
ENDBRANCH  22  25
ENDBRANCH   1  21
TORSDOF 7
ENDMDL
MODEL 6
REMARK VINA RESULT:     -10.4      2.262      3.488
REMARK  7 active torsions:
REMARK  status: ('A' for Active; 'I' for Inactive)
REMARK    1  A    between atoms: C_2  and  C_3 
REMARK    2  A    between atoms: N_16  and  C_17 
REMARK    3  A    between atoms: C_17  and  C_18 
REMARK       I    between atoms: C_18  and  N_19 
REMARK    4  A    between atoms: N_19  and  C_20 
REMARK    5  A    between atoms: C_21  and  C_22 
REMARK       I    between atoms: C_22  and  N_23 
REMARK    6  A    between atoms: N_23  and  C_24 
REMARK    7  A    between atoms: C_24  and  C_25 
ROOT
HETATM    1  C   UNL     1      25.681  45.744  50.925  1.00  0.00     0.240 C 
ENDROOT
BRANCH   1   2
HETATM    2  N   UNL     1      26.083  44.588  51.687  1.00  0.00    -0.259 N 
HETATM    3  C   UNL     1      25.360  44.059  52.708  1.00  0.00     0.326 A 
HETATM    4  N   UNL     1      26.131  43.128  53.363  1.00  0.00    -0.321 N 
HETATM    5  O   UNL     1      24.245  44.393  53.072  1.00  0.00    -0.247 OA
HETATM    6  C   UNL     1      27.482  43.058  52.838  1.00  0.00     0.140 A 
HETATM    7  H   UNL     1      25.825  42.707  54.230  1.00  0.00     0.165 HD
HETATM    8  C   UNL     1      27.709  41.672  52.234  1.00  0.00     0.054 C 
HETATM    9  C   UNL     1      27.358  44.093  51.691  1.00  0.00     0.261 A 
HETATM   10  O   UNL     1      28.266  44.456  50.952  1.00  0.00    -0.270 OA
BRANCH   6  11
HETATM   11  C   UNL     1      28.502  43.534  53.875  1.00  0.00    -0.020 A 
HETATM   12  C   UNL     1      28.219  44.562  54.795  1.00  0.00     0.022 A 
HETATM   13  C   UNL     1      29.130  44.927  55.807  1.00  0.00    -0.025 A 
HETATM   14  C   UNL     1      30.366  44.253  55.905  1.00  0.00    -0.026 A 
HETATM   15  C   UNL     1      28.830  45.937  56.735  1.00  0.00     0.012 A 
HETATM   16  C   UNL     1      30.667  43.247  54.981  1.00  0.00     0.013 A 
HETATM   17  C   UNL     1      31.262  44.596  56.932  1.00  0.00     0.012 A 
HETATM   18  C   UNL     1      29.752  42.897  53.983  1.00  0.00     0.011 A 
HETATM   19  C   UNL     1      30.944  45.596  57.850  1.00  0.00     0.001 A 
HETATM   20  C   UNL     1      29.730  46.270  57.750  1.00  0.00     0.001 A 
ENDBRANCH   6  11
ENDBRANCH   1   2
BRANCH   1  21
HETATM   21  C   UNL     1      24.907  45.425  49.646  1.00  0.00     0.240 C 
HETATM   22  N   UNL     1      23.582  45.829  49.758  1.00  0.00    -0.325 N 
HETATM   23  H   UNL     1      23.208  45.852  50.700  1.00  0.00     0.169 HD
HETATM   24  O   UNL     1      25.382  44.823  48.687  1.00  0.00    -0.271 OA
BRANCH  22  25
HETATM   25  C   UNL     1      22.629  45.865  48.719  1.00  0.00     0.050 A 
HETATM   26  C   UNL     1      22.201  47.011  48.035  1.00  0.00     0.058 A 
HETATM   27  C   UNL     1      21.214  46.916  47.036  1.00  0.00     0.019 A 
HETATM   28  C   UNL     1      20.649  45.682  46.716  1.00  0.00     0.001 A 
HETATM   29  C   UNL     1      21.049  44.544  47.406  1.00  0.00     0.002 A 
HETATM   30  C   UNL     1      22.022  44.637  48.406  1.00  0.00     0.030 A 
BRANCH  26  31
HETATM   31  C   UNL     1      22.527  48.391  48.445  1.00  0.00     0.254 C 
HETATM   32  N   UNL     1      21.581  48.991  49.237  1.00  0.00    -0.351 N 
HETATM   33  H   UNL     1      20.622  48.733  49.014  1.00  0.00     0.163 HD
HETATM   34  O   UNL     1      23.616  48.868  48.153  1.00  0.00    -0.268 OA
BRANCH  32  35
HETATM   35  C   UNL     1      21.773  50.352  49.681  1.00  0.00     0.187 C 
BRANCH  35  36
HETATM   36  C   UNL     1      20.519  51.104  49.424  1.00  0.00     0.070 A 
HETATM   37  O   UNL     1      19.528  50.994  50.356  1.00  0.00    -0.325 OA
HETATM   38  C   UNL     1      18.496  51.767  49.932  1.00  0.00     0.142 A 
HETATM   39  C   UNL     1      18.806  52.375  48.739  1.00  0.00     0.027 A 
HETATM   40  C   UNL     1      20.112  51.945  48.406  1.00  0.00     0.036 A 
ENDBRANCH  35  36
ENDBRANCH  32  35
ENDBRANCH  26  31
ENDBRANCH  22  25
ENDBRANCH   1  21
TORSDOF 7
ENDMDL
MODEL 7
REMARK VINA RESULT:      -9.8      2.524      5.187
REMARK  7 active torsions:
REMARK  status: ('A' for Active; 'I' for Inactive)
REMARK    1  A    between atoms: C_2  and  C_3 
REMARK    2  A    between atoms: N_16  and  C_17 
REMARK    3  A    between atoms: C_17  and  C_18 
REMARK       I    between atoms: C_18  and  N_19 
REMARK    4  A    between atoms: N_19  and  C_20 
REMARK    5  A    between atoms: C_21  and  C_22 
REMARK       I    between atoms: C_22  and  N_23 
REMARK    6  A    between atoms: N_23  and  C_24 
REMARK    7  A    between atoms: C_24  and  C_25 
ROOT
HETATM    1  C   UNL     1      23.972  44.725  48.693  1.00  0.00     0.240 C 
ENDROOT
BRANCH   1   2
HETATM    2  N   UNL     1      24.554  43.786  49.619  1.00  0.00    -0.259 N 
HETATM    3  C   UNL     1      23.861  43.157  50.604  1.00  0.00     0.326 A 
HETATM    4  N   UNL     1      24.751  42.528  51.442  1.00  0.00    -0.321 N 
HETATM    5  O   UNL     1      22.657  43.195  50.798  1.00  0.00    -0.247 OA
HETATM    6  C   UNL     1      26.132  42.795  51.087  1.00  0.00     0.140 A 
HETATM    7  H   UNL     1      24.448  42.106  52.309  1.00  0.00     0.165 HD
HETATM    8  C   UNL     1      26.801  41.485  50.670  1.00  0.00     0.054 C 
HETATM    9  C   UNL     1      25.901  43.665  49.825  1.00  0.00     0.261 A 
HETATM   10  O   UNL     1      26.775  44.208  49.159  1.00  0.00    -0.270 OA
BRANCH   6  11
HETATM   11  C   UNL     1      26.834  43.612  52.174  1.00  0.00    -0.020 A 
HETATM   12  C   UNL     1      26.339  44.851  52.623  1.00  0.00     0.022 A 
HETATM   13  C   UNL     1      26.939  45.550  53.691  1.00  0.00    -0.025 A 
HETATM   14  C   UNL     1      28.071  45.002  54.329  1.00  0.00    -0.026 A 
HETATM   15  C   UNL     1      26.425  46.774  54.149  1.00  0.00     0.012 A 
HETATM   16  C   UNL     1      28.586  43.783  53.875  1.00  0.00     0.013 A 
HETATM   17  C   UNL     1      28.652  45.682  55.413  1.00  0.00     0.012 A 
HETATM   18  C   UNL     1      27.979  43.103  52.815  1.00  0.00     0.011 A 
HETATM   19  C   UNL     1      28.124  46.894  55.860  1.00  0.00     0.001 A 
HETATM   20  C   UNL     1      27.012  47.441  55.226  1.00  0.00     0.001 A 
ENDBRANCH   6  11
ENDBRANCH   1   2
BRANCH   1  21
HETATM   21  C   UNL     1      23.830  46.147  49.236  1.00  0.00     0.240 C 
HETATM   22  N   UNL     1      23.209  46.971  48.305  1.00  0.00    -0.325 N 
HETATM   23  H   UNL     1      23.330  46.705  47.334  1.00  0.00     0.169 HD
HETATM   24  O   UNL     1      24.277  46.518  50.318  1.00  0.00    -0.271 OA
BRANCH  22  25
HETATM   25  C   UNL     1      22.748  48.285  48.528  1.00  0.00     0.050 A 
HETATM   26  C   UNL     1      21.443  48.649  48.887  1.00  0.00     0.058 A 
HETATM   27  C   UNL     1      21.101  50.004  49.047  1.00  0.00     0.019 A 
HETATM   28  C   UNL     1      22.055  51.002  48.849  1.00  0.00     0.001 A 
HETATM   29  C   UNL     1      23.345  50.652  48.468  1.00  0.00     0.002 A 
HETATM   30  C   UNL     1      23.685  49.306  48.298  1.00  0.00     0.030 A 
BRANCH  26  31
HETATM   31  C   UNL     1      20.293  47.724  48.879  1.00  0.00     0.254 C 
HETATM   32  N   UNL     1      19.069  48.331  49.004  1.00  0.00    -0.351 N 
HETATM   33  H   UNL     1      19.067  49.150  49.608  1.00  0.00     0.163 HD
HETATM   34  O   UNL     1      20.476  46.532  48.671  1.00  0.00    -0.268 OA
BRANCH  32  35
HETATM   35  C   UNL     1      17.868  47.530  49.037  1.00  0.00     0.187 C 
BRANCH  35  36
HETATM   36  C   UNL     1      17.088  47.814  47.806  1.00  0.00     0.070 A 
HETATM   37  O   UNL     1      15.734  47.911  47.939  1.00  0.00    -0.325 OA
HETATM   38  C   UNL     1      15.232  48.187  46.708  1.00  0.00     0.142 A 
HETATM   39  C   UNL     1      16.245  48.269  45.782  1.00  0.00     0.027 A 
HETATM   40  C   UNL     1      17.446  48.024  46.488  1.00  0.00     0.036 A 
ENDBRANCH  35  36
ENDBRANCH  32  35
ENDBRANCH  26  31
ENDBRANCH  22  25
ENDBRANCH   1  21
TORSDOF 7
ENDMDL
MODEL 8
REMARK VINA RESULT:      -9.7      1.729      4.620
REMARK  7 active torsions:
REMARK  status: ('A' for Active; 'I' for Inactive)
REMARK    1  A    between atoms: C_2  and  C_3 
REMARK    2  A    between atoms: N_16  and  C_17 
REMARK    3  A    between atoms: C_17  and  C_18 
REMARK       I    between atoms: C_18  and  N_19 
REMARK    4  A    between atoms: N_19  and  C_20 
REMARK    5  A    between atoms: C_21  and  C_22 
REMARK       I    between atoms: C_22  and  N_23 
REMARK    6  A    between atoms: N_23  and  C_24 
REMARK    7  A    between atoms: C_24  and  C_25 
ROOT
HETATM    1  C   UNL     1      24.392  44.863  48.861  1.00  0.00     0.240 C 
ENDROOT
BRANCH   1   2
HETATM    2  N   UNL     1      24.910  43.913  49.815  1.00  0.00    -0.259 N 
HETATM    3  C   UNL     1      24.148  43.259  50.730  1.00  0.00     0.326 A 
HETATM    4  N   UNL     1      24.976  42.625  51.625  1.00  0.00    -0.321 N 
HETATM    5  O   UNL     1      22.933  43.281  50.828  1.00  0.00    -0.247 OA
HETATM    6  C   UNL     1      26.378  42.913  51.385  1.00  0.00     0.140 A 
HETATM    7  H   UNL     1      24.611  42.183  52.458  1.00  0.00     0.165 HD
HETATM    8  C   UNL     1      27.093  41.617  51.001  1.00  0.00     0.054 C 
HETATM    9  C   UNL     1      26.238  43.803  50.124  1.00  0.00     0.261 A 
HETATM   10  O   UNL     1      27.155  44.367  49.540  1.00  0.00    -0.270 OA
BRANCH   6  11
HETATM   11  C   UNL     1      26.981  43.717  52.540  1.00  0.00    -0.020 A 
HETATM   12  C   UNL     1      28.127  43.291  53.237  1.00  0.00     0.022 A 
HETATM   13  C   UNL     1      28.729  44.086  54.234  1.00  0.00    -0.025 A 
HETATM   14  C   UNL     1      28.171  45.342  54.553  1.00  0.00    -0.026 A 
HETATM   15  C   UNL     1      29.887  43.664  54.909  1.00  0.00     0.012 A 
HETATM   16  C   UNL     1      27.018  45.764  53.882  1.00  0.00     0.013 A 
HETATM   17  C   UNL     1      28.788  46.147  55.525  1.00  0.00     0.012 A 
HETATM   18  C   UNL     1      26.433  44.964  52.896  1.00  0.00     0.011 A 
HETATM   19  C   UNL     1      29.942  45.716  56.180  1.00  0.00     0.001 A 
HETATM   20  C   UNL     1      30.489  44.473  55.875  1.00  0.00     0.001 A 
ENDBRANCH   6  11
ENDBRANCH   1   2
BRANCH   1  21
HETATM   21  C   UNL     1      24.049  46.231  49.451  1.00  0.00     0.240 C 
HETATM   22  N   UNL     1      23.468  47.051  48.491  1.00  0.00    -0.325 N 
HETATM   23  H   UNL     1      23.730  46.855  47.530  1.00  0.00     0.169 HD
HETATM   24  O   UNL     1      24.325  46.575  50.597  1.00  0.00    -0.271 OA
BRANCH  22  25
HETATM   25  C   UNL     1      22.859  48.302  48.717  1.00  0.00     0.050 A 
HETATM   26  C   UNL     1      21.480  48.553  48.746  1.00  0.00     0.058 A 
HETATM   27  C   UNL     1      20.998  49.859  48.949  1.00  0.00     0.019 A 
HETATM   28  C   UNL     1      21.886  50.920  49.124  1.00  0.00     0.001 A 
HETATM   29  C   UNL     1      23.255  50.685  49.072  1.00  0.00     0.002 A 
HETATM   30  C   UNL     1      23.736  49.390  48.860  1.00  0.00     0.030 A 
BRANCH  26  31
HETATM   31  C   UNL     1      20.452  47.579  48.328  1.00  0.00     0.254 C 
HETATM   32  N   UNL     1      20.259  47.497  46.972  1.00  0.00    -0.351 N 
HETATM   33  H   UNL     1      20.360  48.381  46.480  1.00  0.00     0.163 HD
HETATM   34  O   UNL     1      19.923  46.860  49.166  1.00  0.00    -0.268 OA
BRANCH  32  35
HETATM   35  C   UNL     1      19.260  46.599  46.441  1.00  0.00     0.187 C 
BRANCH  35  36
HETATM   36  C   UNL     1      19.927  45.321  46.088  1.00  0.00     0.070 A 
HETATM   37  O   UNL     1      19.227  44.173  46.316  1.00  0.00    -0.325 OA
HETATM   38  C   UNL     1      20.011  43.141  45.909  1.00  0.00     0.142 A 
HETATM   39  C   UNL     1      21.208  43.609  45.421  1.00  0.00     0.027 A 
HETATM   40  C   UNL     1      21.159  45.018  45.539  1.00  0.00     0.036 A 
ENDBRANCH  35  36
ENDBRANCH  32  35
ENDBRANCH  26  31
ENDBRANCH  22  25
ENDBRANCH   1  21
TORSDOF 7
ENDMDL
MODEL 9
REMARK VINA RESULT:      -9.6      4.321     11.078
REMARK  7 active torsions:
REMARK  status: ('A' for Active; 'I' for Inactive)
REMARK    1  A    between atoms: C_2  and  C_3 
REMARK    2  A    between atoms: N_16  and  C_17 
REMARK    3  A    between atoms: C_17  and  C_18 
REMARK       I    between atoms: C_18  and  N_19 
REMARK    4  A    between atoms: N_19  and  C_20 
REMARK    5  A    between atoms: C_21  and  C_22 
REMARK       I    between atoms: C_22  and  N_23 
REMARK    6  A    between atoms: N_23  and  C_24 
REMARK    7  A    between atoms: C_24  and  C_25 
ROOT
HETATM    1  C   UNL     1      20.667  47.765  49.151  1.00  0.00     0.240 C 
ENDROOT
BRANCH   1   2
HETATM    2  N   UNL     1      19.942  49.008  49.231  1.00  0.00    -0.259 N 
HETATM    3  C   UNL     1      19.053  49.311  50.213  1.00  0.00     0.326 A 
HETATM    4  N   UNL     1      18.373  50.453  49.861  1.00  0.00    -0.321 N 
HETATM    5  O   UNL     1      18.806  48.655  51.211  1.00  0.00    -0.247 OA
HETATM    6  C   UNL     1      18.734  50.928  48.538  1.00  0.00     0.140 A 
HETATM    7  H   UNL     1      17.581  50.779  50.397  1.00  0.00     0.165 HD
HETATM    8  C   UNL     1      19.398  52.300  48.666  1.00  0.00     0.054 C 
HETATM    9  C   UNL     1      19.816  49.877  48.181  1.00  0.00     0.261 A 
HETATM   10  O   UNL     1      20.413  49.797  47.115  1.00  0.00    -0.270 OA
BRANCH   6  11
HETATM   11  C   UNL     1      17.551  50.822  47.573  1.00  0.00    -0.020 A 
HETATM   12  C   UNL     1      16.778  49.652  47.454  1.00  0.00     0.022 A 
HETATM   13  C   UNL     1      15.633  49.597  46.633  1.00  0.00    -0.025 A 
HETATM   14  C   UNL     1      15.248  50.739  45.901  1.00  0.00    -0.026 A 
HETATM   15  C   UNL     1      14.853  48.432  46.539  1.00  0.00     0.012 A 
HETATM   16  C   UNL     1      16.023  51.900  45.992  1.00  0.00     0.013 A 
HETATM   17  C   UNL     1      14.090  50.694  45.105  1.00  0.00     0.012 A 
HETATM   18  C   UNL     1      17.156  51.938  46.812  1.00  0.00     0.011 A 
HETATM   19  C   UNL     1      13.323  49.532  45.029  1.00  0.00     0.001 A 
HETATM   20  C   UNL     1      13.705  48.400  45.743  1.00  0.00     0.001 A 
ENDBRANCH   6  11
ENDBRANCH   1   2
BRANCH   1  21
HETATM   21  C   UNL     1      22.058  47.881  48.526  1.00  0.00     0.240 C 
HETATM   22  N   UNL     1      22.923  48.565  49.371  1.00  0.00    -0.325 N 
HETATM   23  H   UNL     1      22.486  49.230  50.001  1.00  0.00     0.169 HD
HETATM   24  O   UNL     1      22.340  47.487  47.397  1.00  0.00    -0.271 OA
BRANCH  22  25
HETATM   25  C   UNL     1      24.318  48.697  49.211  1.00  0.00     0.050 A 
HETATM   26  C   UNL     1      25.293  47.871  49.786  1.00  0.00     0.058 A 
HETATM   27  C   UNL     1      26.660  48.131  49.575  1.00  0.00     0.019 A 
HETATM   28  C   UNL     1      27.061  49.213  48.793  1.00  0.00     0.001 A 
HETATM   29  C   UNL     1      26.101  50.053  48.239  1.00  0.00     0.002 A 
HETATM   30  C   UNL     1      24.742  49.803  48.456  1.00  0.00     0.030 A 
BRANCH  26  31
HETATM   31  C   UNL     1      25.015  46.860  50.826  1.00  0.00     0.254 C 
HETATM   32  N   UNL     1      25.637  47.089  52.027  1.00  0.00    -0.351 N 
HETATM   33  H   UNL     1      26.562  47.506  51.949  1.00  0.00     0.163 HD
HETATM   34  O   UNL     1      24.207  45.969  50.602  1.00  0.00    -0.268 OA
BRANCH  32  35
HETATM   35  C   UNL     1      25.465  46.156  53.116  1.00  0.00     0.187 C 
BRANCH  35  36
HETATM   36  C   UNL     1      26.663  46.236  53.988  1.00  0.00     0.070 A 
HETATM   37  O   UNL     1      27.236  45.056  54.365  1.00  0.00    -0.325 OA
HETATM   38  C   UNL     1      28.311  45.364  55.135  1.00  0.00     0.142 A 
HETATM   39  C   UNL     1      28.441  46.727  55.260  1.00  0.00     0.027 A 
HETATM   40  C   UNL     1      27.374  47.293  54.523  1.00  0.00     0.036 A 
ENDBRANCH  35  36
ENDBRANCH  32  35
ENDBRANCH  26  31
ENDBRANCH  22  25
ENDBRANCH   1  21
TORSDOF 7
ENDMDL
MODEL 10
REMARK VINA RESULT:      -9.5      2.791      4.899
REMARK  7 active torsions:
REMARK  status: ('A' for Active; 'I' for Inactive)
REMARK    1  A    between atoms: C_2  and  C_3 
REMARK    2  A    between atoms: N_16  and  C_17 
REMARK    3  A    between atoms: C_17  and  C_18 
REMARK       I    between atoms: C_18  and  N_19 
REMARK    4  A    between atoms: N_19  and  C_20 
REMARK    5  A    between atoms: C_21  and  C_22 
REMARK       I    between atoms: C_22  and  N_23 
REMARK    6  A    between atoms: N_23  and  C_24 
REMARK    7  A    between atoms: C_24  and  C_25 
ROOT
HETATM    1  C   UNL     1      25.099  42.676  50.959  1.00  0.00     0.240 C 
ENDROOT
BRANCH   1   2
HETATM    2  N   UNL     1      25.604  43.986  51.288  1.00  0.00    -0.259 N 
HETATM    3  C   UNL     1      26.580  44.624  50.591  1.00  0.00     0.326 A 
HETATM    4  N   UNL     1      26.985  45.728  51.303  1.00  0.00    -0.321 N 
HETATM    5  O   UNL     1      27.099  44.261  49.549  1.00  0.00    -0.247 OA
HETATM    6  C   UNL     1      26.332  45.826  52.595  1.00  0.00     0.140 A 
HETATM    7  H   UNL     1      27.789  46.271  51.018  1.00  0.00     0.165 HD
HETATM    8  C   UNL     1      25.474  47.091  52.624  1.00  0.00     0.054 C 
HETATM    9  C   UNL     1      25.401  44.590  52.499  1.00  0.00     0.261 A 
HETATM   10  O   UNL     1      24.657  44.183  53.382  1.00  0.00    -0.270 OA
BRANCH   6  11
HETATM   11  C   UNL     1      27.337  45.647  53.736  1.00  0.00    -0.020 A 
HETATM   12  C   UNL     1      28.158  44.509  53.845  1.00  0.00     0.022 A 
HETATM   13  C   UNL     1      29.146  44.398  54.845  1.00  0.00    -0.025 A 
HETATM   14  C   UNL     1      29.319  45.449  55.770  1.00  0.00    -0.026 A 
HETATM   15  C   UNL     1      29.978  43.270  54.932  1.00  0.00     0.012 A 
HETATM   16  C   UNL     1      28.492  46.574  55.685  1.00  0.00     0.013 A 
HETATM   17  C   UNL     1      30.324  45.352  56.748  1.00  0.00     0.012 A 
HETATM   18  C   UNL     1      27.517  46.668  54.687  1.00  0.00     0.011 A 
HETATM   19  C   UNL     1      31.146  44.228  56.816  1.00  0.00     0.001 A 
HETATM   20  C   UNL     1      30.971  43.185  55.910  1.00  0.00     0.001 A 
ENDBRANCH   6  11
ENDBRANCH   1   2
BRANCH   1  21
HETATM   21  C   UNL     1      23.830  42.682  50.106  1.00  0.00     0.240 C 
HETATM   22  N   UNL     1      24.144  42.783  48.755  1.00  0.00    -0.325 N 
HETATM   23  H   UNL     1      25.017  43.253  48.542  1.00  0.00     0.169 HD
HETATM   24  O   UNL     1      22.692  42.675  50.566  1.00  0.00    -0.271 OA
BRANCH  22  25
HETATM   25  C   UNL     1      23.250  42.631  47.675  1.00  0.00     0.050 A 
HETATM   26  C   UNL     1      23.319  41.644  46.682  1.00  0.00     0.058 A 
HETATM   27  C   UNL     1      22.381  41.622  45.635  1.00  0.00     0.019 A 
HETATM   28  C   UNL     1      21.371  42.581  45.570  1.00  0.00     0.001 A 
HETATM   29  C   UNL     1      21.308  43.578  46.537  1.00  0.00     0.002 A 
HETATM   30  C   UNL     1      22.247  43.609  47.573  1.00  0.00     0.030 A 
BRANCH  26  31
HETATM   31  C   UNL     1      24.469  40.738  46.494  1.00  0.00     0.254 C 
HETATM   32  N   UNL     1      24.493  39.659  47.343  1.00  0.00    -0.351 N 
HETATM   33  H   UNL     1      24.136  39.852  48.276  1.00  0.00     0.163 HD
HETATM   34  O   UNL     1      25.249  40.932  45.571  1.00  0.00    -0.268 OA
BRANCH  32  35
HETATM   35  C   UNL     1      25.582  38.714  47.276  1.00  0.00     0.187 C 
BRANCH  35  36
HETATM   36  C   UNL     1      26.714  39.255  48.069  1.00  0.00     0.070 A 
HETATM   37  O   UNL     1      26.431  39.711  49.323  1.00  0.00    -0.325 OA
HETATM   38  C   UNL     1      27.600  40.138  49.865  1.00  0.00     0.142 A 
HETATM   39  C   UNL     1      28.635  39.964  48.978  1.00  0.00     0.027 A 
HETATM   40  C   UNL     1      28.065  39.397  47.813  1.00  0.00     0.036 A 
ENDBRANCH  35  36
ENDBRANCH  32  35
ENDBRANCH  26  31
ENDBRANCH  22  25
ENDBRANCH   1  21
TORSDOF 7
ENDMDL
