MODEL 1
REMARK VINA RESULT:      -8.1      0.000      0.000
REMARK  5 active torsions:
REMARK  status: ('A' for Active; 'I' for Inactive)
REMARK    1  A    between atoms: C_3  and  O_4 
REMARK    2  A    between atoms: O_4  and  C_5 
REMARK    3  A    between atoms: C_6  and  N_7 
REMARK       I    between atoms: N_7  and  C_8 
REMARK       I    between atoms: C_8  and  N_9 
REMARK    4  A    between atoms: N_9  and  C_10 
REMARK    5  A    between atoms: C_11  and  C_12 
ROOT
HETATM    1  C   UNL     1      17.380  47.665  46.274  1.00  0.00     0.014 C 
HETATM    2  C   UNL     1      17.267  47.739  47.466  1.00  0.00    -0.091 C 
HETATM    3  C   UNL     1      17.125  47.832  48.924  1.00  0.00     0.268 C 
ENDROOT
BRANCH   3   4
HETATM    4  O   UNL     1      18.414  48.051  49.508  1.00  0.00    -0.337 OA
BRANCH   4   5
HETATM    5  C   UNL     1      18.865  49.335  49.356  1.00  0.00     0.099 A 
HETATM    6  C   UNL     1      20.022  49.561  48.595  1.00  0.00     0.070 A 
HETATM    7  C   UNL     1      20.390  50.883  48.300  1.00  0.00     0.035 A 
HETATM    8  C   UNL     1      19.682  51.958  48.838  1.00  0.00     0.044 A 
HETATM    9  C   UNL     1      18.592  51.711  49.659  1.00  0.00     0.119 A 
HETATM   10  F   UNL     1      17.920  52.740  50.192  1.00  0.00    -0.206 F 
HETATM   11  C   UNL     1      18.173  50.413  49.921  1.00  0.00     0.081 A 
BRANCH   6  12
HETATM   12  N   UNL     1      20.831  48.558  48.030  1.00  0.00    -0.306 N 
HETATM   13  C   UNL     1      22.168  48.292  48.103  1.00  0.00     0.325 C 
HETATM   14  N   UNL     1      22.968  49.129  48.821  1.00  0.00    -0.305 N 
HETATM   15  O   UNL     1      22.568  47.366  47.389  1.00  0.00    -0.247 OA
HETATM   16  H   UNL     1      22.574  49.622  49.620  1.00  0.00     0.171 HD
HETATM   17  H   UNL     1      20.443  48.051  47.243  1.00  0.00     0.171 HD
BRANCH  14  18
HETATM   18  C   UNL     1      24.348  49.223  48.678  1.00  0.00     0.086 A 
HETATM   19  C   UNL     1      25.368  48.449  49.329  1.00  0.00     0.133 A 
HETATM   20  N   UNL     1      26.595  48.867  48.944  1.00  0.00    -0.171 NA
HETATM   21  N   UNL     1      26.355  49.872  48.093  1.00  0.00    -0.286 N 
HETATM   22  H   UNL     1      27.146  50.352  47.679  1.00  0.00     0.188 HD
HETATM   23  C   UNL     1      25.036  50.124  47.900  1.00  0.00     0.141 A 
BRANCH  19  24
HETATM   24  C   UNL     1      25.208  47.334  50.276  1.00  0.00     0.089 A 
HETATM   25  N   UNL     1      25.522  47.575  51.576  1.00  0.00    -0.259 NA
HETATM   26  C   UNL     1      25.353  46.557  52.449  1.00  0.00     0.117 A 
HETATM   27  C   UNL     1      24.888  45.301  52.099  1.00  0.00     0.019 A 
HETATM   28  C   UNL     1      24.579  45.066  50.767  1.00  0.00     0.004 A 
HETATM   29  C   UNL     1      24.741  46.093  49.841  1.00  0.00     0.034 A 
ENDBRANCH  19  24
ENDBRANCH  14  18
ENDBRANCH   6  12
ENDBRANCH   4   5
ENDBRANCH   3   4
TORSDOF 5
ENDMDL
MODEL 2
REMARK VINA RESULT:      -8.1      4.029      6.305
REMARK  5 active torsions:
REMARK  status: ('A' for Active; 'I' for Inactive)
REMARK    1  A    between atoms: C_3  and  O_4 
REMARK    2  A    between atoms: O_4  and  C_5 
REMARK    3  A    between atoms: C_6  and  N_7 
REMARK       I    between atoms: N_7  and  C_8 
REMARK       I    between atoms: C_8  and  N_9 
REMARK    4  A    between atoms: N_9  and  C_10 
REMARK    5  A    between atoms: C_11  and  C_12 
ROOT
HETATM    1  C   UNL     1      20.475  45.964  47.371  1.00  0.00     0.014 C 
HETATM    2  C   UNL     1      21.243  46.838  47.663  1.00  0.00    -0.091 C 
HETATM    3  C   UNL     1      22.182  47.909  48.016  1.00  0.00     0.268 C 
ENDROOT
BRANCH   3   4
HETATM    4  O   UNL     1      22.809  47.591  49.265  1.00  0.00    -0.337 OA
BRANCH   4   5
HETATM    5  C   UNL     1      24.099  48.044  49.352  1.00  0.00     0.099 A 
HETATM    6  C   UNL     1      24.986  47.394  50.224  1.00  0.00     0.070 A 
HETATM    7  C   UNL     1      26.345  47.748  50.192  1.00  0.00     0.035 A 
HETATM    8  C   UNL     1      26.791  48.795  49.387  1.00  0.00     0.044 A 
HETATM    9  C   UNL     1      25.880  49.481  48.597  1.00  0.00     0.119 A 
HETATM   10  F   UNL     1      26.301  50.499  47.836  1.00  0.00    -0.206 F 
HETATM   11  C   UNL     1      24.541  49.115  48.567  1.00  0.00     0.081 A 
BRANCH   6  12
HETATM   12  N   UNL     1      24.644  46.350  51.101  1.00  0.00    -0.306 N 
HETATM   13  C   UNL     1      25.212  45.137  51.369  1.00  0.00     0.325 C 
HETATM   14  N   UNL     1      26.323  44.762  50.674  1.00  0.00    -0.305 N 
HETATM   15  O   UNL     1      24.582  44.412  52.146  1.00  0.00    -0.247 OA
HETATM   16  H   UNL     1      26.960  45.481  50.338  1.00  0.00     0.171 HD
HETATM   17  H   UNL     1      23.695  46.348  51.457  1.00  0.00     0.171 HD
BRANCH  14  18
HETATM   18  C   UNL     1      26.774  43.453  50.547  1.00  0.00     0.086 A 
HETATM   19  C   UNL     1      27.715  42.749  51.374  1.00  0.00     0.133 A 
HETATM   20  N   UNL     1      27.914  41.498  50.902  1.00  0.00    -0.171 NA
HETATM   21  N   UNL     1      27.136  41.423  49.815  1.00  0.00    -0.286 N 
HETATM   22  H   UNL     1      27.133  40.559  49.284  1.00  0.00     0.188 HD
HETATM   23  C   UNL     1      26.437  42.557  49.561  1.00  0.00     0.141 A 
BRANCH  19  24
HETATM   24  C   UNL     1      28.404  43.223  52.585  1.00  0.00     0.089 A 
HETATM   25  N   UNL     1      27.887  44.316  53.205  1.00  0.00    -0.259 NA
HETATM   26  C   UNL     1      28.508  44.737  54.329  1.00  0.00     0.117 A 
HETATM   27  C   UNL     1      29.625  44.129  54.876  1.00  0.00     0.019 A 
HETATM   28  C   UNL     1      30.147  43.018  54.228  1.00  0.00     0.004 A 
HETATM   29  C   UNL     1      29.532  42.558  53.067  1.00  0.00     0.034 A 
ENDBRANCH  19  24
ENDBRANCH  14  18
ENDBRANCH   6  12
ENDBRANCH   4   5
ENDBRANCH   3   4
TORSDOF 5
ENDMDL
MODEL 3
REMARK VINA RESULT:      -8.0      6.171      9.679
REMARK  5 active torsions:
REMARK  status: ('A' for Active; 'I' for Inactive)
REMARK    1  A    between atoms: C_3  and  O_4 
REMARK    2  A    between atoms: O_4  and  C_5 
REMARK    3  A    between atoms: C_6  and  N_7 
REMARK       I    between atoms: N_7  and  C_8 
REMARK       I    between atoms: C_8  and  N_9 
REMARK    4  A    between atoms: N_9  and  C_10 
REMARK    5  A    between atoms: C_11  and  C_12 
ROOT
HETATM    1  C   UNL     1      27.811  40.421  50.494  1.00  0.00     0.014 C 
HETATM    2  C   UNL     1      28.365  40.757  51.504  1.00  0.00    -0.091 C 
HETATM    3  C   UNL     1      29.046  41.165  52.739  1.00  0.00     0.268 C 
ENDROOT
BRANCH   3   4
HETATM    4  O   UNL     1      28.087  41.741  53.634  1.00  0.00    -0.337 OA
BRANCH   4   5
HETATM    5  C   UNL     1      28.530  42.891  54.232  1.00  0.00     0.099 A 
HETATM    6  C   UNL     1      27.619  43.937  54.446  1.00  0.00     0.070 A 
HETATM    7  C   UNL     1      28.028  45.045  55.205  1.00  0.00     0.035 A 
HETATM    8  C   UNL     1      29.344  45.158  55.651  1.00  0.00     0.044 A 
HETATM    9  C   UNL     1      30.251  44.152  55.354  1.00  0.00     0.119 A 
HETATM   10  F   UNL     1      31.521  44.265  55.764  1.00  0.00    -0.206 F 
HETATM   11  C   UNL     1      29.859  43.019  54.653  1.00  0.00     0.081 A 
BRANCH   6  12
HETATM   12  N   UNL     1      26.280  43.947  54.016  1.00  0.00    -0.306 N 
HETATM   13  C   UNL     1      25.661  44.463  52.914  1.00  0.00     0.325 C 
HETATM   14  N   UNL     1      26.405  45.150  52.002  1.00  0.00    -0.305 N 
HETATM   15  O   UNL     1      24.429  44.372  52.900  1.00  0.00    -0.247 OA
HETATM   16  H   UNL     1      27.386  44.906  51.882  1.00  0.00     0.171 HD
HETATM   17  H   UNL     1      25.576  43.748  54.718  1.00  0.00     0.171 HD
BRANCH  14  18
HETATM   18  C   UNL     1      25.890  46.041  51.067  1.00  0.00     0.086 A 
HETATM   19  C   UNL     1      25.096  45.754  49.904  1.00  0.00     0.133 A 
HETATM   20  N   UNL     1      24.817  46.893  49.232  1.00  0.00    -0.171 NA
HETATM   21  N   UNL     1      25.421  47.857  49.938  1.00  0.00    -0.286 N 
HETATM   22  H   UNL     1      25.352  48.812  49.607  1.00  0.00     0.188 HD
HETATM   23  C   UNL     1      26.072  47.403  51.039  1.00  0.00     0.141 A 
BRANCH  19  24
HETATM   24  C   UNL     1      24.595  44.453  49.436  1.00  0.00     0.089 A 
HETATM   25  N   UNL     1      25.474  43.416  49.426  1.00  0.00    -0.259 NA
HETATM   26  C   UNL     1      25.006  42.216  49.016  1.00  0.00     0.117 A 
HETATM   27  C   UNL     1      23.703  41.986  48.609  1.00  0.00     0.019 A 
HETATM   28  C   UNL     1      22.818  43.055  48.617  1.00  0.00     0.004 A 
HETATM   29  C   UNL     1      23.267  44.305  49.033  1.00  0.00     0.034 A 
ENDBRANCH  19  24
ENDBRANCH  14  18
ENDBRANCH   6  12
ENDBRANCH   4   5
ENDBRANCH   3   4
TORSDOF 5
ENDMDL
MODEL 4
REMARK VINA RESULT:      -7.9     11.646     14.203
REMARK  5 active torsions:
REMARK  status: ('A' for Active; 'I' for Inactive)
REMARK    1  A    between atoms: C_3  and  O_4 
REMARK    2  A    between atoms: O_4  and  C_5 
REMARK    3  A    between atoms: C_6  and  N_7 
REMARK       I    between atoms: N_7  and  C_8 
REMARK       I    between atoms: C_8  and  N_9 
REMARK    4  A    between atoms: N_9  and  C_10 
REMARK    5  A    between atoms: C_11  and  C_12 
ROOT
HETATM    1  C   UNL     1      31.207  48.909  42.722  1.00  0.00     0.014 C 
HETATM    2  C   UNL     1      31.909  49.801  43.111  1.00  0.00    -0.091 C 
HETATM    3  C   UNL     1      32.767  50.890  43.593  1.00  0.00     0.268 C 
ENDROOT
BRANCH   3   4
HETATM    4  O   UNL     1      32.683  51.992  42.681  1.00  0.00    -0.337 OA
BRANCH   4   5
HETATM    5  C   UNL     1      33.419  51.806  41.541  1.00  0.00     0.099 A 
HETATM    6  C   UNL     1      33.108  52.567  40.404  1.00  0.00     0.070 A 
HETATM    7  C   UNL     1      33.962  52.500  39.291  1.00  0.00     0.035 A 
HETATM    8  C   UNL     1      35.042  51.618  39.272  1.00  0.00     0.044 A 
HETATM    9  C   UNL     1      35.280  50.812  40.376  1.00  0.00     0.119 A 
HETATM   10  F   UNL     1      36.305  49.950  40.355  1.00  0.00    -0.206 F 
HETATM   11  C   UNL     1      34.484  50.899  41.510  1.00  0.00     0.081 A 
BRANCH   6  12
HETATM   12  N   UNL     1      32.030  53.464  40.296  1.00  0.00    -0.306 N 
HETATM   13  C   UNL     1      30.697  53.351  40.570  1.00  0.00     0.325 C 
HETATM   14  N   UNL     1      30.214  52.156  41.013  1.00  0.00    -0.305 N 
HETATM   15  O   UNL     1      30.003  54.326  40.263  1.00  0.00    -0.247 OA
HETATM   16  H   UNL     1      30.826  51.547  41.552  1.00  0.00     0.171 HD
HETATM   17  H   UNL     1      32.171  54.276  39.708  1.00  0.00     0.171 HD
BRANCH  14  18
HETATM   18  C   UNL     1      28.878  51.773  40.962  1.00  0.00     0.086 A 
HETATM   19  C   UNL     1      28.322  50.538  40.483  1.00  0.00     0.133 A 
HETATM   20  N   UNL     1      26.973  50.562  40.573  1.00  0.00    -0.171 NA
HETATM   21  N   UNL     1      26.693  51.769  41.079  1.00  0.00    -0.286 N 
HETATM   22  H   UNL     1      25.720  52.016  41.226  1.00  0.00     0.188 HD
HETATM   23  C   UNL     1      27.789  52.528  41.329  1.00  0.00     0.141 A 
BRANCH  19  24
HETATM   24  C   UNL     1      29.028  49.355  39.966  1.00  0.00     0.089 A 
HETATM   25  N   UNL     1      30.217  49.565  39.342  1.00  0.00    -0.259 NA
HETATM   26  C   UNL     1      30.875  48.475  38.888  1.00  0.00     0.117 A 
HETATM   27  C   UNL     1      30.413  47.177  39.017  1.00  0.00     0.019 A 
HETATM   28  C   UNL     1      29.194  46.977  39.650  1.00  0.00     0.004 A 
HETATM   29  C   UNL     1      28.489  48.077  40.129  1.00  0.00     0.034 A 
ENDBRANCH  19  24
ENDBRANCH  14  18
ENDBRANCH   6  12
ENDBRANCH   4   5
ENDBRANCH   3   4
TORSDOF 5
ENDMDL
MODEL 5
REMARK VINA RESULT:      -7.8     12.440     15.015
REMARK  5 active torsions:
REMARK  status: ('A' for Active; 'I' for Inactive)
REMARK    1  A    between atoms: C_3  and  O_4 
REMARK    2  A    between atoms: O_4  and  C_5 
REMARK    3  A    between atoms: C_6  and  N_7 
REMARK       I    between atoms: N_7  and  C_8 
REMARK       I    between atoms: C_8  and  N_9 
REMARK    4  A    between atoms: N_9  and  C_10 
REMARK    5  A    between atoms: C_11  and  C_12 
ROOT
HETATM    1  C   UNL     1      29.547  52.392  42.053  1.00  0.00     0.014 C 
HETATM    2  C   UNL     1      30.533  52.686  41.437  1.00  0.00    -0.091 C 
HETATM    3  C   UNL     1      31.739  53.051  40.683  1.00  0.00     0.268 C 
ENDROOT
BRANCH   3   4
HETATM    4  O   UNL     1      32.212  51.902  39.970  1.00  0.00    -0.337 OA
BRANCH   4   5
HETATM    5  C   UNL     1      33.512  51.584  40.261  1.00  0.00     0.099 A 
HETATM    6  C   UNL     1      33.769  50.533  41.153  1.00  0.00     0.070 A 
HETATM    7  C   UNL     1      35.094  50.098  41.323  1.00  0.00     0.035 A 
HETATM    8  C   UNL     1      36.149  50.764  40.699  1.00  0.00     0.044 A 
HETATM    9  C   UNL     1      35.878  51.856  39.888  1.00  0.00     0.119 A 
HETATM   10  F   UNL     1      36.889  52.509  39.301  1.00  0.00    -0.206 F 
HETATM   11  C   UNL     1      34.573  52.271  39.659  1.00  0.00     0.081 A 
BRANCH   6  12
HETATM   12  N   UNL     1      32.791  49.812  41.862  1.00  0.00    -0.306 N 
HETATM   13  C   UNL     1      31.871  48.876  41.484  1.00  0.00     0.325 C 
HETATM   14  N   UNL     1      31.787  48.527  40.170  1.00  0.00    -0.305 N 
HETATM   15  O   UNL     1      31.087  48.511  42.366  1.00  0.00    -0.247 OA
HETATM   16  H   UNL     1      32.624  48.579  39.592  1.00  0.00     0.171 HD
HETATM   17  H   UNL     1      32.530  50.173  42.771  1.00  0.00     0.171 HD
BRANCH  14  18
HETATM   18  C   UNL     1      30.688  47.912  39.581  1.00  0.00     0.086 A 
HETATM   19  C   UNL     1      29.586  48.523  38.891  1.00  0.00     0.133 A 
HETATM   20  N   UNL     1      28.701  47.583  38.490  1.00  0.00    -0.171 NA
HETATM   21  N   UNL     1      29.222  46.427  38.920  1.00  0.00    -0.286 N 
HETATM   22  H   UNL     1      28.713  45.571  38.734  1.00  0.00     0.188 HD
HETATM   23  C   UNL     1      30.403  46.567  39.573  1.00  0.00     0.141 A 
BRANCH  19  24
HETATM   24  C   UNL     1      29.365  49.948  38.599  1.00  0.00     0.089 A 
HETATM   25  N   UNL     1      30.320  50.587  37.873  1.00  0.00    -0.259 NA
HETATM   26  C   UNL     1      30.106  51.890  37.586  1.00  0.00     0.117 A 
HETATM   27  C   UNL     1      28.988  52.602  37.986  1.00  0.00     0.019 A 
HETATM   28  C   UNL     1      28.025  51.939  38.733  1.00  0.00     0.004 A 
HETATM   29  C   UNL     1      28.214  50.597  39.047  1.00  0.00     0.034 A 
ENDBRANCH  19  24
ENDBRANCH  14  18
ENDBRANCH   6  12
ENDBRANCH   4   5
ENDBRANCH   3   4
TORSDOF 5
ENDMDL
MODEL 6
REMARK VINA RESULT:      -7.8      3.283      7.141
REMARK  5 active torsions:
REMARK  status: ('A' for Active; 'I' for Inactive)
REMARK    1  A    between atoms: C_3  and  O_4 
REMARK    2  A    between atoms: O_4  and  C_5 
REMARK    3  A    between atoms: C_6  and  N_7 
REMARK       I    between atoms: N_7  and  C_8 
REMARK       I    between atoms: C_8  and  N_9 
REMARK    4  A    between atoms: N_9  and  C_10 
REMARK    5  A    between atoms: C_11  and  C_12 
ROOT
HETATM    1  C   UNL     1      23.592  50.631  47.714  1.00  0.00     0.014 C 
HETATM    2  C   UNL     1      23.578  49.780  48.560  1.00  0.00    -0.091 C 
HETATM    3  C   UNL     1      23.557  48.741  49.596  1.00  0.00     0.268 C 
ENDROOT
BRANCH   3   4
HETATM    4  O   UNL     1      24.637  47.828  49.367  1.00  0.00    -0.337 OA
BRANCH   4   5
HETATM    5  C   UNL     1      24.628  46.756  50.220  1.00  0.00     0.099 A 
HETATM    6  C   UNL     1      24.104  45.536  49.769  1.00  0.00     0.070 A 
HETATM    7  C   UNL     1      24.245  44.398  50.579  1.00  0.00     0.035 A 
HETATM    8  C   UNL     1      24.802  44.495  51.854  1.00  0.00     0.044 A 
HETATM    9  C   UNL     1      25.237  45.729  52.314  1.00  0.00     0.119 A 
HETATM   10  F   UNL     1      25.756  45.830  53.544  1.00  0.00    -0.206 F 
HETATM   11  C   UNL     1      25.160  46.859  51.511  1.00  0.00     0.081 A 
BRANCH   6  12
HETATM   12  N   UNL     1      23.492  45.327  48.519  1.00  0.00    -0.306 N 
HETATM   13  C   UNL     1      22.256  45.632  48.027  1.00  0.00     0.325 C 
HETATM   14  N   UNL     1      21.350  46.235  48.848  1.00  0.00    -0.305 N 
HETATM   15  O   UNL     1      22.013  45.209  46.892  1.00  0.00    -0.247 OA
HETATM   16  H   UNL     1      21.688  46.840  49.593  1.00  0.00     0.171 HD
HETATM   17  H   UNL     1      23.919  44.635  47.915  1.00  0.00     0.171 HD
BRANCH  14  18
HETATM   18  C   UNL     1      19.976  46.253  48.635  1.00  0.00     0.086 A 
HETATM   19  C   UNL     1      19.097  47.388  48.582  1.00  0.00     0.133 A 
HETATM   20  N   UNL     1      17.821  46.986  48.385  1.00  0.00    -0.171 NA
HETATM   21  N   UNL     1      17.895  45.651  48.327  1.00  0.00    -0.286 N 
HETATM   22  H   UNL     1      17.038  45.126  48.191  1.00  0.00     0.188 HD
HETATM   23  C   UNL     1      19.153  45.165  48.469  1.00  0.00     0.141 A 
BRANCH  19  24
HETATM   24  C   UNL     1      19.435  48.815  48.696  1.00  0.00     0.089 A 
HETATM   25  N   UNL     1      19.931  49.242  49.887  1.00  0.00    -0.259 NA
HETATM   26  C   UNL     1      20.262  50.549  49.984  1.00  0.00     0.117 A 
HETATM   27  C   UNL     1      20.123  51.465  48.956  1.00  0.00     0.019 A 
HETATM   28  C   UNL     1      19.608  51.018  47.747  1.00  0.00     0.004 A 
HETATM   29  C   UNL     1      19.256  49.678  47.613  1.00  0.00     0.034 A 
ENDBRANCH  19  24
ENDBRANCH  14  18
ENDBRANCH   6  12
ENDBRANCH   4   5
ENDBRANCH   3   4
TORSDOF 5
ENDMDL
MODEL 7
REMARK VINA RESULT:      -7.7     10.599     12.475
REMARK  5 active torsions:
REMARK  status: ('A' for Active; 'I' for Inactive)
REMARK    1  A    between atoms: C_3  and  O_4 
REMARK    2  A    between atoms: O_4  and  C_5 
REMARK    3  A    between atoms: C_6  and  N_7 
REMARK       I    between atoms: N_7  and  C_8 
REMARK       I    between atoms: C_8  and  N_9 
REMARK    4  A    between atoms: N_9  and  C_10 
REMARK    5  A    between atoms: C_11  and  C_12 
ROOT
HETATM    1  C   UNL     1      30.242  51.646  37.722  1.00  0.00     0.014 C 
HETATM    2  C   UNL     1      29.094  51.485  38.035  1.00  0.00    -0.091 C 
HETATM    3  C   UNL     1      27.691  51.291  38.421  1.00  0.00     0.268 C 
ENDROOT
BRANCH   3   4
HETATM    4  O   UNL     1      27.160  50.168  37.707  1.00  0.00    -0.337 OA
BRANCH   4   5
HETATM    5  C   UNL     1      26.649  49.199  38.528  1.00  0.00     0.099 A 
HETATM    6  C   UNL     1      27.465  48.115  38.886  1.00  0.00     0.070 A 
HETATM    7  C   UNL     1      27.003  47.211  39.856  1.00  0.00     0.035 A 
HETATM    8  C   UNL     1      25.716  47.324  40.381  1.00  0.00     0.044 A 
HETATM    9  C   UNL     1      24.894  48.355  39.948  1.00  0.00     0.119 A 
HETATM   10  F   UNL     1      23.650  48.456  40.436  1.00  0.00    -0.206 F 
HETATM   11  C   UNL     1      25.346  49.294  39.032  1.00  0.00     0.081 A 
BRANCH   6  12
HETATM   12  N   UNL     1      28.764  47.881  38.399  1.00  0.00    -0.306 N 
HETATM   13  C   UNL     1      29.990  47.855  38.998  1.00  0.00     0.325 C 
HETATM   14  N   UNL     1      30.079  48.127  40.331  1.00  0.00    -0.305 N 
HETATM   15  O   UNL     1      30.954  47.709  38.239  1.00  0.00    -0.247 OA
HETATM   16  H   UNL     1      29.290  47.900  40.933  1.00  0.00     0.171 HD
HETATM   17  H   UNL     1      28.895  47.964  37.398  1.00  0.00     0.171 HD
BRANCH  14  18
HETATM   18  C   UNL     1      31.242  48.514  40.985  1.00  0.00     0.086 A 
HETATM   19  C   UNL     1      31.615  49.824  41.443  1.00  0.00     0.133 A 
HETATM   20  N   UNL     1      32.843  49.795  42.007  1.00  0.00    -0.171 NA
HETATM   21  N   UNL     1      33.232  48.518  41.898  1.00  0.00    -0.286 N 
HETATM   22  H   UNL     1      34.145  48.261  42.254  1.00  0.00     0.188 HD
HETATM   23  C   UNL     1      32.316  47.715  41.300  1.00  0.00     0.141 A 
BRANCH  19  24
HETATM   24  C   UNL     1      30.841  51.074  41.372  1.00  0.00     0.089 A 
HETATM   25  N   UNL     1      29.520  51.004  41.680  1.00  0.00    -0.259 NA
HETATM   26  C   UNL     1      28.815  52.156  41.635  1.00  0.00     0.117 A 
HETATM   27  C   UNL     1      29.354  53.385  41.296  1.00  0.00     0.019 A 
HETATM   28  C   UNL     1      30.703  53.441  40.976  1.00  0.00     0.004 A 
HETATM   29  C   UNL     1      31.458  52.273  41.011  1.00  0.00     0.034 A 
ENDBRANCH  19  24
ENDBRANCH  14  18
ENDBRANCH   6  12
ENDBRANCH   4   5
ENDBRANCH   3   4
TORSDOF 5
ENDMDL
MODEL 8
REMARK VINA RESULT:      -7.7     10.946     12.910
REMARK  5 active torsions:
REMARK  status: ('A' for Active; 'I' for Inactive)
REMARK    1  A    between atoms: C_3  and  O_4 
REMARK    2  A    between atoms: O_4  and  C_5 
REMARK    3  A    between atoms: C_6  and  N_7 
REMARK       I    between atoms: N_7  and  C_8 
REMARK       I    between atoms: C_8  and  N_9 
REMARK    4  A    between atoms: N_9  and  C_10 
REMARK    5  A    between atoms: C_11  and  C_12 
ROOT
HETATM    1  C   UNL     1      26.644  50.195  38.178  1.00  0.00     0.014 C 
HETATM    2  C   UNL     1      26.652  49.548  39.189  1.00  0.00    -0.091 C 
HETATM    3  C   UNL     1      26.659  48.758  40.426  1.00  0.00     0.268 C 
ENDROOT
BRANCH   3   4
HETATM    4  O   UNL     1      27.987  48.281  40.672  1.00  0.00    -0.337 OA
BRANCH   4   5
HETATM    5  C   UNL     1      28.239  47.063  40.098  1.00  0.00     0.099 A 
HETATM    6  C   UNL     1      29.227  46.974  39.106  1.00  0.00     0.070 A 
HETATM    7  C   UNL     1      29.601  45.704  38.638  1.00  0.00     0.035 A 
HETATM    8  C   UNL     1      28.935  44.558  39.071  1.00  0.00     0.044 A 
HETATM    9  C   UNL     1      27.902  44.679  39.989  1.00  0.00     0.119 A 
HETATM   10  F   UNL     1      27.247  43.584  40.394  1.00  0.00    -0.206 F 
HETATM   11  C   UNL     1      27.549  45.917  40.510  1.00  0.00     0.081 A 
BRANCH   6  12
HETATM   12  N   UNL     1      29.942  48.060  38.572  1.00  0.00    -0.306 N 
HETATM   13  C   UNL     1      31.026  48.766  39.009  1.00  0.00     0.325 C 
HETATM   14  N   UNL     1      31.579  48.445  40.213  1.00  0.00    -0.305 N 
HETATM   15  O   UNL     1      31.342  49.742  38.322  1.00  0.00    -0.247 OA
HETATM   16  H   UNL     1      31.518  47.483  40.542  1.00  0.00     0.171 HD
HETATM   17  H   UNL     1      29.479  48.597  37.847  1.00  0.00     0.171 HD
BRANCH  14  18
HETATM   18  C   UNL     1      32.402  49.283  40.957  1.00  0.00     0.086 A 
HETATM   19  C   UNL     1      32.150  50.630  41.387  1.00  0.00     0.133 A 
HETATM   20  N   UNL     1      33.213  51.115  42.065  1.00  0.00    -0.171 NA
HETATM   21  N   UNL     1      34.103  50.115  42.054  1.00  0.00    -0.286 N 
HETATM   22  H   UNL     1      34.998  50.261  42.506  1.00  0.00     0.188 HD
HETATM   23  C   UNL     1      33.670  49.003  41.409  1.00  0.00     0.141 A 
BRANCH  19  24
HETATM   24  C   UNL     1      30.941  51.445  41.184  1.00  0.00     0.089 A 
HETATM   25  N   UNL     1      29.771  50.950  41.666  1.00  0.00    -0.259 NA
HETATM   26  C   UNL     1      28.666  51.709  41.499  1.00  0.00     0.117 A 
HETATM   27  C   UNL     1      28.657  52.943  40.871  1.00  0.00     0.019 A 
HETATM   28  C   UNL     1      29.857  53.433  40.376  1.00  0.00     0.004 A 
HETATM   29  C   UNL     1      31.015  52.676  40.531  1.00  0.00     0.034 A 
ENDBRANCH  19  24
ENDBRANCH  14  18
ENDBRANCH   6  12
ENDBRANCH   4   5
ENDBRANCH   3   4
TORSDOF 5
ENDMDL
MODEL 9
REMARK VINA RESULT:      -7.6     22.496     24.158
REMARK  5 active torsions:
REMARK  status: ('A' for Active; 'I' for Inactive)
REMARK    1  A    between atoms: C_3  and  O_4 
REMARK    2  A    between atoms: O_4  and  C_5 
REMARK    3  A    between atoms: C_6  and  N_7 
REMARK       I    between atoms: N_7  and  C_8 
REMARK       I    between atoms: C_8  and  N_9 
REMARK    4  A    between atoms: N_9  and  C_10 
REMARK    5  A    between atoms: C_11  and  C_12 
ROOT
HETATM    1  C   UNL     1      36.928  48.582  66.294  1.00  0.00     0.014 C 
HETATM    2  C   UNL     1      38.123  48.502  66.367  1.00  0.00    -0.091 C 
HETATM    3  C   UNL     1      39.585  48.407  66.459  1.00  0.00     0.268 C 
ENDROOT
BRANCH   3   4
HETATM    4  O   UNL     1      40.127  48.217  65.147  1.00  0.00    -0.337 OA
BRANCH   4   5
HETATM    5  C   UNL     1      40.754  47.010  64.992  1.00  0.00     0.099 A 
HETATM    6  C   UNL     1      40.093  45.989  64.293  1.00  0.00     0.070 A 
HETATM    7  C   UNL     1      40.796  44.812  63.989  1.00  0.00     0.035 A 
HETATM    8  C   UNL     1      42.094  44.614  64.460  1.00  0.00     0.044 A 
HETATM    9  C   UNL     1      42.698  45.603  65.223  1.00  0.00     0.119 A 
HETATM   10  F   UNL     1      43.937  45.410  65.693  1.00  0.00    -0.206 F 
HETATM   11  C   UNL     1      42.045  46.799  65.490  1.00  0.00     0.081 A 
BRANCH   6  12
HETATM   12  N   UNL     1      38.778  46.063  63.798  1.00  0.00    -0.306 N 
HETATM   13  C   UNL     1      37.605  45.481  64.185  1.00  0.00     0.325 C 
HETATM   14  N   UNL     1      37.616  44.613  65.237  1.00  0.00    -0.305 N 
HETATM   15  O   UNL     1      36.634  45.695  63.453  1.00  0.00    -0.247 OA
HETATM   16  H   UNL     1      38.308  44.740  65.973  1.00  0.00     0.171 HD
HETATM   17  H   UNL     1      38.667  46.418  62.856  1.00  0.00     0.171 HD
BRANCH  14  18
HETATM   18  C   UNL     1      36.626  43.672  65.498  1.00  0.00     0.086 A 
HETATM   19  C   UNL     1      36.601  42.281  65.140  1.00  0.00     0.133 A 
HETATM   20  N   UNL     1      35.446  41.710  65.550  1.00  0.00    -0.171 NA
HETATM   21  N   UNL     1      34.768  42.706  66.133  1.00  0.00    -0.286 N 
HETATM   22  H   UNL     1      33.850  42.506  66.513  1.00  0.00     0.188 HD
HETATM   23  C   UNL     1      35.425  43.893  66.130  1.00  0.00     0.141 A 
BRANCH  19  24
HETATM   24  C   UNL     1      37.633  41.495  64.446  1.00  0.00     0.089 A 
HETATM   25  N   UNL     1      38.162  42.028  63.313  1.00  0.00    -0.259 NA
HETATM   26  C   UNL     1      39.125  41.315  62.688  1.00  0.00     0.117 A 
HETATM   27  C   UNL     1      39.595  40.090  63.128  1.00  0.00     0.019 A 
HETATM   28  C   UNL     1      39.041  39.553  64.282  1.00  0.00     0.004 A 
HETATM   29  C   UNL     1      38.047  40.261  64.950  1.00  0.00     0.034 A 
ENDBRANCH  19  24
ENDBRANCH  14  18
ENDBRANCH   6  12
ENDBRANCH   4   5
ENDBRANCH   3   4
TORSDOF 5
ENDMDL
MODEL 10
REMARK VINA RESULT:      -7.4     22.414     24.407
REMARK  5 active torsions:
REMARK  status: ('A' for Active; 'I' for Inactive)
REMARK    1  A    between atoms: C_3  and  O_4 
REMARK    2  A    between atoms: O_4  and  C_5 
REMARK    3  A    between atoms: C_6  and  N_7 
REMARK       I    between atoms: N_7  and  C_8 
REMARK       I    between atoms: C_8  and  N_9 
REMARK    4  A    between atoms: N_9  and  C_10 
REMARK    5  A    between atoms: C_11  and  C_12 
ROOT
HETATM    1  C   UNL     1      42.747  45.651  63.876  1.00  0.00     0.014 C 
HETATM    2  C   UNL     1      42.360  44.662  64.434  1.00  0.00    -0.091 C 
HETATM    3  C   UNL     1      41.891  43.450  65.116  1.00  0.00     0.268 C 
ENDROOT
BRANCH   3   4
HETATM    4  O   UNL     1      40.475  43.329  64.939  1.00  0.00    -0.337 OA
BRANCH   4   5
HETATM    5  C   UNL     1      40.104  42.161  64.329  1.00  0.00     0.099 A 
HETATM    6  C   UNL     1      39.116  42.201  63.333  1.00  0.00     0.070 A 
HETATM    7  C   UNL     1      38.854  41.036  62.594  1.00  0.00     0.035 A 
HETATM    8  C   UNL     1      39.486  39.833  62.909  1.00  0.00     0.044 A 
HETATM    9  C   UNL     1      40.396  39.798  63.955  1.00  0.00     0.119 A 
HETATM   10  F   UNL     1      40.992  38.641  64.273  1.00  0.00    -0.206 F 
HETATM   11  C   UNL     1      40.715  40.947  64.665  1.00  0.00     0.081 A 
BRANCH   6  12
HETATM   12  N   UNL     1      38.393  43.345  62.952  1.00  0.00    -0.306 N 
HETATM   13  C   UNL     1      37.749  44.317  63.663  1.00  0.00     0.325 C 
HETATM   14  N   UNL     1      37.721  44.230  65.023  1.00  0.00    -0.305 N 
HETATM   15  O   UNL     1      37.121  45.143  62.992  1.00  0.00    -0.247 OA
HETATM   16  H   UNL     1      38.494  43.773  65.503  1.00  0.00     0.171 HD
HETATM   17  H   UNL     1      38.072  43.381  61.992  1.00  0.00     0.171 HD
BRANCH  14  18
HETATM   18  C   UNL     1      36.812  44.890  65.841  1.00  0.00     0.086 A 
HETATM   19  C   UNL     1      36.791  46.277  66.216  1.00  0.00     0.133 A 
HETATM   20  N   UNL     1      35.759  46.523  67.054  1.00  0.00    -0.171 NA
HETATM   21  N   UNL     1      35.161  45.336  67.207  1.00  0.00    -0.286 N 
HETATM   22  H   UNL     1      34.351  45.280  67.814  1.00  0.00     0.188 HD
HETATM   23  C   UNL     1      35.746  44.332  66.508  1.00  0.00     0.141 A 
BRANCH  19  24
HETATM   24  C   UNL     1      37.702  47.353  65.794  1.00  0.00     0.089 A 
HETATM   25  N   UNL     1      39.000  47.017  65.574  1.00  0.00    -0.259 NA
HETATM   26  C   UNL     1      39.830  48.002  65.166  1.00  0.00     0.117 A 
HETATM   27  C   UNL     1      39.440  49.315  64.964  1.00  0.00     0.019 A 
HETATM   28  C   UNL     1      38.114  49.646  65.200  1.00  0.00     0.004 A 
HETATM   29  C   UNL     1      37.231  48.656  65.623  1.00  0.00     0.034 A 
ENDBRANCH  19  24
ENDBRANCH  14  18
ENDBRANCH   6  12
ENDBRANCH   4   5
ENDBRANCH   3   4
TORSDOF 5
ENDMDL
