MODEL 1
REMARK VINA RESULT:      -9.5      0.000      0.000
REMARK  5 active torsions:
REMARK  status: ('A' for Active; 'I' for Inactive)
REMARK    1  A    between atoms: O_2  and  C_3 
REMARK    2  A    between atoms: C_5  and  C_6 
REMARK    3  A    between atoms: C_6  and  C_7 
REMARK       I    between atoms: C_7  and  N_8 
REMARK    4  A    between atoms: N_11  and  C_12 
REMARK    5  A    between atoms: C_16  and  C_17 
ROOT
HETATM    1  C   UNL     1      27.811  42.714  52.054  1.00  0.00     0.224 C 
HETATM    2  N   UNL     1      26.767  43.437  51.503  1.00  0.00    -0.349 N 
HETATM    3  C   UNL     1      25.521  43.812  52.178  1.00  0.00     0.145 C 
HETATM    4  C   UNL     1      25.100  45.257  51.845  1.00  0.00     0.144 C 
HETATM    5  N   UNL     1      25.092  45.518  50.382  1.00  0.00    -0.363 N 
HETATM    6  C   UNL     1      26.353  45.102  49.710  1.00  0.00     0.144 C 
HETATM    7  C   UNL     1      26.737  43.656  50.057  1.00  0.00     0.145 C 
HETATM    8  O   UNL     1      28.754  42.311  51.366  1.00  0.00    -0.273 OA
ENDROOT
BRANCH   5   9
HETATM    9  C   UNL     1      24.511  46.679  49.935  1.00  0.00     0.122 A 
HETATM   10  N   UNL     1      25.180  47.871  49.857  1.00  0.00    -0.262 N 
HETATM   11  H   UNL     1      26.136  48.059  50.127  1.00  0.00     0.191 HD
HETATM   12  N   UNL     1      24.451  48.890  49.378  1.00  0.00    -0.173 NA
HETATM   13  C   UNL     1      23.231  48.365  49.178  1.00  0.00     0.090 A 
HETATM   14  C   UNL     1      23.228  46.988  49.535  1.00  0.00     0.084 A 
BRANCH  13  15
HETATM   15  C   UNL     1      22.118  49.175  48.662  1.00  0.00    -0.005 A 
HETATM   16  C   UNL     1      21.150  48.623  47.806  1.00  0.00     0.015 A 
HETATM   17  C   UNL     1      20.095  49.404  47.322  1.00  0.00     0.024 A 
HETATM   18  C   UNL     1      19.997  50.744  47.688  1.00  0.00     0.034 A 
HETATM   19 CL   UNL     1      18.698  51.701  47.092  1.00  0.00    -0.084 Cl
HETATM   20  C   UNL     1      20.946  51.311  48.534  1.00  0.00     0.024 A 
HETATM   21  C   UNL     1      22.001  50.529  49.016  1.00  0.00     0.015 A 
ENDBRANCH  13  15
ENDBRANCH   5   9
BRANCH   1  22
HETATM   22  C   UNL     1      27.798  42.424  53.549  1.00  0.00     0.141 C 
BRANCH  22  23
HETATM   23  C   UNL     1      28.630  43.380  54.372  1.00  0.00    -0.047 A 
HETATM   24  C   UNL     1      28.122  44.632  54.761  1.00  0.00     0.044 A 
HETATM   25  C   UNL     1      28.882  45.500  55.547  1.00  0.00     0.068 A 
HETATM   26  C   UNL     1      30.153  45.103  55.967  1.00  0.00     0.037 A 
HETATM   27  C   UNL     1      30.660  43.855  55.611  1.00  0.00     0.003 A 
HETATM   28  C   UNL     1      29.901  42.994  54.821  1.00  0.00     0.007 A 
BRANCH  25  29
HETATM   29  O   UNL     1      28.499  46.743  55.973  1.00  0.00    -0.356 OA
HETATM   30  C   UNL     1      27.680  47.499  55.090  1.00  0.00     0.210 C 
ENDBRANCH  25  29
ENDBRANCH  22  23
ENDBRANCH   1  22
TORSDOF 5
ENDMDL
MODEL 2
REMARK VINA RESULT:      -9.4      4.672     10.254
REMARK  5 active torsions:
REMARK  status: ('A' for Active; 'I' for Inactive)
REMARK    1  A    between atoms: O_2  and  C_3 
REMARK    2  A    between atoms: C_5  and  C_6 
REMARK    3  A    between atoms: C_6  and  C_7 
REMARK       I    between atoms: C_7  and  N_8 
REMARK    4  A    between atoms: N_11  and  C_12 
REMARK    5  A    between atoms: C_16  and  C_17 
ROOT
HETATM    1  C   UNL     1      22.444  47.759  48.280  1.00  0.00     0.224 C 
HETATM    2  N   UNL     1      23.517  47.146  48.905  1.00  0.00    -0.349 N 
HETATM    3  C   UNL     1      24.791  47.778  49.257  1.00  0.00     0.145 C 
HETATM    4  C   UNL     1      25.285  47.340  50.651  1.00  0.00     0.144 C 
HETATM    5  N   UNL     1      25.282  45.863  50.810  1.00  0.00    -0.363 N 
HETATM    6  C   UNL     1      23.990  45.237  50.419  1.00  0.00     0.144 C 
HETATM    7  C   UNL     1      23.535  45.688  49.024  1.00  0.00     0.145 C 
HETATM    8  O   UNL     1      21.469  47.113  47.884  1.00  0.00    -0.273 OA
ENDROOT
BRANCH   5   9
HETATM    9  C   UNL     1      25.918  45.330  51.904  1.00  0.00     0.122 A 
HETATM   10  N   UNL     1      25.270  44.604  52.867  1.00  0.00    -0.262 N 
HETATM   11  H   UNL     1      24.283  44.392  52.919  1.00  0.00     0.191 HD
HETATM   12  N   UNL     1      26.062  44.148  53.850  1.00  0.00    -0.173 NA
HETATM   13  C   UNL     1      27.279  44.636  53.554  1.00  0.00     0.090 A 
HETATM   14  C   UNL     1      27.220  45.397  52.353  1.00  0.00     0.084 A 
BRANCH  13  15
HETATM   15  C   UNL     1      28.445  44.371  54.409  1.00  0.00    -0.005 A 
HETATM   16  C   UNL     1      28.898  45.320  55.338  1.00  0.00     0.015 A 
HETATM   17  C   UNL     1      30.009  45.056  56.148  1.00  0.00     0.024 A 
HETATM   18  C   UNL     1      30.678  43.840  56.033  1.00  0.00     0.034 A 
HETATM   19 CL   UNL     1      32.042  43.517  57.029  1.00  0.00    -0.084 Cl
HETATM   20  C   UNL     1      30.246  42.886  55.117  1.00  0.00     0.024 A 
HETATM   21  C   UNL     1      29.135  43.152  54.309  1.00  0.00     0.015 A 
ENDBRANCH  13  15
ENDBRANCH   5   9
BRANCH   1  22
HETATM   22  C   UNL     1      22.466  49.270  48.092  1.00  0.00     0.141 C 
BRANCH  22  23
HETATM   23  C   UNL     1      21.257  49.981  48.656  1.00  0.00    -0.047 A 
HETATM   24  C   UNL     1      20.549  49.450  49.749  1.00  0.00     0.044 A 
HETATM   25  C   UNL     1      19.451  50.125  50.286  1.00  0.00     0.068 A 
HETATM   26  C   UNL     1      19.073  51.353  49.741  1.00  0.00     0.037 A 
HETATM   27  C   UNL     1      19.781  51.905  48.674  1.00  0.00     0.003 A 
HETATM   28  C   UNL     1      20.871  51.225  48.136  1.00  0.00     0.007 A 
BRANCH  25  29
HETATM   29  O   UNL     1      18.681  49.701  51.334  1.00  0.00    -0.356 OA
HETATM   30  C   UNL     1      18.401  48.308  51.402  1.00  0.00     0.210 C 
ENDBRANCH  25  29
ENDBRANCH  22  23
ENDBRANCH   1  22
TORSDOF 5
ENDMDL
MODEL 3
REMARK VINA RESULT:      -9.4      1.116      1.962
REMARK  5 active torsions:
REMARK  status: ('A' for Active; 'I' for Inactive)
REMARK    1  A    between atoms: O_2  and  C_3 
REMARK    2  A    between atoms: C_5  and  C_6 
REMARK    3  A    between atoms: C_6  and  C_7 
REMARK       I    between atoms: C_7  and  N_8 
REMARK    4  A    between atoms: N_11  and  C_12 
REMARK    5  A    between atoms: C_16  and  C_17 
ROOT
HETATM    1  C   UNL     1      27.822  43.551  52.047  1.00  0.00     0.224 C 
HETATM    2  N   UNL     1      26.775  44.191  51.405  1.00  0.00    -0.349 N 
HETATM    3  C   UNL     1      25.424  44.389  51.936  1.00  0.00     0.145 C 
HETATM    4  C   UNL     1      24.884  45.799  51.622  1.00  0.00     0.144 C 
HETATM    5  N   UNL     1      25.021  46.145  50.184  1.00  0.00    -0.363 N 
HETATM    6  C   UNL     1      26.392  45.908  49.655  1.00  0.00     0.144 C 
HETATM    7  C   UNL     1      26.893  44.493  49.978  1.00  0.00     0.145 C 
HETATM    8  O   UNL     1      28.879  43.294  51.465  1.00  0.00    -0.273 OA
ENDROOT
BRANCH   5   9
HETATM    9  C   UNL     1      24.369  47.263  49.723  1.00  0.00     0.122 A 
HETATM   10  N   UNL     1      24.991  48.467  49.527  1.00  0.00    -0.262 N 
HETATM   11  H   UNL     1      25.959  48.696  49.710  1.00  0.00     0.191 HD
HETATM   12  N   UNL     1      24.194  49.437  49.054  1.00  0.00    -0.173 NA
HETATM   13  C   UNL     1      22.979  48.868  48.981  1.00  0.00     0.090 A 
HETATM   14  C   UNL     1      23.049  47.512  49.410  1.00  0.00     0.084 A 
BRANCH  13  15
HETATM   15  C   UNL     1      21.804  49.615  48.512  1.00  0.00    -0.005 A 
HETATM   16  C   UNL     1      21.569  50.937  48.925  1.00  0.00     0.015 A 
HETATM   17  C   UNL     1      20.447  51.639  48.471  1.00  0.00     0.024 A 
HETATM   18  C   UNL     1      19.548  51.026  47.602  1.00  0.00     0.034 A 
HETATM   19 CL   UNL     1      18.170  51.892  47.045  1.00  0.00    -0.084 Cl
HETATM   20  C   UNL     1      19.762  49.717  47.181  1.00  0.00     0.024 A 
HETATM   21  C   UNL     1      20.884  49.016  47.636  1.00  0.00     0.015 A 
ENDBRANCH  13  15
ENDBRANCH   5   9
BRANCH   1  22
HETATM   22  C   UNL     1      27.664  43.171  53.513  1.00  0.00     0.141 C 
BRANCH  22  23
HETATM   23  C   UNL     1      28.487  44.011  54.463  1.00  0.00    -0.047 A 
HETATM   24  C   UNL     1      29.686  43.521  55.009  1.00  0.00     0.044 A 
HETATM   25  C   UNL     1      30.459  44.311  55.862  1.00  0.00     0.068 A 
HETATM   26  C   UNL     1      30.041  45.611  56.152  1.00  0.00     0.037 A 
HETATM   27  C   UNL     1      28.868  46.120  55.599  1.00  0.00     0.003 A 
HETATM   28  C   UNL     1      28.095  45.325  54.753  1.00  0.00     0.007 A 
BRANCH  25  29
HETATM   29  O   UNL     1      31.632  43.938  56.461  1.00  0.00    -0.356 OA
HETATM   30  C   UNL     1      31.728  44.144  57.865  1.00  0.00     0.210 C 
ENDBRANCH  25  29
ENDBRANCH  22  23
ENDBRANCH   1  22
TORSDOF 5
ENDMDL
MODEL 4
REMARK VINA RESULT:      -9.2      5.005     10.810
REMARK  5 active torsions:
REMARK  status: ('A' for Active; 'I' for Inactive)
REMARK    1  A    between atoms: O_2  and  C_3 
REMARK    2  A    between atoms: C_5  and  C_6 
REMARK    3  A    between atoms: C_6  and  C_7 
REMARK       I    between atoms: C_7  and  N_8 
REMARK    4  A    between atoms: N_11  and  C_12 
REMARK    5  A    between atoms: C_16  and  C_17 
ROOT
HETATM    1  C   UNL     1      21.576  48.754  48.839  1.00  0.00     0.224 C 
HETATM    2  N   UNL     1      22.747  48.016  48.879  1.00  0.00    -0.349 N 
HETATM    3  C   UNL     1      24.110  48.554  48.913  1.00  0.00     0.145 C 
HETATM    4  C   UNL     1      25.011  47.776  49.893  1.00  0.00     0.144 C 
HETATM    5  N   UNL     1      24.949  46.308  49.669  1.00  0.00    -0.363 N 
HETATM    6  C   UNL     1      23.557  45.786  49.607  1.00  0.00     0.144 C 
HETATM    7  C   UNL     1      22.693  46.578  48.616  1.00  0.00     0.145 C 
HETATM    8  O   UNL     1      20.479  48.219  48.657  1.00  0.00    -0.273 OA
ENDROOT
BRANCH   5   9
HETATM    9  C   UNL     1      25.875  45.518  50.305  1.00  0.00     0.122 A 
HETATM   10  N   UNL     1      26.358  44.352  49.773  1.00  0.00    -0.262 N 
HETATM   11  H   UNL     1      26.095  43.920  48.897  1.00  0.00     0.191 HD
HETATM   12  N   UNL     1      27.270  43.727  50.532  1.00  0.00    -0.173 NA
HETATM   13  C   UNL     1      27.360  44.483  51.639  1.00  0.00     0.090 A 
HETATM   14  C   UNL     1      26.486  45.602  51.538  1.00  0.00     0.084 A 
BRANCH  13  15
HETATM   15  C   UNL     1      28.259  44.127  52.745  1.00  0.00    -0.005 A 
HETATM   16  C   UNL     1      29.296  43.196  52.572  1.00  0.00     0.015 A 
HETATM   17  C   UNL     1      30.147  42.866  53.632  1.00  0.00     0.024 A 
HETATM   18  C   UNL     1      29.969  43.463  54.878  1.00  0.00     0.034 A 
HETATM   19 CL   UNL     1      31.016  43.055  56.180  1.00  0.00    -0.084 Cl
HETATM   20  C   UNL     1      28.947  44.387  55.072  1.00  0.00     0.024 A 
HETATM   21  C   UNL     1      28.097  44.715  54.011  1.00  0.00     0.015 A 
ENDBRANCH  13  15
ENDBRANCH   5   9
BRANCH   1  22
HETATM   22  C   UNL     1      21.649  50.262  49.039  1.00  0.00     0.141 C 
BRANCH  22  23
HETATM   23  C   UNL     1      20.319  50.968  48.907  1.00  0.00    -0.047 A 
HETATM   24  C   UNL     1      19.716  51.148  47.650  1.00  0.00     0.044 A 
HETATM   25  C   UNL     1      18.473  51.774  47.535  1.00  0.00     0.068 A 
HETATM   26  C   UNL     1      17.818  52.203  48.690  1.00  0.00     0.037 A 
HETATM   27  C   UNL     1      18.390  52.010  49.946  1.00  0.00     0.003 A 
HETATM   28  C   UNL     1      19.634  51.391  50.055  1.00  0.00     0.007 A 
BRANCH  25  29
HETATM   29  O   UNL     1      17.799  52.015  46.369  1.00  0.00    -0.356 OA
HETATM   30  C   UNL     1      16.382  52.097  46.453  1.00  0.00     0.210 C 
ENDBRANCH  25  29
ENDBRANCH  22  23
ENDBRANCH   1  22
TORSDOF 5
ENDMDL
MODEL 5
REMARK VINA RESULT:      -9.0      4.727     10.032
REMARK  5 active torsions:
REMARK  status: ('A' for Active; 'I' for Inactive)
REMARK    1  A    between atoms: O_2  and  C_3 
REMARK    2  A    between atoms: C_5  and  C_6 
REMARK    3  A    between atoms: C_6  and  C_7 
REMARK       I    between atoms: C_7  and  N_8 
REMARK    4  A    between atoms: N_11  and  C_12 
REMARK    5  A    between atoms: C_16  and  C_17 
ROOT
HETATM    1  C   UNL     1      21.673  45.272  48.505  1.00  0.00     0.224 C 
HETATM    2  N   UNL     1      22.911  45.216  49.121  1.00  0.00    -0.349 N 
HETATM    3  C   UNL     1      23.981  46.211  49.010  1.00  0.00     0.145 C 
HETATM    4  C   UNL     1      24.665  46.474  50.367  1.00  0.00     0.144 C 
HETATM    5  N   UNL     1      25.082  45.216  51.039  1.00  0.00    -0.363 N 
HETATM    6  C   UNL     1      23.992  44.207  51.115  1.00  0.00     0.144 C 
HETATM    7  C   UNL     1      23.340  43.964  49.746  1.00  0.00     0.145 C 
HETATM    8  O   UNL     1      20.892  44.316  48.531  1.00  0.00    -0.273 OA
ENDROOT
BRANCH   5   9
HETATM    9  C   UNL     1      25.910  45.311  52.130  1.00  0.00     0.122 A 
HETATM   10  N   UNL     1      25.750  46.249  53.114  1.00  0.00    -0.262 N 
HETATM   11  H   UNL     1      25.053  46.981  53.159  1.00  0.00     0.191 HD
HETATM   12  N   UNL     1      26.645  46.173  54.110  1.00  0.00    -0.173 NA
HETATM   13  C   UNL     1      27.466  45.173  53.748  1.00  0.00     0.090 A 
HETATM   14  C   UNL     1      27.047  44.625  52.503  1.00  0.00     0.084 A 
BRANCH  13  15
HETATM   15  C   UNL     1      28.610  44.774  54.579  1.00  0.00    -0.005 A 
HETATM   16  C   UNL     1      29.291  43.567  54.353  1.00  0.00     0.015 A 
HETATM   17  C   UNL     1      30.380  43.198  55.151  1.00  0.00     0.024 A 
HETATM   18  C   UNL     1      30.797  44.033  56.185  1.00  0.00     0.034 A 
HETATM   19 CL   UNL     1      32.136  43.578  57.163  1.00  0.00    -0.084 Cl
HETATM   20  C   UNL     1      30.136  45.233  56.427  1.00  0.00     0.024 A 
HETATM   21  C   UNL     1      29.048  45.600  55.629  1.00  0.00     0.015 A 
ENDBRANCH  13  15
ENDBRANCH   5   9
BRANCH   1  22
HETATM   22  C   UNL     1      21.263  46.553  47.791  1.00  0.00     0.141 C 
BRANCH  22  23
HETATM   23  C   UNL     1      20.263  47.393  48.552  1.00  0.00    -0.047 A 
HETATM   24  C   UNL     1      20.632  48.630  49.111  1.00  0.00     0.044 A 
HETATM   25  C   UNL     1      19.698  49.417  49.787  1.00  0.00     0.068 A 
HETATM   26  C   UNL     1      18.378  48.975  49.885  1.00  0.00     0.037 A 
HETATM   27  C   UNL     1      17.991  47.763  49.315  1.00  0.00     0.003 A 
HETATM   28  C   UNL     1      18.928  46.977  48.647  1.00  0.00     0.007 A 
BRANCH  25  29
HETATM   29  O   UNL     1      19.944  50.626  50.380  1.00  0.00    -0.356 OA
HETATM   30  C   UNL     1      19.165  51.729  49.935  1.00  0.00     0.210 C 
ENDBRANCH  25  29
ENDBRANCH  22  23
ENDBRANCH   1  22
TORSDOF 5
ENDMDL
MODEL 6
REMARK VINA RESULT:      -8.4      3.253      4.905
REMARK  5 active torsions:
REMARK  status: ('A' for Active; 'I' for Inactive)
REMARK    1  A    between atoms: O_2  and  C_3 
REMARK    2  A    between atoms: C_5  and  C_6 
REMARK    3  A    between atoms: C_6  and  C_7 
REMARK       I    between atoms: C_7  and  N_8 
REMARK    4  A    between atoms: N_11  and  C_12 
REMARK    5  A    between atoms: C_16  and  C_17 
ROOT
HETATM    1  C   UNL     1      26.865  44.057  50.515  1.00  0.00     0.224 C 
HETATM    2  N   UNL     1      26.170  45.073  49.879  1.00  0.00    -0.349 N 
HETATM    3  C   UNL     1      24.976  44.916  49.045  1.00  0.00     0.145 C 
HETATM    4  C   UNL     1      23.934  46.018  49.320  1.00  0.00     0.144 C 
HETATM    5  N   UNL     1      24.528  47.379  49.268  1.00  0.00    -0.363 N 
HETATM    6  C   UNL     1      25.756  47.510  50.098  1.00  0.00     0.144 C 
HETATM    7  C   UNL     1      26.774  46.402  49.791  1.00  0.00     0.145 C 
HETATM    8  O   UNL     1      27.948  44.262  51.071  1.00  0.00    -0.273 OA
ENDROOT
BRANCH   5   9
HETATM    9  C   UNL     1      23.676  48.456  49.256  1.00  0.00     0.122 A 
HETATM   10  N   UNL     1      24.109  49.753  49.192  1.00  0.00    -0.262 N 
HETATM   11  H   UNL     1      25.065  50.083  49.173  1.00  0.00     0.191 HD
HETATM   12  N   UNL     1      23.128  50.669  49.172  1.00  0.00    -0.173 NA
HETATM   13  C   UNL     1      21.997  49.952  49.277  1.00  0.00     0.090 A 
HETATM   14  C   UNL     1      22.305  48.564  49.352  1.00  0.00     0.084 A 
BRANCH  13  15
HETATM   15  C   UNL     1      20.676  50.595  49.305  1.00  0.00    -0.005 A 
HETATM   16  C   UNL     1      19.669  50.154  50.179  1.00  0.00     0.015 A 
HETATM   17  C   UNL     1      18.415  50.775  50.197  1.00  0.00     0.024 A 
HETATM   18  C   UNL     1      18.156  51.843  49.341  1.00  0.00     0.034 A 
HETATM   19 CL   UNL     1      16.614  52.604  49.366  1.00  0.00    -0.084 Cl
HETATM   20  C   UNL     1      19.139  52.294  48.467  1.00  0.00     0.024 A 
HETATM   21  C   UNL     1      20.392  51.672  48.449  1.00  0.00     0.015 A 
ENDBRANCH  13  15
ENDBRANCH   5   9
BRANCH   1  22
HETATM   22  C   UNL     1      26.265  42.658  50.538  1.00  0.00     0.141 C 
BRANCH  22  23
HETATM   23  C   UNL     1      27.128  41.604  49.881  1.00  0.00    -0.047 A 
HETATM   24  C   UNL     1      27.850  40.676  50.653  1.00  0.00     0.044 A 
HETATM   25  C   UNL     1      28.621  39.685  50.042  1.00  0.00     0.068 A 
HETATM   26  C   UNL     1      28.653  39.608  48.649  1.00  0.00     0.037 A 
HETATM   27  C   UNL     1      27.923  40.504  47.871  1.00  0.00     0.003 A 
HETATM   28  C   UNL     1      27.159  41.496  48.484  1.00  0.00     0.007 A 
BRANCH  25  29
HETATM   29  O   UNL     1      29.373  38.740  50.687  1.00  0.00    -0.356 OA
HETATM   30  C   UNL     1      29.145  37.384  50.326  1.00  0.00     0.210 C 
ENDBRANCH  25  29
ENDBRANCH  22  23
ENDBRANCH   1  22
TORSDOF 5
ENDMDL
MODEL 7
REMARK VINA RESULT:      -8.3      5.149     10.634
REMARK  5 active torsions:
REMARK  status: ('A' for Active; 'I' for Inactive)
REMARK    1  A    between atoms: O_2  and  C_3 
REMARK    2  A    between atoms: C_5  and  C_6 
REMARK    3  A    between atoms: C_6  and  C_7 
REMARK       I    between atoms: C_7  and  N_8 
REMARK    4  A    between atoms: N_11  and  C_12 
REMARK    5  A    between atoms: C_16  and  C_17 
ROOT
HETATM    1  C   UNL     1      22.381  45.412  47.842  1.00  0.00     0.224 C 
HETATM    2  N   UNL     1      23.109  45.249  49.008  1.00  0.00    -0.349 N 
HETATM    3  C   UNL     1      22.971  44.152  49.970  1.00  0.00     0.145 C 
HETATM    4  C   UNL     1      24.340  43.655  50.476  1.00  0.00     0.144 C 
HETATM    5  N   UNL     1      25.201  44.767  50.953  1.00  0.00    -0.363 N 
HETATM    6  C   UNL     1      25.305  45.885  49.976  1.00  0.00     0.144 C 
HETATM    7  C   UNL     1      23.924  46.360  49.502  1.00  0.00     0.145 C 
HETATM    8  O   UNL     1      22.456  46.445  47.170  1.00  0.00    -0.273 OA
ENDROOT
BRANCH   5   9
HETATM    9  C   UNL     1      26.342  44.450  51.647  1.00  0.00     0.122 A 
HETATM   10  N   UNL     1      27.313  43.619  51.154  1.00  0.00    -0.262 N 
HETATM   11  H   UNL     1      27.312  43.128  50.270  1.00  0.00     0.191 HD
HETATM   12  N   UNL     1      28.364  43.442  51.970  1.00  0.00    -0.173 NA
HETATM   13  C   UNL     1      28.055  44.145  53.072  1.00  0.00     0.090 A 
HETATM   14  C   UNL     1      26.788  44.772  52.912  1.00  0.00     0.084 A 
BRANCH  13  15
HETATM   15  C   UNL     1      28.958  44.199  54.230  1.00  0.00    -0.005 A 
HETATM   16  C   UNL     1      28.909  45.264  55.144  1.00  0.00     0.015 A 
HETATM   17  C   UNL     1      29.773  45.304  56.244  1.00  0.00     0.024 A 
HETATM   18  C   UNL     1      30.697  44.281  56.439  1.00  0.00     0.034 A 
HETATM   19 CL   UNL     1      31.758  44.332  57.792  1.00  0.00    -0.084 Cl
HETATM   20  C   UNL     1      30.764  43.217  55.544  1.00  0.00     0.024 A 
HETATM   21  C   UNL     1      29.900  43.179  54.445  1.00  0.00     0.015 A 
ENDBRANCH  13  15
ENDBRANCH   5   9
BRANCH   1  22
HETATM   22  C   UNL     1      21.477  44.280  47.374  1.00  0.00     0.141 C 
BRANCH  22  23
HETATM   23  C   UNL     1      20.054  44.703  47.088  1.00  0.00    -0.047 A 
HETATM   24  C   UNL     1      19.291  45.382  48.055  1.00  0.00     0.044 A 
HETATM   25  C   UNL     1      17.988  45.797  47.776  1.00  0.00     0.068 A 
HETATM   26  C   UNL     1      17.450  45.552  46.512  1.00  0.00     0.037 A 
HETATM   27  C   UNL     1      18.202  44.902  45.534  1.00  0.00     0.003 A 
HETATM   28  C   UNL     1      19.500  44.483  45.818  1.00  0.00     0.007 A 
BRANCH  25  29
HETATM   29  O   UNL     1      17.151  46.451  48.639  1.00  0.00    -0.356 OA
HETATM   30  C   UNL     1      16.333  47.476  48.087  1.00  0.00     0.210 C 
ENDBRANCH  25  29
ENDBRANCH  22  23
ENDBRANCH   1  22
TORSDOF 5
ENDMDL
MODEL 8
REMARK VINA RESULT:      -8.2      3.437      5.630
REMARK  5 active torsions:
REMARK  status: ('A' for Active; 'I' for Inactive)
REMARK    1  A    between atoms: O_2  and  C_3 
REMARK    2  A    between atoms: C_5  and  C_6 
REMARK    3  A    between atoms: C_6  and  C_7 
REMARK       I    between atoms: C_7  and  N_8 
REMARK    4  A    between atoms: N_11  and  C_12 
REMARK    5  A    between atoms: C_16  and  C_17 
ROOT
HETATM    1  C   UNL     1      25.496  47.995  49.546  1.00  0.00     0.224 C 
HETATM    2  N   UNL     1      24.242  48.431  49.154  1.00  0.00    -0.349 N 
HETATM    3  C   UNL     1      23.131  47.587  48.706  1.00  0.00     0.145 C 
HETATM    4  C   UNL     1      21.782  48.056  49.288  1.00  0.00     0.144 C 
HETATM    5  N   UNL     1      21.554  49.509  49.078  1.00  0.00    -0.363 N 
HETATM    6  C   UNL     1      22.705  50.348  49.509  1.00  0.00     0.144 C 
HETATM    7  C   UNL     1      24.029  49.858  48.905  1.00  0.00     0.145 C 
HETATM    8  O   UNL     1      26.420  48.786  49.760  1.00  0.00    -0.273 OA
ENDROOT
BRANCH   5   9
HETATM    9  C   UNL     1      20.300  50.010  49.328  1.00  0.00     0.122 A 
HETATM   10  N   UNL     1      19.543  49.631  50.404  1.00  0.00    -0.262 N 
HETATM   11  H   UNL     1      19.777  48.948  51.112  1.00  0.00     0.191 HD
HETATM   12  N   UNL     1      18.352  50.243  50.492  1.00  0.00    -0.173 NA
HETATM   13  C   UNL     1      18.295  51.024  49.400  1.00  0.00     0.090 A 
HETATM   14  C   UNL     1      19.490  50.887  48.639  1.00  0.00     0.084 A 
BRANCH  13  15
HETATM   15  C   UNL     1      17.124  51.865  49.114  1.00  0.00    -0.005 A 
HETATM   16  C   UNL     1      16.625  52.769  50.065  1.00  0.00     0.015 A 
HETATM   17  C   UNL     1      15.510  53.565  49.780  1.00  0.00     0.024 A 
HETATM   18  C   UNL     1      14.882  53.463  48.541  1.00  0.00     0.034 A 
HETATM   19 CL   UNL     1      13.512  54.443  48.194  1.00  0.00    -0.084 Cl
HETATM   20  C   UNL     1      15.359  52.573  47.585  1.00  0.00     0.024 A 
HETATM   21  C   UNL     1      16.474  51.778  47.871  1.00  0.00     0.015 A 
ENDBRANCH  13  15
ENDBRANCH   5   9
BRANCH   1  22
HETATM   22  C   UNL     1      25.732  46.502  49.730  1.00  0.00     0.141 C 
BRANCH  22  23
HETATM   23  C   UNL     1      25.735  46.049  51.172  1.00  0.00    -0.047 A 
HETATM   24  C   UNL     1      25.718  46.982  52.224  1.00  0.00     0.044 A 
HETATM   25  C   UNL     1      25.691  46.560  53.554  1.00  0.00     0.068 A 
HETATM   26  C   UNL     1      25.658  45.193  53.835  1.00  0.00     0.037 A 
HETATM   27  C   UNL     1      25.649  44.256  52.803  1.00  0.00     0.003 A 
HETATM   28  C   UNL     1      25.683  44.682  51.477  1.00  0.00     0.007 A 
BRANCH  25  29
HETATM   29  O   UNL     1      25.686  47.372  54.656  1.00  0.00    -0.356 OA
HETATM   30  C   UNL     1      26.953  47.753  55.178  1.00  0.00     0.210 C 
ENDBRANCH  25  29
ENDBRANCH  22  23
ENDBRANCH   1  22
TORSDOF 5
ENDMDL
MODEL 9
REMARK VINA RESULT:      -8.2     18.291     21.488
REMARK  5 active torsions:
REMARK  status: ('A' for Active; 'I' for Inactive)
REMARK    1  A    between atoms: O_2  and  C_3 
REMARK    2  A    between atoms: C_5  and  C_6 
REMARK    3  A    between atoms: C_6  and  C_7 
REMARK       I    between atoms: C_7  and  N_8 
REMARK    4  A    between atoms: N_11  and  C_12 
REMARK    5  A    between atoms: C_16  and  C_17 
ROOT
HETATM    1  C   UNL     1      36.376  46.157  64.918  1.00  0.00     0.224 C 
HETATM    2  N   UNL     1      36.701  44.910  64.412  1.00  0.00    -0.349 N 
HETATM    3  C   UNL     1      37.327  44.638  63.115  1.00  0.00     0.145 C 
HETATM    4  C   UNL     1      38.404  43.539  63.216  1.00  0.00     0.144 C 
HETATM    5  N   UNL     1      37.905  42.324  63.910  1.00  0.00    -0.363 N 
HETATM    6  C   UNL     1      37.246  42.624  65.210  1.00  0.00     0.144 C 
HETATM    7  C   UNL     1      36.174  43.714  65.069  1.00  0.00     0.145 C 
HETATM    8  O   UNL     1      35.712  46.284  65.951  1.00  0.00    -0.273 OA
ENDROOT
BRANCH   5   9
HETATM    9  C   UNL     1      38.675  41.188  63.858  1.00  0.00     0.122 A 
HETATM   10  N   UNL     1      39.161  40.664  62.691  1.00  0.00    -0.262 N 
HETATM   11  H   UNL     1      39.007  41.006  61.751  1.00  0.00     0.191 HD
HETATM   12  N   UNL     1      39.909  39.560  62.843  1.00  0.00    -0.173 NA
HETATM   13  C   UNL     1      39.877  39.312  64.163  1.00  0.00     0.090 A 
HETATM   14  C   UNL     1      39.097  40.301  64.826  1.00  0.00     0.084 A 
BRANCH  13  15
HETATM   15  C   UNL     1      40.576  38.160  64.748  1.00  0.00    -0.005 A 
HETATM   16  C   UNL     1      40.051  37.473  65.854  1.00  0.00     0.015 A 
HETATM   17  C   UNL     1      40.725  36.376  66.402  1.00  0.00     0.024 A 
HETATM   18  C   UNL     1      41.933  35.957  65.850  1.00  0.00     0.034 A 
HETATM   19 CL   UNL     1      42.760  34.608  66.525  1.00  0.00    -0.084 Cl
HETATM   20  C   UNL     1      42.472  36.624  64.755  1.00  0.00     0.024 A 
HETATM   21  C   UNL     1      41.797  37.721  64.208  1.00  0.00     0.015 A 
ENDBRANCH  13  15
ENDBRANCH   5   9
BRANCH   1  22
HETATM   22  C   UNL     1      36.865  47.399  64.186  1.00  0.00     0.141 C 
BRANCH  22  23
HETATM   23  C   UNL     1      37.978  48.137  64.894  1.00  0.00    -0.047 A 
HETATM   24  C   UNL     1      37.898  49.523  65.121  1.00  0.00     0.044 A 
HETATM   25  C   UNL     1      38.914  50.196  65.802  1.00  0.00     0.068 A 
HETATM   26  C   UNL     1      40.008  49.474  66.281  1.00  0.00     0.037 A 
HETATM   27  C   UNL     1      40.089  48.096  66.087  1.00  0.00     0.003 A 
HETATM   28  C   UNL     1      39.076  47.429  65.400  1.00  0.00     0.007 A 
BRANCH  25  29
HETATM   29  O   UNL     1      38.952  51.538  66.068  1.00  0.00    -0.356 OA
HETATM   30  C   UNL     1      37.727  52.150  66.453  1.00  0.00     0.210 C 
ENDBRANCH  25  29
ENDBRANCH  22  23
ENDBRANCH   1  22
TORSDOF 5
ENDMDL
MODEL 10
REMARK VINA RESULT:      -8.0      3.185      5.465
REMARK  5 active torsions:
REMARK  status: ('A' for Active; 'I' for Inactive)
REMARK    1  A    between atoms: O_2  and  C_3 
REMARK    2  A    between atoms: C_5  and  C_6 
REMARK    3  A    between atoms: C_6  and  C_7 
REMARK       I    between atoms: C_7  and  N_8 
REMARK    4  A    between atoms: N_11  and  C_12 
REMARK    5  A    between atoms: C_16  and  C_17 
ROOT
HETATM    1  C   UNL     1      25.210  47.650  50.030  1.00  0.00     0.224 C 
HETATM    2  N   UNL     1      24.174  48.172  49.273  1.00  0.00    -0.349 N 
HETATM    3  C   UNL     1      22.941  47.477  48.896  1.00  0.00     0.145 C 
HETATM    4  C   UNL     1      21.706  48.394  49.012  1.00  0.00     0.144 C 
HETATM    5  N   UNL     1      21.902  49.691  48.315  1.00  0.00    -0.363 N 
HETATM    6  C   UNL     1      23.174  50.367  48.688  1.00  0.00     0.144 C 
HETATM    7  C   UNL     1      24.381  49.428  48.551  1.00  0.00     0.145 C 
HETATM    8  O   UNL     1      26.278  48.252  50.169  1.00  0.00    -0.273 OA
ENDROOT
BRANCH   5   9
HETATM    9  C   UNL     1      20.806  50.499  48.134  1.00  0.00     0.122 A 
HETATM   10  N   UNL     1      20.606  51.658  48.835  1.00  0.00    -0.262 N 
HETATM   11  H   UNL     1      21.191  52.046  49.563  1.00  0.00     0.191 HD
HETATM   12  N   UNL     1      19.487  52.323  48.507  1.00  0.00    -0.173 NA
HETATM   13  C   UNL     1      18.894  51.547  47.584  1.00  0.00     0.090 A 
HETATM   14  C   UNL     1      19.683  50.387  47.342  1.00  0.00     0.084 A 
BRANCH  13  15
HETATM   15  C   UNL     1      17.613  51.922  46.969  1.00  0.00    -0.005 A 
HETATM   16  C   UNL     1      16.447  52.061  47.740  1.00  0.00     0.015 A 
HETATM   17  C   UNL     1      15.234  52.420  47.143  1.00  0.00     0.024 A 
HETATM   18  C   UNL     1      15.174  52.642  45.769  1.00  0.00     0.034 A 
HETATM   19 CL   UNL     1      13.681  53.084  45.038  1.00  0.00    -0.084 Cl
HETATM   20  C   UNL     1      16.317  52.509  44.987  1.00  0.00     0.024 A 
HETATM   21  C   UNL     1      17.530  52.149  45.586  1.00  0.00     0.015 A 
ENDBRANCH  13  15
ENDBRANCH   5   9
BRANCH   1  22
HETATM   22  C   UNL     1      25.014  46.305  50.717  1.00  0.00     0.141 C 
BRANCH  22  23
HETATM   23  C   UNL     1      25.735  46.176  52.039  1.00  0.00    -0.047 A 
HETATM   24  C   UNL     1      26.625  45.113  52.278  1.00  0.00     0.044 A 
HETATM   25  C   UNL     1      27.312  45.014  53.489  1.00  0.00     0.068 A 
HETATM   26  C   UNL     1      27.125  45.997  54.462  1.00  0.00     0.037 A 
HETATM   27  C   UNL     1      26.265  47.070  54.231  1.00  0.00     0.003 A 
HETATM   28  C   UNL     1      25.576  47.162  53.023  1.00  0.00     0.007 A 
BRANCH  25  29
HETATM   29  O   UNL     1      28.188  44.022  53.838  1.00  0.00    -0.356 OA
HETATM   30  C   UNL     1      27.651  42.712  53.977  1.00  0.00     0.210 C 
ENDBRANCH  25  29
ENDBRANCH  22  23
ENDBRANCH   1  22
TORSDOF 5
ENDMDL
