MODEL 1
REMARK VINA RESULT:     -10.4      0.000      0.000
REMARK  1 active torsions:
REMARK  status: ('A' for Active; 'I' for Inactive)
REMARK    1  A    between atoms: C_8  and  C_9 
ROOT
HETATM    1  C   UNL     1      30.119  42.462  53.333  1.00  0.00     0.049 C 
HETATM    2  C   UNL     1      30.013  43.434  54.477  1.00  0.00    -0.050 A 
HETATM    3  C   UNL     1      28.946  44.347  54.598  1.00  0.00    -0.002 A 
HETATM    4  C   UNL     1      28.923  45.250  55.678  1.00  0.00     0.051 A 
HETATM    5  N   UNL     1      27.880  46.187  55.745  1.00  0.00    -0.322 N 
HETATM    6  C   UNL     1      26.872  46.288  54.830  1.00  0.00     0.255 A 
HETATM    7  O   UNL     1      26.022  47.169  54.928  1.00  0.00    -0.268 OA
HETATM    8  C   UNL     1      26.824  45.280  53.733  1.00  0.00     0.048 A 
HETATM    9  C   UNL     1      27.834  44.393  53.638  1.00  0.00     0.030 A 
HETATM   10  C   UNL     1      29.925  45.236  56.662  1.00  0.00    -0.034 A 
HETATM   11  C   UNL     1      29.905  46.166  57.842  1.00  0.00     0.050 C 
HETATM   12  C   UNL     1      30.969  44.312  56.538  1.00  0.00     0.009 A 
HETATM   13  C   UNL     1      31.015  43.428  55.459  1.00  0.00     0.008 A 
HETATM   14  H   UNL     1      27.857  46.872  56.487  1.00  0.00     0.169 HD
ENDROOT
BRANCH   8  15
HETATM   15  C   UNL     1      25.653  45.382  52.781  1.00  0.00     0.202 C 
HETATM   16  N   UNL     1      25.437  44.159  52.065  1.00  0.00    -0.336 N 
HETATM   17  C   UNL     1      24.447  44.101  51.113  1.00  0.00     0.255 C 
HETATM   18  H   UNL     1      25.464  43.309  52.625  1.00  0.00     0.164 HD
HETATM   19  O   UNL     1      23.886  43.054  50.821  1.00  0.00    -0.268 OA
HETATM   20  C   UNL     1      24.133  45.376  50.439  1.00  0.00     0.053 A 
HETATM   21  C   UNL     1      24.879  46.502  50.809  1.00  0.00     0.026 A 
HETATM   22  C   UNL     1      23.174  45.441  49.425  1.00  0.00     0.019 A 
HETATM   23  N   UNL     1      25.915  46.414  51.772  1.00  0.00    -0.266 NA
HETATM   24  C   UNL     1      24.712  47.684  50.084  1.00  0.00     0.024 A 
HETATM   25  H   UNL     1      26.753  46.130  51.262  1.00  0.00     0.130 HD
HETATM   26  C   UNL     1      23.757  47.758  49.066  1.00  0.00     0.002 A 
HETATM   27  C   UNL     1      22.983  46.642  48.743  1.00  0.00     0.001 A 
ENDBRANCH   8  15
TORSDOF 1
ENDMDL
MODEL 2
REMARK VINA RESULT:     -10.1      2.616      4.694
REMARK  1 active torsions:
REMARK  status: ('A' for Active; 'I' for Inactive)
REMARK    1  A    between atoms: C_8  and  C_9 
ROOT
HETATM    1  C   UNL     1      26.470  47.884  54.931  1.00  0.00     0.049 C 
HETATM    2  C   UNL     1      26.940  46.557  54.398  1.00  0.00    -0.050 A 
HETATM    3  C   UNL     1      26.715  46.155  53.067  1.00  0.00    -0.002 A 
HETATM    4  C   UNL     1      27.154  44.887  52.640  1.00  0.00     0.051 A 
HETATM    5  N   UNL     1      26.870  44.488  51.325  1.00  0.00    -0.322 N 
HETATM    6  C   UNL     1      26.190  45.247  50.417  1.00  0.00     0.255 A 
HETATM    7  O   UNL     1      25.933  44.806  49.299  1.00  0.00    -0.268 OA
HETATM    8  C   UNL     1      25.801  46.629  50.816  1.00  0.00     0.048 A 
HETATM    9  C   UNL     1      26.042  47.017  52.085  1.00  0.00     0.030 A 
HETATM   10  C   UNL     1      27.848  44.025  53.506  1.00  0.00    -0.034 A 
HETATM   11  C   UNL     1      28.357  42.683  53.066  1.00  0.00     0.050 C 
HETATM   12  C   UNL     1      28.079  44.446  54.821  1.00  0.00     0.009 A 
HETATM   13  C   UNL     1      27.626  45.691  55.262  1.00  0.00     0.008 A 
HETATM   14  H   UNL     1      27.139  43.569  51.001  1.00  0.00     0.169 HD
ENDROOT
BRANCH   8  15
HETATM   15  C   UNL     1      25.113  47.463  49.759  1.00  0.00     0.202 C 
HETATM   16  N   UNL     1      25.905  48.593  49.369  1.00  0.00    -0.336 N 
HETATM   17  C   UNL     1      25.398  49.488  48.458  1.00  0.00     0.255 C 
HETATM   18  H   UNL     1      26.889  48.401  49.193  1.00  0.00     0.164 HD
HETATM   19  O   UNL     1      26.121  50.157  47.732  1.00  0.00    -0.268 OA
HETATM   20  C   UNL     1      23.928  49.620  48.441  1.00  0.00     0.053 A 
HETATM   21  C   UNL     1      23.201  48.851  49.357  1.00  0.00     0.026 A 
HETATM   22  C   UNL     1      23.293  50.527  47.588  1.00  0.00     0.019 A 
HETATM   23  N   UNL     1      23.854  48.001  50.285  1.00  0.00    -0.266 NA
HETATM   24  C   UNL     1      21.826  49.066  49.471  1.00  0.00     0.024 A 
HETATM   25  H   UNL     1      24.088  48.585  51.088  1.00  0.00     0.130 HD
HETATM   26  C   UNL     1      21.182  49.973  48.624  1.00  0.00     0.002 A 
HETATM   27  C   UNL     1      21.912  50.695  47.678  1.00  0.00     0.001 A 
ENDBRANCH   8  15
TORSDOF 1
ENDMDL
MODEL 3
REMARK VINA RESULT:     -10.0      4.179      6.000
REMARK  1 active torsions:
REMARK  status: ('A' for Active; 'I' for Inactive)
REMARK    1  A    between atoms: C_8  and  C_9 
ROOT
HETATM    1  C   UNL     1      30.902  43.055  55.473  1.00  0.00     0.049 C 
HETATM    2  C   UNL     1      29.769  43.971  55.095  1.00  0.00    -0.050 A 
HETATM    3  C   UNL     1      28.865  43.667  54.057  1.00  0.00    -0.002 A 
HETATM    4  C   UNL     1      27.845  44.582  53.733  1.00  0.00     0.051 A 
HETATM    5  N   UNL     1      26.992  44.281  52.659  1.00  0.00    -0.322 N 
HETATM    6  C   UNL     1      27.080  43.154  51.896  1.00  0.00     0.255 A 
HETATM    7  O   UNL     1      26.329  42.986  50.938  1.00  0.00    -0.268 OA
HETATM    8  C   UNL     1      28.089  42.127  52.282  1.00  0.00     0.048 A 
HETATM    9  C   UNL     1      28.934  42.414  53.292  1.00  0.00     0.030 A 
HETATM   10  C   UNL     1      27.684  45.779  54.450  1.00  0.00    -0.034 A 
HETATM   11  C   UNL     1      26.583  46.755  54.148  1.00  0.00     0.050 C 
HETATM   12  C   UNL     1      28.579  46.059  55.490  1.00  0.00     0.009 A 
HETATM   13  C   UNL     1      29.609  45.172  55.803  1.00  0.00     0.008 A 
HETATM   14  H   UNL     1      26.275  44.935  52.379  1.00  0.00     0.169 HD
ENDROOT
BRANCH   8  15
HETATM   15  C   UNL     1      28.107  40.862  51.455  1.00  0.00     0.202 C 
HETATM   16  N   UNL     1      29.202  40.006  51.809  1.00  0.00    -0.336 N 
HETATM   17  C   UNL     1      29.399  38.839  51.110  1.00  0.00     0.255 C 
HETATM   18  H   UNL     1      29.352  39.871  52.807  1.00  0.00     0.164 HD
HETATM   19  O   UNL     1      29.951  37.868  51.608  1.00  0.00    -0.268 OA
HETATM   20  C   UNL     1      28.937  38.848  49.708  1.00  0.00     0.053 A 
HETATM   21  C   UNL     1      28.374  40.034  49.221  1.00  0.00     0.026 A 
HETATM   22  C   UNL     1      29.116  37.736  48.880  1.00  0.00     0.019 A 
HETATM   23  N   UNL     1      28.279  41.190  50.036  1.00  0.00    -0.266 NA
HETATM   24  C   UNL     1      28.071  40.123  47.862  1.00  0.00     0.024 A 
HETATM   25  H   UNL     1      29.172  41.676  49.946  1.00  0.00     0.130 HD
HETATM   26  C   UNL     1      28.248  39.018  47.025  1.00  0.00     0.002 A 
HETATM   27  C   UNL     1      28.761  37.823  47.535  1.00  0.00     0.001 A 
ENDBRANCH   8  15
TORSDOF 1
ENDMDL
MODEL 4
REMARK VINA RESULT:      -9.7      2.543      3.960
REMARK  1 active torsions:
REMARK  status: ('A' for Active; 'I' for Inactive)
REMARK    1  A    between atoms: C_8  and  C_9 
ROOT
HETATM    1  C   UNL     1      27.746  47.023  56.207  1.00  0.00     0.049 C 
HETATM    2  C   UNL     1      28.857  46.025  56.397  1.00  0.00    -0.050 A 
HETATM    3  C   UNL     1      29.146  45.026  55.447  1.00  0.00    -0.002 A 
HETATM    4  C   UNL     1      30.181  44.104  55.699  1.00  0.00     0.051 A 
HETATM    5  N   UNL     1      30.413  43.085  54.763  1.00  0.00    -0.322 N 
HETATM    6  C   UNL     1      29.702  42.919  53.610  1.00  0.00     0.255 A 
HETATM    7  O   UNL     1      29.931  41.969  52.864  1.00  0.00    -0.268 OA
HETATM    8  C   UNL     1      28.669  43.939  53.276  1.00  0.00     0.048 A 
HETATM    9  C   UNL     1      28.414  44.907  54.178  1.00  0.00     0.030 A 
HETATM   10  C   UNL     1      30.958  44.182  56.868  1.00  0.00    -0.034 A 
HETATM   11  C   UNL     1      32.089  43.234  57.145  1.00  0.00     0.050 C 
HETATM   12  C   UNL     1      30.669  45.191  57.794  1.00  0.00     0.009 A 
HETATM   13  C   UNL     1      29.630  46.095  57.566  1.00  0.00     0.008 A 
HETATM   14  H   UNL     1      31.123  42.387  54.935  1.00  0.00     0.169 HD
ENDROOT
BRANCH   8  15
HETATM   15  C   UNL     1      27.952  43.759  51.956  1.00  0.00     0.202 C 
HETATM   16  N   UNL     1      26.978  44.787  51.731  1.00  0.00    -0.336 N 
HETATM   17  C   UNL     1      26.195  44.737  50.602  1.00  0.00     0.255 C 
HETATM   18  H   UNL     1      27.286  45.737  51.927  1.00  0.00     0.164 HD
HETATM   19  O   UNL     1      25.721  45.744  50.095  1.00  0.00    -0.268 OA
HETATM   20  C   UNL     1      25.931  43.387  50.066  1.00  0.00     0.053 A 
HETATM   21  C   UNL     1      26.473  42.300  50.762  1.00  0.00     0.026 A 
HETATM   22  C   UNL     1      25.116  43.200  48.947  1.00  0.00     0.019 A 
HETATM   23  N   UNL     1      27.222  42.486  51.950  1.00  0.00    -0.266 NA
HETATM   24  C   UNL     1      26.114  41.008  50.370  1.00  0.00     0.024 A 
HETATM   25  H   UNL     1      26.542  42.526  52.711  1.00  0.00     0.130 HD
HETATM   26  C   UNL     1      25.298  40.811  49.253  1.00  0.00     0.002 A 
HETATM   27  C   UNL     1      24.807  41.904  48.537  1.00  0.00     0.001 A 
ENDBRANCH   8  15
TORSDOF 1
ENDMDL
MODEL 5
REMARK VINA RESULT:      -9.7      3.333      5.329
REMARK  1 active torsions:
REMARK  status: ('A' for Active; 'I' for Inactive)
REMARK    1  A    between atoms: C_8  and  C_9 
ROOT
HETATM    1  C   UNL     1      31.020  43.094  55.780  1.00  0.00     0.049 C 
HETATM    2  C   UNL     1      30.009  44.200  55.627  1.00  0.00    -0.050 A 
HETATM    3  C   UNL     1      29.079  44.233  54.568  1.00  0.00    -0.002 A 
HETATM    4  C   UNL     1      28.180  45.311  54.466  1.00  0.00     0.051 A 
HETATM    5  N   UNL     1      27.301  45.349  53.373  1.00  0.00    -0.322 N 
HETATM    6  C   UNL     1      27.252  44.405  52.388  1.00  0.00     0.255 A 
HETATM    7  O   UNL     1      26.490  44.535  51.433  1.00  0.00    -0.268 OA
HETATM    8  C   UNL     1      28.126  43.207  52.528  1.00  0.00     0.048 A 
HETATM    9  C   UNL     1      28.996  43.170  53.557  1.00  0.00     0.030 A 
HETATM   10  C   UNL     1      28.165  46.341  55.422  1.00  0.00    -0.034 A 
HETATM   11  C   UNL     1      27.193  47.485  55.355  1.00  0.00     0.050 C 
HETATM   12  C   UNL     1      29.083  46.286  56.477  1.00  0.00     0.009 A 
HETATM   13  C   UNL     1      29.995  45.234  56.574  1.00  0.00     0.008 A 
HETATM   14  H   UNL     1      26.670  46.129  53.252  1.00  0.00     0.169 HD
ENDROOT
BRANCH   8  15
HETATM   15  C   UNL     1      27.992  42.151  51.454  1.00  0.00     0.202 C 
HETATM   16  N   UNL     1      26.629  41.746  51.269  1.00  0.00    -0.336 N 
HETATM   17  C   UNL     1      26.340  40.747  50.369  1.00  0.00     0.255 C 
HETATM   18  H   UNL     1      25.948  42.500  51.218  1.00  0.00     0.164 HD
HETATM   19  O   UNL     1      25.255  40.673  49.807  1.00  0.00    -0.268 OA
HETATM   20  C   UNL     1      27.406  39.749  50.157  1.00  0.00     0.053 A 
HETATM   21  C   UNL     1      28.584  39.896  50.898  1.00  0.00     0.026 A 
HETATM   22  C   UNL     1      27.219  38.663  49.297  1.00  0.00     0.019 A 
HETATM   23  N   UNL     1      28.735  40.946  51.838  1.00  0.00    -0.266 NA
HETATM   24  C   UNL     1      29.546  38.886  50.834  1.00  0.00     0.024 A 
HETATM   25  H   UNL     1      28.327  40.607  52.710  1.00  0.00     0.130 HD
HETATM   26  C   UNL     1      29.368  37.794  49.980  1.00  0.00     0.002 A 
HETATM   27  C   UNL     1      28.211  37.687  49.206  1.00  0.00     0.001 A 
ENDBRANCH   8  15
TORSDOF 1
ENDMDL
MODEL 6
REMARK VINA RESULT:      -9.6      3.071      3.928
REMARK  1 active torsions:
REMARK  status: ('A' for Active; 'I' for Inactive)
REMARK    1  A    between atoms: C_8  and  C_9 
ROOT
HETATM    1  C   UNL     1      27.146  46.849  54.482  1.00  0.00     0.049 C 
HETATM    2  C   UNL     1      28.239  45.919  54.939  1.00  0.00    -0.050 A 
HETATM    3  C   UNL     1      28.429  44.642  54.375  1.00  0.00    -0.002 A 
HETATM    4  C   UNL     1      29.452  43.809  54.869  1.00  0.00     0.051 A 
HETATM    5  N   UNL     1      29.586  42.521  54.329  1.00  0.00    -0.322 N 
HETATM    6  C   UNL     1      28.789  42.008  53.346  1.00  0.00     0.255 A 
HETATM    7  O   UNL     1      28.936  40.851  52.961  1.00  0.00    -0.268 OA
HETATM    8  C   UNL     1      27.765  42.906  52.741  1.00  0.00     0.048 A 
HETATM    9  C   UNL     1      27.604  44.136  53.269  1.00  0.00     0.030 A 
HETATM   10  C   UNL     1      30.313  44.240  55.893  1.00  0.00    -0.034 A 
HETATM   11  C   UNL     1      31.433  43.385  56.414  1.00  0.00     0.050 C 
HETATM   12  C   UNL     1      30.122  45.518  56.431  1.00  0.00     0.009 A 
HETATM   13  C   UNL     1      29.096  46.343  55.966  1.00  0.00     0.008 A 
HETATM   14  H   UNL     1      30.285  41.887  54.689  1.00  0.00     0.169 HD
ENDROOT
BRANCH   8  15
HETATM   15  C   UNL     1      26.950  42.324  51.608  1.00  0.00     0.202 C 
HETATM   16  N   UNL     1      27.622  42.449  50.347  1.00  0.00    -0.336 N 
HETATM   17  C   UNL     1      26.990  42.022  49.203  1.00  0.00     0.255 C 
HETATM   18  H   UNL     1      28.607  42.192  50.345  1.00  0.00     0.164 HD
HETATM   19  O   UNL     1      27.612  41.647  48.219  1.00  0.00    -0.268 OA
HETATM   20  C   UNL     1      25.516  42.086  49.224  1.00  0.00     0.053 A 
HETATM   21  C   UNL     1      24.909  42.591  50.381  1.00  0.00     0.026 A 
HETATM   22  C   UNL     1      24.759  41.719  48.108  1.00  0.00     0.019 A 
HETATM   23  N   UNL     1      25.682  43.050  51.477  1.00  0.00    -0.266 NA
HETATM   24  C   UNL     1      23.530  42.807  50.374  1.00  0.00     0.024 A 
HETATM   25  H   UNL     1      25.912  44.023  51.274  1.00  0.00     0.130 HD
HETATM   26  C   UNL     1      22.764  42.446  49.261  1.00  0.00     0.002 A 
HETATM   27  C   UNL     1      23.376  41.894  48.134  1.00  0.00     0.001 A 
ENDBRANCH   8  15
TORSDOF 1
ENDMDL
MODEL 7
REMARK VINA RESULT:      -9.5      3.897      6.391
REMARK  1 active torsions:
REMARK  status: ('A' for Active; 'I' for Inactive)
REMARK    1  A    between atoms: C_8  and  C_9 
ROOT
HETATM    1  C   UNL     1      27.190  41.136  47.501  1.00  0.00     0.049 C 
HETATM    2  C   UNL     1      27.918  40.225  48.454  1.00  0.00    -0.050 A 
HETATM    3  C   UNL     1      28.035  40.508  49.829  1.00  0.00    -0.002 A 
HETATM    4  C   UNL     1      28.755  39.629  50.661  1.00  0.00     0.051 A 
HETATM    5  N   UNL     1      28.905  39.962  52.017  1.00  0.00    -0.322 N 
HETATM    6  C   UNL     1      28.398  41.088  52.596  1.00  0.00     0.255 A 
HETATM    7  O   UNL     1      28.616  41.337  53.779  1.00  0.00    -0.268 OA
HETATM    8  C   UNL     1      27.551  41.983  51.757  1.00  0.00     0.048 A 
HETATM    9  C   UNL     1      27.422  41.692  50.447  1.00  0.00     0.030 A 
HETATM   10  C   UNL     1      29.330  38.452  50.154  1.00  0.00    -0.034 A 
HETATM   11  C   UNL     1      30.073  37.480  51.026  1.00  0.00     0.050 C 
HETATM   12  C   UNL     1      29.190  38.175  48.789  1.00  0.00     0.009 A 
HETATM   13  C   UNL     1      28.500  39.052  47.950  1.00  0.00     0.008 A 
HETATM   14  H   UNL     1      29.448  39.370  52.630  1.00  0.00     0.169 HD
ENDROOT
BRANCH   8  15
HETATM   15  C   UNL     1      26.949  43.182  52.453  1.00  0.00     0.202 C 
HETATM   16  N   UNL     1      26.275  44.053  51.534  1.00  0.00    -0.336 N 
HETATM   17  C   UNL     1      25.723  45.223  51.997  1.00  0.00     0.255 C 
HETATM   18  H   UNL     1      25.665  43.595  50.860  1.00  0.00     0.164 HD
HETATM   19  O   UNL     1      24.768  45.754  51.446  1.00  0.00    -0.268 OA
HETATM   20  C   UNL     1      26.381  45.819  53.176  1.00  0.00     0.053 A 
HETATM   21  C   UNL     1      27.504  45.159  53.690  1.00  0.00     0.026 A 
HETATM   22  C   UNL     1      25.939  47.029  53.717  1.00  0.00     0.019 A 
HETATM   23  N   UNL     1      28.006  43.981  53.082  1.00  0.00    -0.266 NA
HETATM   24  C   UNL     1      28.238  45.776  54.705  1.00  0.00     0.024 A 
HETATM   25  H   UNL     1      28.632  44.290  52.338  1.00  0.00     0.130 HD
HETATM   26  C   UNL     1      27.805  46.988  55.251  1.00  0.00     0.002 A 
HETATM   27  C   UNL     1      26.653  47.609  54.765  1.00  0.00     0.001 A 
ENDBRANCH   8  15
TORSDOF 1
ENDMDL
MODEL 8
REMARK VINA RESULT:      -9.3      2.794      7.649
REMARK  1 active torsions:
REMARK  status: ('A' for Active; 'I' for Inactive)
REMARK    1  A    between atoms: C_8  and  C_9 
ROOT
HETATM    1  C   UNL     1      26.867  50.078  48.447  1.00  0.00     0.049 C 
HETATM    2  C   UNL     1      25.428  49.676  48.633  1.00  0.00    -0.050 A 
HETATM    3  C   UNL     1      25.055  48.409  49.123  1.00  0.00    -0.002 A 
HETATM    4  C   UNL     1      23.690  48.085  49.245  1.00  0.00     0.051 A 
HETATM    5  N   UNL     1      23.343  46.798  49.683  1.00  0.00    -0.322 N 
HETATM    6  C   UNL     1      24.243  45.822  50.003  1.00  0.00     0.255 A 
HETATM    7  O   UNL     1      23.862  44.701  50.329  1.00  0.00    -0.268 OA
HETATM    8  C   UNL     1      25.691  46.174  49.974  1.00  0.00     0.048 A 
HETATM    9  C   UNL     1      26.040  47.397  49.529  1.00  0.00     0.030 A 
HETATM   10  C   UNL     1      22.688  49.016  48.923  1.00  0.00    -0.034 A 
HETATM   11  C   UNL     1      21.225  48.709  49.077  1.00  0.00     0.050 C 
HETATM   12  C   UNL     1      23.075  50.277  48.454  1.00  0.00     0.009 A 
HETATM   13  C   UNL     1      24.424  50.600  48.306  1.00  0.00     0.008 A 
HETATM   14  H   UNL     1      22.372  46.524  49.744  1.00  0.00     0.169 HD
ENDROOT
BRANCH   8  15
HETATM   15  C   UNL     1      26.652  45.089  50.404  1.00  0.00     0.202 C 
HETATM   16  N   UNL     1      26.471  43.883  49.649  1.00  0.00    -0.336 N 
HETATM   17  C   UNL     1      27.227  42.777  49.955  1.00  0.00     0.255 C 
HETATM   18  H   UNL     1      26.379  44.003  48.643  1.00  0.00     0.164 HD
HETATM   19  O   UNL     1      27.494  41.921  49.123  1.00  0.00    -0.268 OA
HETATM   20  C   UNL     1      27.661  42.668  51.362  1.00  0.00     0.053 A 
HETATM   21  C   UNL     1      27.247  43.673  52.244  1.00  0.00     0.026 A 
HETATM   22  C   UNL     1      28.400  41.569  51.808  1.00  0.00     0.019 A 
HETATM   23  N   UNL     1      26.419  44.738  51.809  1.00  0.00    -0.266 NA
HETATM   24  C   UNL     1      27.510  43.519  53.607  1.00  0.00     0.024 A 
HETATM   25  H   UNL     1      25.459  44.398  51.878  1.00  0.00     0.130 HD
HETATM   26  C   UNL     1      28.247  42.422  54.063  1.00  0.00     0.002 A 
HETATM   27  C   UNL     1      28.699  41.454  53.165  1.00  0.00     0.001 A 
ENDBRANCH   8  15
TORSDOF 1
ENDMDL
MODEL 9
REMARK VINA RESULT:      -9.3      2.775      7.389
REMARK  1 active torsions:
REMARK  status: ('A' for Active; 'I' for Inactive)
REMARK    1  A    between atoms: C_8  and  C_9 
ROOT
HETATM    1  C   UNL     1      28.596  39.711  50.331  1.00  0.00     0.049 C 
HETATM    2  C   UNL     1      27.277  40.343  49.971  1.00  0.00    -0.050 A 
HETATM    3  C   UNL     1      26.711  41.391  50.724  1.00  0.00    -0.002 A 
HETATM    4  C   UNL     1      25.460  41.918  50.350  1.00  0.00     0.051 A 
HETATM    5  N   UNL     1      24.891  42.923  51.148  1.00  0.00    -0.322 N 
HETATM    6  C   UNL     1      25.469  43.435  52.274  1.00  0.00     0.255 A 
HETATM    7  O   UNL     1      24.884  44.277  52.950  1.00  0.00    -0.268 OA
HETATM    8  C   UNL     1      26.835  42.961  52.632  1.00  0.00     0.048 A 
HETATM    9  C   UNL     1      27.382  41.976  51.893  1.00  0.00     0.030 A 
HETATM   10  C   UNL     1      24.778  41.444  49.217  1.00  0.00    -0.034 A 
HETATM   11  C   UNL     1      23.459  42.012  48.777  1.00  0.00     0.050 C 
HETATM   12  C   UNL     1      25.361  40.415  48.469  1.00  0.00     0.009 A 
HETATM   13  C   UNL     1      26.590  39.868  48.844  1.00  0.00     0.008 A 
HETATM   14  H   UNL     1      23.977  43.293  50.927  1.00  0.00     0.169 HD
ENDROOT
BRANCH   8  15
HETATM   15  C   UNL     1      27.470  43.603  53.845  1.00  0.00     0.202 C 
HETATM   16  N   UNL     1      27.509  45.032  53.736  1.00  0.00    -0.336 N 
HETATM   17  C   UNL     1      28.109  45.768  54.730  1.00  0.00     0.255 C 
HETATM   18  H   UNL     1      26.649  45.474  53.416  1.00  0.00     0.164 HD
HETATM   19  O   UNL     1      27.785  46.923  54.971  1.00  0.00    -0.268 OA
HETATM   20  C   UNL     1      29.197  45.088  55.460  1.00  0.00     0.053 A 
HETATM   21  C   UNL     1      29.527  43.787  55.061  1.00  0.00     0.026 A 
HETATM   22  C   UNL     1      29.913  45.743  56.466  1.00  0.00     0.019 A 
HETATM   23  N   UNL     1      28.862  43.159  53.979  1.00  0.00    -0.266 NA
HETATM   24  C   UNL     1      30.648  43.177  55.627  1.00  0.00     0.024 A 
HETATM   25  H   UNL     1      29.353  43.453  53.134  1.00  0.00     0.130 HD
HETATM   26  C   UNL     1      31.373  43.825  56.632  1.00  0.00     0.002 A 
HETATM   27  C   UNL     1      31.000  45.102  57.057  1.00  0.00     0.001 A 
ENDBRANCH   8  15
TORSDOF 1
ENDMDL
MODEL 10
REMARK VINA RESULT:      -9.2      1.352      2.020
REMARK  1 active torsions:
REMARK  status: ('A' for Active; 'I' for Inactive)
REMARK    1  A    between atoms: C_8  and  C_9 
ROOT
HETATM    1  C   UNL     1      30.533  42.644  53.381  1.00  0.00     0.049 C 
HETATM    2  C   UNL     1      30.081  43.566  54.482  1.00  0.00    -0.050 A 
HETATM    3  C   UNL     1      28.993  44.449  54.328  1.00  0.00    -0.002 A 
HETATM    4  C   UNL     1      28.639  45.307  55.387  1.00  0.00     0.051 A 
HETATM    5  N   UNL     1      27.588  46.216  55.190  1.00  0.00    -0.322 N 
HETATM    6  C   UNL     1      26.873  46.331  54.033  1.00  0.00     0.255 A 
HETATM    7  O   UNL     1      26.000  47.188  53.918  1.00  0.00    -0.268 OA
HETATM    8  C   UNL     1      27.166  45.367  52.935  1.00  0.00     0.048 A 
HETATM    9  C   UNL     1      28.191  44.508  53.098  1.00  0.00     0.030 A 
HETATM   10  C   UNL     1      29.327  45.276  56.612  1.00  0.00    -0.034 A 
HETATM   11  C   UNL     1      28.948  46.156  57.769  1.00  0.00     0.050 C 
HETATM   12  C   UNL     1      30.394  44.382  56.755  1.00  0.00     0.009 A 
HETATM   13  C   UNL     1      30.769  43.544  55.704  1.00  0.00     0.008 A 
HETATM   14  H   UNL     1      27.336  46.870  55.917  1.00  0.00     0.169 HD
ENDROOT
BRANCH   8  15
HETATM   15  C   UNL     1      26.305  45.481  51.697  1.00  0.00     0.202 C 
HETATM   16  N   UNL     1      25.904  46.834  51.445  1.00  0.00    -0.336 N 
HETATM   17  C   UNL     1      25.067  47.104  50.389  1.00  0.00     0.255 C 
HETATM   18  H   UNL     1      26.639  47.534  51.524  1.00  0.00     0.164 HD
HETATM   19  O   UNL     1      25.062  48.188  49.823  1.00  0.00    -0.268 OA
HETATM   20  C   UNL     1      24.145  46.015  50.009  1.00  0.00     0.053 A 
HETATM   21  C   UNL     1      24.192  44.837  50.765  1.00  0.00     0.026 A 
HETATM   22  C   UNL     1      23.217  46.179  48.978  1.00  0.00     0.019 A 
HETATM   23  N   UNL     1      25.070  44.707  51.870  1.00  0.00    -0.266 NA
HETATM   24  C   UNL     1      23.232  43.851  50.530  1.00  0.00     0.024 A 
HETATM   25  H   UNL     1      24.578  45.103  52.672  1.00  0.00     0.130 HD
HETATM   26  C   UNL     1      22.297  44.007  49.502  1.00  0.00     0.002 A 
HETATM   27  C   UNL     1      22.296  45.165  48.722  1.00  0.00     0.001 A 
ENDBRANCH   8  15
TORSDOF 1
ENDMDL
