MODEL 1
REMARK VINA RESULT:      -9.1      0.000      0.000
REMARK  8 active torsions:
REMARK  status: ('A' for Active; 'I' for Inactive)
REMARK    1  A    between atoms: C_4  and  N_5 
REMARK    2  A    between atoms: N_8  and  C_10 
REMARK    3  A    between atoms: C_10  and  C_11 
REMARK    4  A    between atoms: C_11  and  C_12 
REMARK       I    between atoms: C_12  and  N_13 
REMARK    5  A    between atoms: N_13  and  N_14 
REMARK    6  A    between atoms: N_14  and  C_15 
REMARK    7  A    between atoms: C_15  and  N_16 
REMARK    8  A    between atoms: N_16  and  C_17 
ROOT
HETATM    1  C   UNL     1      24.243  47.415  50.054  1.00  0.00     0.237 C 
HETATM    2  N   UNL     1      23.045  47.972  49.689  1.00  0.00    -0.268 N 
HETATM    3  O   UNL     1      25.086  48.057  50.675  1.00  0.00    -0.272 OA
HETATM    4  H   UNL     1      22.958  48.988  49.757  1.00  0.00     0.190 HD
ENDROOT
BRANCH   1   5
HETATM    5  C   UNL     1      24.462  45.951  49.754  1.00  0.00     0.132 C 
BRANCH   5   6
HETATM    6  C   UNL     1      25.893  45.593  50.109  1.00  0.00     0.244 C 
BRANCH   6   7
HETATM    7  N   UNL     1      25.960  44.556  51.215  1.00  0.00    -0.068 N 
HETATM    8  C   UNL     1      27.245  43.717  51.087  1.00  0.00     0.254 C 
HETATM    9  C   UNL     1      27.324  42.651  52.199  1.00  0.00     0.150 C 
HETATM   10  N   UNL     1      27.165  43.253  53.534  1.00  0.00    -0.378 N 
HETATM   11  C   UNL     1      25.922  44.033  53.691  1.00  0.00     0.150 C 
HETATM   12  C   UNL     1      25.846  45.150  52.627  1.00  0.00     0.254 C 
HETATM   13  H   UNL     1      25.173  43.905  51.092  1.00  0.00     0.280 HD
BRANCH  10  14
HETATM   14  C   UNL     1      28.275  43.671  54.272  1.00  0.00     0.030 A 
HETATM   15  C   UNL     1      29.429  42.891  54.445  1.00  0.00     0.029 A 
HETATM   16  C   UNL     1      30.521  43.346  55.197  1.00  0.00     0.002 A 
HETATM   17  C   UNL     1      30.479  44.590  55.814  1.00  0.00     0.000 A 
HETATM   18  C   UNL     1      29.340  45.373  55.688  1.00  0.00     0.002 A 
HETATM   19  C   UNL     1      28.256  44.913  54.931  1.00  0.00     0.029 A 
ENDBRANCH  10  14
ENDBRANCH   6   7
ENDBRANCH   5   6
ENDBRANCH   1   5
BRANCH   2  20
HETATM   20  N   UNL     1      22.109  47.288  48.898  1.00  0.00    -0.274 N 
HETATM   21  H   UNL     1      22.310  46.297  48.795  1.00  0.00     0.189 HD
BRANCH  20  22
HETATM   22  C   UNL     1      20.768  47.553  49.017  1.00  0.00     0.191 C 
HETATM   23  S   UNL     1      19.548  46.579  48.410  1.00  0.00    -0.039 SA
BRANCH  22  24
HETATM   24  N   UNL     1      20.390  48.609  49.800  1.00  0.00    -0.331 N 
HETATM   25  H   UNL     1      20.824  48.541  50.718  1.00  0.00     0.168 HD
BRANCH  24  26
HETATM   26  C   UNL     1      19.845  49.880  49.483  1.00  0.00     0.056 A 
HETATM   27  C   UNL     1      20.424  50.891  48.696  1.00  0.00     0.060 A 
HETATM   28 CL   UNL     1      21.864  50.679  47.761  1.00  0.00    -0.082 Cl
HETATM   29  C   UNL     1      19.772  52.123  48.530  1.00  0.00     0.026 A 
HETATM   30  C   UNL     1      18.527  52.350  49.110  1.00  0.00     0.002 A 
HETATM   31  C   UNL     1      17.914  51.337  49.835  1.00  0.00     0.002 A 
HETATM   32  C   UNL     1      18.561  50.109  50.007  1.00  0.00     0.031 A 
ENDBRANCH  24  26
ENDBRANCH  22  24
ENDBRANCH  20  22
ENDBRANCH   2  20
TORSDOF 8
ENDMDL
MODEL 2
REMARK VINA RESULT:      -9.0      1.163      1.475
REMARK  8 active torsions:
REMARK  status: ('A' for Active; 'I' for Inactive)
REMARK    1  A    between atoms: C_4  and  N_5 
REMARK    2  A    between atoms: N_8  and  C_10 
REMARK    3  A    between atoms: C_10  and  C_11 
REMARK    4  A    between atoms: C_11  and  C_12 
REMARK       I    between atoms: C_12  and  N_13 
REMARK    5  A    between atoms: N_13  and  N_14 
REMARK    6  A    between atoms: N_14  and  C_15 
REMARK    7  A    between atoms: C_15  and  N_16 
REMARK    8  A    between atoms: N_16  and  C_17 
ROOT
HETATM    1  C   UNL     1      24.976  47.470  49.933  1.00  0.00     0.237 C 
HETATM    2  N   UNL     1      23.984  48.218  49.353  1.00  0.00    -0.268 N 
HETATM    3  O   UNL     1      25.797  47.974  50.693  1.00  0.00    -0.272 OA
HETATM    4  H   UNL     1      24.074  49.235  49.398  1.00  0.00     0.190 HD
ENDROOT
BRANCH   1   5
HETATM    5  C   UNL     1      24.972  45.980  49.687  1.00  0.00     0.132 C 
BRANCH   5   6
HETATM    6  C   UNL     1      26.345  45.430  50.023  1.00  0.00     0.244 C 
BRANCH   6   7
HETATM    7  N   UNL     1      26.302  44.476  51.202  1.00  0.00    -0.068 N 
HETATM    8  C   UNL     1      27.527  43.543  51.184  1.00  0.00     0.254 C 
HETATM    9  C   UNL     1      27.492  42.559  52.371  1.00  0.00     0.150 C 
HETATM   10  N   UNL     1      27.331  43.267  53.652  1.00  0.00    -0.378 N 
HETATM   11  C   UNL     1      26.142  44.141  53.706  1.00  0.00     0.150 C 
HETATM   12  C   UNL     1      26.183  45.178  52.563  1.00  0.00     0.254 C 
HETATM   13  H   UNL     1      25.474  43.873  51.094  1.00  0.00     0.280 HD
BRANCH  10  14
HETATM   14  C   UNL     1      28.443  43.661  54.401  1.00  0.00     0.030 A 
HETATM   15  C   UNL     1      29.594  42.873  54.553  1.00  0.00     0.029 A 
HETATM   16  C   UNL     1      30.688  43.304  55.317  1.00  0.00     0.002 A 
HETATM   17  C   UNL     1      30.650  44.531  55.968  1.00  0.00     0.000 A 
HETATM   18  C   UNL     1      29.513  45.320  55.863  1.00  0.00     0.002 A 
HETATM   19  C   UNL     1      28.427  44.885  55.095  1.00  0.00     0.029 A 
ENDBRANCH  10  14
ENDBRANCH   6   7
ENDBRANCH   5   6
ENDBRANCH   1   5
BRANCH   2  20
HETATM   20  N   UNL     1      23.094  47.683  48.409  1.00  0.00    -0.274 N 
HETATM   21  H   UNL     1      23.396  46.790  48.026  1.00  0.00     0.189 HD
BRANCH  20  22
HETATM   22  C   UNL     1      21.739  47.748  48.610  1.00  0.00     0.191 C 
HETATM   23  S   UNL     1      20.616  46.754  47.863  1.00  0.00    -0.039 SA
BRANCH  22  24
HETATM   24  N   UNL     1      21.276  48.587  49.587  1.00  0.00    -0.331 N 
HETATM   25  H   UNL     1      21.882  48.546  50.404  1.00  0.00     0.168 HD
BRANCH  24  26
HETATM   26  C   UNL     1      20.392  49.695  49.547  1.00  0.00     0.056 A 
HETATM   27  C   UNL     1      19.167  49.842  50.223  1.00  0.00     0.060 A 
HETATM   28 CL   UNL     1      18.599  48.746  51.435  1.00  0.00    -0.082 Cl
HETATM   29  C   UNL     1      18.379  50.986  50.025  1.00  0.00     0.026 A 
HETATM   30  C   UNL     1      18.813  52.010  49.188  1.00  0.00     0.002 A 
HETATM   31  C   UNL     1      20.051  51.909  48.566  1.00  0.00     0.002 A 
HETATM   32  C   UNL     1      20.838  50.769  48.756  1.00  0.00     0.031 A 
ENDBRANCH  24  26
ENDBRANCH  22  24
ENDBRANCH  20  22
ENDBRANCH   2  20
TORSDOF 8
ENDMDL
MODEL 3
REMARK VINA RESULT:      -8.5      3.458     10.504
REMARK  8 active torsions:
REMARK  status: ('A' for Active; 'I' for Inactive)
REMARK    1  A    between atoms: C_4  and  N_5 
REMARK    2  A    between atoms: N_8  and  C_10 
REMARK    3  A    between atoms: C_10  and  C_11 
REMARK    4  A    between atoms: C_11  and  C_12 
REMARK       I    between atoms: C_12  and  N_13 
REMARK    5  A    between atoms: N_13  and  N_14 
REMARK    6  A    between atoms: N_14  and  C_15 
REMARK    7  A    between atoms: C_15  and  N_16 
REMARK    8  A    between atoms: N_16  and  C_17 
ROOT
HETATM    1  C   UNL     1      25.814  45.901  50.769  1.00  0.00     0.237 C 
HETATM    2  N   UNL     1      26.337  45.786  52.031  1.00  0.00    -0.268 N 
HETATM    3  O   UNL     1      26.221  45.208  49.841  1.00  0.00    -0.272 OA
HETATM    4  H   UNL     1      27.212  45.268  52.132  1.00  0.00     0.190 HD
ENDROOT
BRANCH   1   5
HETATM    5  C   UNL     1      24.648  46.841  50.570  1.00  0.00     0.132 C 
BRANCH   5   6
HETATM    6  C   UNL     1      25.130  48.054  49.798  1.00  0.00     0.244 C 
BRANCH   6   7
HETATM    7  N   UNL     1      24.136  48.483  48.735  1.00  0.00    -0.068 N 
HETATM    8  C   UNL     1      22.823  47.692  48.878  1.00  0.00     0.254 C 
HETATM    9  C   UNL     1      21.803  48.109  47.798  1.00  0.00     0.150 C 
HETATM   10  N   UNL     1      21.596  49.567  47.788  1.00  0.00    -0.378 N 
HETATM   11  C   UNL     1      22.838  50.345  47.616  1.00  0.00     0.150 C 
HETATM   12  C   UNL     1      23.854  49.993  48.724  1.00  0.00     0.254 C 
HETATM   13  H   UNL     1      24.526  48.236  47.815  1.00  0.00     0.280 HD
BRANCH  10  14
HETATM   14  C   UNL     1      20.578  50.154  48.545  1.00  0.00     0.030 A 
HETATM   15  C   UNL     1      19.839  49.463  49.517  1.00  0.00     0.029 A 
HETATM   16  C   UNL     1      18.822  50.088  50.253  1.00  0.00     0.002 A 
HETATM   17  C   UNL     1      18.506  51.421  50.021  1.00  0.00     0.000 A 
HETATM   18  C   UNL     1      19.198  52.123  49.045  1.00  0.00     0.002 A 
HETATM   19  C   UNL     1      20.214  51.493  48.317  1.00  0.00     0.029 A 
ENDBRANCH  10  14
ENDBRANCH   6   7
ENDBRANCH   5   6
ENDBRANCH   1   5
BRANCH   2  20
HETATM   20  N   UNL     1      25.954  46.633  53.082  1.00  0.00    -0.274 N 
HETATM   21  H   UNL     1      24.947  46.689  53.213  1.00  0.00     0.189 HD
BRANCH  20  22
HETATM   22  C   UNL     1      26.648  46.636  54.265  1.00  0.00     0.191 C 
HETATM   23  S   UNL     1      26.954  48.001  55.187  1.00  0.00    -0.039 SA
BRANCH  22  24
HETATM   24  N   UNL     1      26.999  45.429  54.805  1.00  0.00    -0.331 N 
HETATM   25  H   UNL     1      26.180  44.830  54.893  1.00  0.00     0.168 HD
BRANCH  24  26
HETATM   26  C   UNL     1      28.247  44.764  54.917  1.00  0.00     0.056 A 
HETATM   27  C   UNL     1      29.269  45.006  55.852  1.00  0.00     0.060 A 
HETATM   28 CL   UNL     1      29.095  46.052  57.220  1.00  0.00    -0.082 Cl
HETATM   29  C   UNL     1      30.476  44.294  55.786  1.00  0.00     0.026 A 
HETATM   30  C   UNL     1      30.668  43.311  54.819  1.00  0.00     0.002 A 
HETATM   31  C   UNL     1      29.642  43.016  53.930  1.00  0.00     0.002 A 
HETATM   32  C   UNL     1      28.439  43.726  53.989  1.00  0.00     0.031 A 
ENDBRANCH  24  26
ENDBRANCH  22  24
ENDBRANCH  20  22
ENDBRANCH   2  20
TORSDOF 8
ENDMDL
MODEL 4
REMARK VINA RESULT:      -8.4      2.965     10.184
REMARK  8 active torsions:
REMARK  status: ('A' for Active; 'I' for Inactive)
REMARK    1  A    between atoms: C_4  and  N_5 
REMARK    2  A    between atoms: N_8  and  C_10 
REMARK    3  A    between atoms: C_10  and  C_11 
REMARK    4  A    between atoms: C_11  and  C_12 
REMARK       I    between atoms: C_12  and  N_13 
REMARK    5  A    between atoms: N_13  and  N_14 
REMARK    6  A    between atoms: N_14  and  C_15 
REMARK    7  A    between atoms: C_15  and  N_16 
REMARK    8  A    between atoms: N_16  and  C_17 
ROOT
HETATM    1  C   UNL     1      26.765  45.504  49.774  1.00  0.00     0.237 C 
HETATM    2  N   UNL     1      27.238  44.349  50.341  1.00  0.00    -0.268 N 
HETATM    3  O   UNL     1      27.511  46.279  49.182  1.00  0.00    -0.272 OA
HETATM    4  H   UNL     1      28.251  44.256  50.445  1.00  0.00     0.190 HD
ENDROOT
BRANCH   1   5
HETATM    5  C   UNL     1      25.276  45.751  49.812  1.00  0.00     0.132 C 
BRANCH   5   6
HETATM    6  C   UNL     1      25.036  47.233  50.027  1.00  0.00     0.244 C 
BRANCH   6   7
HETATM    7  N   UNL     1      24.208  47.842  48.911  1.00  0.00    -0.068 N 
HETATM    8  C   UNL     1      22.799  47.222  48.888  1.00  0.00     0.254 C 
HETATM    9  C   UNL     1      21.946  47.823  47.751  1.00  0.00     0.150 C 
HETATM   10  N   UNL     1      21.923  49.294  47.817  1.00  0.00    -0.378 N 
HETATM   11  C   UNL     1      23.263  49.913  47.804  1.00  0.00     0.150 C 
HETATM   12  C   UNL     1      24.118  49.374  48.971  1.00  0.00     0.254 C 
HETATM   13  H   UNL     1      24.649  47.596  48.014  1.00  0.00     0.280 HD
BRANCH  10  14
HETATM   14  C   UNL     1      20.919  49.968  48.518  1.00  0.00     0.030 A 
HETATM   15  C   UNL     1      20.577  51.308  48.284  1.00  0.00     0.029 A 
HETATM   16  C   UNL     1      19.565  51.949  49.012  1.00  0.00     0.002 A 
HETATM   17  C   UNL     1      18.880  51.268  50.012  1.00  0.00     0.000 A 
HETATM   18  C   UNL     1      19.217  49.951  50.289  1.00  0.00     0.002 A 
HETATM   19  C   UNL     1      20.225  49.317  49.554  1.00  0.00     0.029 A 
ENDBRANCH  10  14
ENDBRANCH   6   7
ENDBRANCH   5   6
ENDBRANCH   1   5
BRANCH   2  20
HETATM   20  N   UNL     1      26.423  43.497  51.102  1.00  0.00    -0.274 N 
HETATM   21  H   UNL     1      25.461  43.455  50.775  1.00  0.00     0.189 HD
BRANCH  20  22
HETATM   22  C   UNL     1      26.893  42.285  51.539  1.00  0.00     0.191 C 
HETATM   23  S   UNL     1      27.239  40.983  50.543  1.00  0.00    -0.039 SA
BRANCH  22  24
HETATM   24  N   UNL     1      27.235  42.169  52.858  1.00  0.00    -0.331 N 
HETATM   25  H   UNL     1      27.140  41.203  53.164  1.00  0.00     0.168 HD
BRANCH  24  26
HETATM   26  C   UNL     1      27.991  43.002  53.721  1.00  0.00     0.056 A 
HETATM   27  C   UNL     1      27.569  44.176  54.370  1.00  0.00     0.060 A 
HETATM   28 CL   UNL     1      25.927  44.721  54.404  1.00  0.00    -0.082 Cl
HETATM   29  C   UNL     1      28.468  44.922  55.148  1.00  0.00     0.026 A 
HETATM   30  C   UNL     1      29.781  44.492  55.321  1.00  0.00     0.002 A 
HETATM   31  C   UNL     1      30.194  43.300  54.740  1.00  0.00     0.002 A 
HETATM   32  C   UNL     1      29.303  42.556  53.961  1.00  0.00     0.031 A 
ENDBRANCH  24  26
ENDBRANCH  22  24
ENDBRANCH  20  22
ENDBRANCH   2  20
TORSDOF 8
ENDMDL
MODEL 5
REMARK VINA RESULT:      -8.3     12.432     15.119
REMARK  8 active torsions:
REMARK  status: ('A' for Active; 'I' for Inactive)
REMARK    1  A    between atoms: C_4  and  N_5 
REMARK    2  A    between atoms: N_8  and  C_10 
REMARK    3  A    between atoms: C_10  and  C_11 
REMARK    4  A    between atoms: C_11  and  C_12 
REMARK       I    between atoms: C_12  and  N_13 
REMARK    5  A    between atoms: N_13  and  N_14 
REMARK    6  A    between atoms: N_14  and  C_15 
REMARK    7  A    between atoms: C_15  and  N_16 
REMARK    8  A    between atoms: N_16  and  C_17 
ROOT
HETATM    1  C   UNL     1      31.445  53.336  40.434  1.00  0.00     0.237 C 
HETATM    2  N   UNL     1      32.785  53.287  40.144  1.00  0.00    -0.268 N 
HETATM    3  O   UNL     1      31.003  54.096  41.291  1.00  0.00    -0.272 OA
HETATM    4  H   UNL     1      33.425  53.738  40.800  1.00  0.00     0.190 HD
ENDROOT
BRANCH   1   5
HETATM    5  C   UNL     1      30.510  52.494  39.599  1.00  0.00     0.132 C 
BRANCH   5   6
HETATM    6  C   UNL     1      29.111  53.068  39.711  1.00  0.00     0.244 C 
BRANCH   6   7
HETATM    7  N   UNL     1      28.067  51.984  39.903  1.00  0.00    -0.068 N 
HETATM    8  C   UNL     1      27.792  51.261  38.572  1.00  0.00     0.254 C 
HETATM    9  C   UNL     1      26.724  50.162  38.747  1.00  0.00     0.150 C 
HETATM   10  N   UNL     1      27.078  49.237  39.837  1.00  0.00    -0.378 N 
HETATM   11  C   UNL     1      27.311  49.905  41.133  1.00  0.00     0.150 C 
HETATM   12  C   UNL     1      28.422  50.970  41.000  1.00  0.00     0.254 C 
HETATM   13  H   UNL     1      27.183  52.436  40.177  1.00  0.00     0.280 HD
BRANCH  10  14
HETATM   14  C   UNL     1      27.804  48.071  39.585  1.00  0.00     0.030 A 
HETATM   15  C   UNL     1      28.690  47.927  38.506  1.00  0.00     0.029 A 
HETATM   16  C   UNL     1      29.397  46.738  38.285  1.00  0.00     0.002 A 
HETATM   17  C   UNL     1      29.221  45.649  39.131  1.00  0.00     0.000 A 
HETATM   18  C   UNL     1      28.328  45.748  40.188  1.00  0.00     0.002 A 
HETATM   19  C   UNL     1      27.629  46.941  40.405  1.00  0.00     0.029 A 
ENDBRANCH  10  14
ENDBRANCH   6   7
ENDBRANCH   5   6
ENDBRANCH   1   5
BRANCH   2  20
HETATM   20  N   UNL     1      33.323  52.361  39.238  1.00  0.00    -0.274 N 
HETATM   21  H   UNL     1      33.449  52.735  38.300  1.00  0.00     0.189 HD
BRANCH  20  22
HETATM   22  C   UNL     1      34.337  51.519  39.618  1.00  0.00     0.191 C 
HETATM   23  S   UNL     1      35.956  51.945  39.683  1.00  0.00    -0.039 SA
BRANCH  22  24
HETATM   24  N   UNL     1      33.996  50.289  40.111  1.00  0.00    -0.331 N 
HETATM   25  H   UNL     1      34.766  49.634  39.991  1.00  0.00     0.168 HD
BRANCH  24  26
HETATM   26  C   UNL     1      32.989  49.874  41.019  1.00  0.00     0.056 A 
HETATM   27  C   UNL     1      32.817  50.278  42.355  1.00  0.00     0.060 A 
HETATM   28 CL   UNL     1      33.710  51.563  43.095  1.00  0.00    -0.082 Cl
HETATM   29  C   UNL     1      31.796  49.722  43.141  1.00  0.00     0.026 A 
HETATM   30  C   UNL     1      30.914  48.790  42.601  1.00  0.00     0.002 A 
HETATM   31  C   UNL     1      31.031  48.431  41.264  1.00  0.00     0.002 A 
HETATM   32  C   UNL     1      32.049  48.979  40.478  1.00  0.00     0.031 A 
ENDBRANCH  24  26
ENDBRANCH  22  24
ENDBRANCH  20  22
ENDBRANCH   2  20
TORSDOF 8
ENDMDL
MODEL 6
REMARK VINA RESULT:      -8.2      3.371     10.422
REMARK  8 active torsions:
REMARK  status: ('A' for Active; 'I' for Inactive)
REMARK    1  A    between atoms: C_4  and  N_5 
REMARK    2  A    between atoms: N_8  and  C_10 
REMARK    3  A    between atoms: C_10  and  C_11 
REMARK    4  A    between atoms: C_11  and  C_12 
REMARK       I    between atoms: C_12  and  N_13 
REMARK    5  A    between atoms: N_13  and  N_14 
REMARK    6  A    between atoms: N_14  and  C_15 
REMARK    7  A    between atoms: C_15  and  N_16 
REMARK    8  A    between atoms: N_16  and  C_17 
ROOT
HETATM    1  C   UNL     1      25.960  45.795  52.940  1.00  0.00     0.237 C 
HETATM    2  N   UNL     1      26.418  44.765  53.721  1.00  0.00    -0.268 N 
HETATM    3  O   UNL     1      25.532  46.833  53.436  1.00  0.00    -0.272 OA
HETATM    4  H   UNL     1      26.197  44.796  54.719  1.00  0.00     0.190 HD
ENDROOT
BRANCH   1   5
HETATM    5  C   UNL     1      26.087  45.656  51.442  1.00  0.00     0.132 C 
BRANCH   5   6
HETATM    6  C   UNL     1      24.723  45.323  50.868  1.00  0.00     0.244 C 
BRANCH   6   7
HETATM    7  N   UNL     1      24.333  46.268  49.747  1.00  0.00    -0.068 N 
HETATM    8  C   UNL     1      22.916  45.943  49.239  1.00  0.00     0.254 C 
HETATM    9  C   UNL     1      22.508  46.889  48.091  1.00  0.00     0.150 C 
HETATM   10  N   UNL     1      22.667  48.302  48.477  1.00  0.00    -0.378 N 
HETATM   11  C   UNL     1      24.028  48.645  48.933  1.00  0.00     0.150 C 
HETATM   12  C   UNL     1      24.440  47.753  50.125  1.00  0.00     0.254 C 
HETATM   13  H   UNL     1      24.971  46.106  48.956  1.00  0.00     0.280 HD
BRANCH  10  14
HETATM   14  C   UNL     1      21.609  49.018  49.040  1.00  0.00     0.030 A 
HETATM   15  C   UNL     1      21.727  50.336  49.506  1.00  0.00     0.029 A 
HETATM   16  C   UNL     1      20.640  51.020  50.069  1.00  0.00     0.002 A 
HETATM   17  C   UNL     1      19.407  50.393  50.198  1.00  0.00     0.000 A 
HETATM   18  C   UNL     1      19.265  49.079  49.775  1.00  0.00     0.002 A 
HETATM   19  C   UNL     1      20.354  48.405  49.210  1.00  0.00     0.029 A 
ENDBRANCH  10  14
ENDBRANCH   6   7
ENDBRANCH   5   6
ENDBRANCH   1   5
BRANCH   2  20
HETATM   20  N   UNL     1      26.822  43.535  53.180  1.00  0.00    -0.274 N 
HETATM   21  H   UNL     1      26.553  43.410  52.207  1.00  0.00     0.189 HD
BRANCH  20  22
HETATM   22  C   UNL     1      28.062  43.020  53.463  1.00  0.00     0.191 C 
HETATM   23  S   UNL     1      28.498  41.417  53.253  1.00  0.00    -0.039 SA
BRANCH  22  24
HETATM   24  N   UNL     1      29.054  43.896  53.810  1.00  0.00    -0.331 N 
HETATM   25  H   UNL     1      29.124  44.642  53.121  1.00  0.00     0.168 HD
BRANCH  24  26
HETATM   26  C   UNL     1      29.710  44.149  55.042  1.00  0.00     0.056 A 
HETATM   27  C   UNL     1      29.612  45.297  55.848  1.00  0.00     0.060 A 
HETATM   28 CL   UNL     1      28.467  46.567  55.580  1.00  0.00    -0.082 Cl
HETATM   29  C   UNL     1      30.381  45.414  57.016  1.00  0.00     0.026 A 
HETATM   30  C   UNL     1      31.224  44.380  57.415  1.00  0.00     0.002 A 
HETATM   31  C   UNL     1      31.281  43.213  56.664  1.00  0.00     0.002 A 
HETATM   32  C   UNL     1      30.521  43.094  55.497  1.00  0.00     0.031 A 
ENDBRANCH  24  26
ENDBRANCH  22  24
ENDBRANCH  20  22
ENDBRANCH   2  20
TORSDOF 8
ENDMDL
MODEL 7
REMARK VINA RESULT:      -8.0      1.915      2.538
REMARK  8 active torsions:
REMARK  status: ('A' for Active; 'I' for Inactive)
REMARK    1  A    between atoms: C_4  and  N_5 
REMARK    2  A    between atoms: N_8  and  C_10 
REMARK    3  A    between atoms: C_10  and  C_11 
REMARK    4  A    between atoms: C_11  and  C_12 
REMARK       I    between atoms: C_12  and  N_13 
REMARK    5  A    between atoms: N_13  and  N_14 
REMARK    6  A    between atoms: N_14  and  C_15 
REMARK    7  A    between atoms: C_15  and  N_16 
REMARK    8  A    between atoms: N_16  and  C_17 
ROOT
HETATM    1  C   UNL     1      22.183  44.653  48.945  1.00  0.00     0.237 C 
HETATM    2  N   UNL     1      21.019  45.377  48.964  1.00  0.00    -0.268 N 
HETATM    3  O   UNL     1      22.173  43.426  48.914  1.00  0.00    -0.272 OA
HETATM    4  H   UNL     1      20.153  44.873  49.167  1.00  0.00     0.190 HD
ENDROOT
BRANCH   1   5
HETATM    5  C   UNL     1      23.486  45.412  48.863  1.00  0.00     0.132 C 
BRANCH   5   6
HETATM    6  C   UNL     1      24.585  44.551  49.455  1.00  0.00     0.244 C 
BRANCH   6   7
HETATM    7  N   UNL     1      24.940  44.976  50.868  1.00  0.00    -0.068 N 
HETATM    8  C   UNL     1      24.954  43.758  51.809  1.00  0.00     0.254 C 
HETATM    9  C   UNL     1      25.303  44.175  53.252  1.00  0.00     0.150 C 
HETATM   10  N   UNL     1      26.555  44.948  53.300  1.00  0.00    -0.378 N 
HETATM   11  C   UNL     1      26.552  46.143  52.433  1.00  0.00     0.150 C 
HETATM   12  C   UNL     1      26.266  45.746  50.968  1.00  0.00     0.254 C 
HETATM   13  H   UNL     1      24.197  45.601  51.210  1.00  0.00     0.280 HD
BRANCH  10  14
HETATM   14  C   UNL     1      27.784  44.317  53.506  1.00  0.00     0.030 A 
HETATM   15  C   UNL     1      28.514  44.413  54.701  1.00  0.00     0.029 A 
HETATM   16  C   UNL     1      29.747  43.766  54.867  1.00  0.00     0.002 A 
HETATM   17  C   UNL     1      30.292  43.019  53.830  1.00  0.00     0.000 A 
HETATM   18  C   UNL     1      29.610  42.929  52.625  1.00  0.00     0.002 A 
HETATM   19  C   UNL     1      28.378  43.575  52.469  1.00  0.00     0.029 A 
ENDBRANCH  10  14
ENDBRANCH   6   7
ENDBRANCH   5   6
ENDBRANCH   1   5
BRANCH   2  20
HETATM   20  N   UNL     1      21.006  46.774  49.094  1.00  0.00    -0.274 N 
HETATM   21  H   UNL     1      21.925  47.176  49.265  1.00  0.00     0.189 HD
BRANCH  20  22
HETATM   22  C   UNL     1      20.230  47.547  48.268  1.00  0.00     0.191 C 
HETATM   23  S   UNL     1      18.901  46.990  47.414  1.00  0.00    -0.039 SA
BRANCH  22  24
HETATM   24  N   UNL     1      20.469  48.894  48.241  1.00  0.00    -0.331 N 
HETATM   25  H   UNL     1      21.165  49.115  47.532  1.00  0.00     0.168 HD
BRANCH  24  26
HETATM   26  C   UNL     1      19.722  50.001  48.719  1.00  0.00     0.056 A 
HETATM   27  C   UNL     1      18.775  50.014  49.759  1.00  0.00     0.060 A 
HETATM   28 CL   UNL     1      18.494  48.679  50.823  1.00  0.00    -0.082 Cl
HETATM   29  C   UNL     1      18.077  51.192  50.069  1.00  0.00     0.026 A 
HETATM   30  C   UNL     1      18.336  52.373  49.379  1.00  0.00     0.002 A 
HETATM   31  C   UNL     1      19.316  52.390  48.395  1.00  0.00     0.002 A 
HETATM   32  C   UNL     1      20.012  51.219  48.079  1.00  0.00     0.031 A 
ENDBRANCH  24  26
ENDBRANCH  22  24
ENDBRANCH  20  22
ENDBRANCH   2  20
TORSDOF 8
ENDMDL
MODEL 8
REMARK VINA RESULT:      -7.9      2.116      2.661
REMARK  8 active torsions:
REMARK  status: ('A' for Active; 'I' for Inactive)
REMARK    1  A    between atoms: C_4  and  N_5 
REMARK    2  A    between atoms: N_8  and  C_10 
REMARK    3  A    between atoms: C_10  and  C_11 
REMARK    4  A    between atoms: C_11  and  C_12 
REMARK       I    between atoms: C_12  and  N_13 
REMARK    5  A    between atoms: N_13  and  N_14 
REMARK    6  A    between atoms: N_14  and  C_15 
REMARK    7  A    between atoms: C_15  and  N_16 
REMARK    8  A    between atoms: N_16  and  C_17 
ROOT
HETATM    1  C   UNL     1      22.964  44.472  49.592  1.00  0.00     0.237 C 
HETATM    2  N   UNL     1      21.636  44.606  49.277  1.00  0.00    -0.268 N 
HETATM    3  O   UNL     1      23.475  43.368  49.756  1.00  0.00    -0.272 OA
HETATM    4  H   UNL     1      21.039  43.784  49.393  1.00  0.00     0.190 HD
ENDROOT
BRANCH   1   5
HETATM    5  C   UNL     1      23.810  45.722  49.636  1.00  0.00     0.132 C 
BRANCH   5   6
HETATM    6  C   UNL     1      25.144  45.382  50.272  1.00  0.00     0.244 C 
BRANCH   6   7
HETATM    7  N   UNL     1      25.108  45.538  51.781  1.00  0.00    -0.068 N 
HETATM    8  C   UNL     1      25.391  44.190  52.468  1.00  0.00     0.254 C 
HETATM    9  C   UNL     1      25.349  44.328  54.004  1.00  0.00     0.150 C 
HETATM   10  N   UNL     1      26.238  45.406  54.471  1.00  0.00    -0.378 N 
HETATM   11  C   UNL     1      25.961  46.718  53.852  1.00  0.00     0.150 C 
HETATM   12  C   UNL     1      26.058  46.621  52.314  1.00  0.00     0.254 C 
HETATM   13  H   UNL     1      24.152  45.809  52.053  1.00  0.00     0.280 HD
BRANCH  10  14
HETATM   14  C   UNL     1      27.561  45.142  54.833  1.00  0.00     0.030 A 
HETATM   15  C   UNL     1      28.254  43.984  54.446  1.00  0.00     0.029 A 
HETATM   16  C   UNL     1      29.581  43.754  54.834  1.00  0.00     0.002 A 
HETATM   17  C   UNL     1      30.246  44.671  55.639  1.00  0.00     0.000 A 
HETATM   18  C   UNL     1      29.579  45.811  56.064  1.00  0.00     0.002 A 
HETATM   19  C   UNL     1      28.255  46.035  55.668  1.00  0.00     0.029 A 
ENDBRANCH  10  14
ENDBRANCH   6   7
ENDBRANCH   5   6
ENDBRANCH   1   5
BRANCH   2  20
HETATM   20  N   UNL     1      21.011  45.858  49.178  1.00  0.00    -0.274 N 
HETATM   21  H   UNL     1      21.496  46.596  49.683  1.00  0.00     0.189 HD
BRANCH  20  22
HETATM   22  C   UNL     1      20.483  46.284  47.986  1.00  0.00     0.191 C 
HETATM   23  S   UNL     1      20.027  45.273  46.730  1.00  0.00    -0.039 SA
BRANCH  22  24
HETATM   24  N   UNL     1      20.177  47.612  47.859  1.00  0.00    -0.331 N 
HETATM   25  H   UNL     1      19.198  47.726  47.609  1.00  0.00     0.168 HD
BRANCH  24  26
HETATM   26  C   UNL     1      20.820  48.784  48.331  1.00  0.00     0.056 A 
HETATM   27  C   UNL     1      20.411  49.626  49.381  1.00  0.00     0.060 A 
HETATM   28 CL   UNL     1      19.115  49.252  50.466  1.00  0.00    -0.082 Cl
HETATM   29  C   UNL     1      21.136  50.789  49.684  1.00  0.00     0.026 A 
HETATM   30  C   UNL     1      22.291  51.109  48.976  1.00  0.00     0.002 A 
HETATM   31  C   UNL     1      22.744  50.253  47.981  1.00  0.00     0.002 A 
HETATM   32  C   UNL     1      22.023  49.095  47.672  1.00  0.00     0.031 A 
ENDBRANCH  24  26
ENDBRANCH  22  24
ENDBRANCH  20  22
ENDBRANCH   2  20
TORSDOF 8
ENDMDL
MODEL 9
REMARK VINA RESULT:      -7.9      2.048      2.497
REMARK  8 active torsions:
REMARK  status: ('A' for Active; 'I' for Inactive)
REMARK    1  A    between atoms: C_4  and  N_5 
REMARK    2  A    between atoms: N_8  and  C_10 
REMARK    3  A    between atoms: C_10  and  C_11 
REMARK    4  A    between atoms: C_11  and  C_12 
REMARK       I    between atoms: C_12  and  N_13 
REMARK    5  A    between atoms: N_13  and  N_14 
REMARK    6  A    between atoms: N_14  and  C_15 
REMARK    7  A    between atoms: C_15  and  N_16 
REMARK    8  A    between atoms: N_16  and  C_17 
ROOT
HETATM    1  C   UNL     1      24.157  48.099  49.639  1.00  0.00     0.237 C 
HETATM    2  N   UNL     1      23.044  48.900  49.627  1.00  0.00    -0.268 N 
HETATM    3  O   UNL     1      25.288  48.574  49.677  1.00  0.00    -0.272 OA
HETATM    4  H   UNL     1      23.182  49.894  49.435  1.00  0.00     0.190 HD
ENDROOT
BRANCH   1   5
HETATM    5  C   UNL     1      23.951  46.604  49.703  1.00  0.00     0.132 C 
BRANCH   5   6
HETATM    6  C   UNL     1      25.282  45.921  49.454  1.00  0.00     0.244 C 
BRANCH   6   7
HETATM    7  N   UNL     1      25.606  44.900  50.530  1.00  0.00    -0.068 N 
HETATM    8  C   UNL     1      27.124  44.653  50.597  1.00  0.00     0.254 C 
HETATM    9  C   UNL     1      27.469  43.610  51.679  1.00  0.00     0.150 C 
HETATM   10  N   UNL     1      26.891  43.976  52.983  1.00  0.00    -0.378 N 
HETATM   11  C   UNL     1      25.429  44.183  52.951  1.00  0.00     0.150 C 
HETATM   12  C   UNL     1      25.060  45.270  51.917  1.00  0.00     0.254 C 
HETATM   13  H   UNL     1      25.176  44.004  50.260  1.00  0.00     0.280 HD
BRANCH  10  14
HETATM   14  C   UNL     1      27.618  44.731  53.907  1.00  0.00     0.030 A 
HETATM   15  C   UNL     1      27.306  46.057  54.241  1.00  0.00     0.029 A 
HETATM   16  C   UNL     1      28.064  46.782  55.171  1.00  0.00     0.002 A 
HETATM   17  C   UNL     1      29.171  46.202  55.779  1.00  0.00     0.000 A 
HETATM   18  C   UNL     1      29.524  44.901  55.447  1.00  0.00     0.002 A 
HETATM   19  C   UNL     1      28.759  44.183  54.521  1.00  0.00     0.029 A 
ENDBRANCH  10  14
ENDBRANCH   6   7
ENDBRANCH   5   6
ENDBRANCH   1   5
BRANCH   2  20
HETATM   20  N   UNL     1      21.748  48.381  49.488  1.00  0.00    -0.274 N 
HETATM   21  H   UNL     1      21.522  47.661  50.170  1.00  0.00     0.189 HD
BRANCH  20  22
HETATM   22  C   UNL     1      20.689  49.210  49.215  1.00  0.00     0.191 C 
HETATM   23  S   UNL     1      20.439  50.703  49.932  1.00  0.00    -0.039 SA
BRANCH  22  24
HETATM   24  N   UNL     1      19.851  48.861  48.191  1.00  0.00    -0.331 N 
HETATM   25  H   UNL     1      20.329  48.245  47.538  1.00  0.00     0.168 HD
BRANCH  24  26
HETATM   26  C   UNL     1      18.438  48.894  48.067  1.00  0.00     0.056 A 
HETATM   27  C   UNL     1      17.649  49.905  47.490  1.00  0.00     0.060 A 
HETATM   28 CL   UNL     1      18.295  51.245  46.606  1.00  0.00    -0.082 Cl
HETATM   29  C   UNL     1      16.249  49.808  47.502  1.00  0.00     0.026 A 
HETATM   30  C   UNL     1      15.621  48.693  48.050  1.00  0.00     0.002 A 
HETATM   31  C   UNL     1      16.389  47.656  48.562  1.00  0.00     0.002 A 
HETATM   32  C   UNL     1      17.784  47.750  48.557  1.00  0.00     0.031 A 
ENDBRANCH  24  26
ENDBRANCH  22  24
ENDBRANCH  20  22
ENDBRANCH   2  20
TORSDOF 8
ENDMDL
MODEL 10
REMARK VINA RESULT:      -7.8      2.388      2.994
REMARK  8 active torsions:
REMARK  status: ('A' for Active; 'I' for Inactive)
REMARK    1  A    between atoms: C_4  and  N_5 
REMARK    2  A    between atoms: N_8  and  C_10 
REMARK    3  A    between atoms: C_10  and  C_11 
REMARK    4  A    between atoms: C_11  and  C_12 
REMARK       I    between atoms: C_12  and  N_13 
REMARK    5  A    between atoms: N_13  and  N_14 
REMARK    6  A    between atoms: N_14  and  C_15 
REMARK    7  A    between atoms: C_15  and  N_16 
REMARK    8  A    between atoms: N_16  and  C_17 
ROOT
HETATM    1  C   UNL     1      24.359  49.312  48.931  1.00  0.00     0.237 C 
HETATM    2  N   UNL     1      23.413  50.285  49.131  1.00  0.00    -0.268 N 
HETATM    3  O   UNL     1      25.369  49.529  48.268  1.00  0.00    -0.272 OA
HETATM    4  H   UNL     1      23.464  51.119  48.543  1.00  0.00     0.190 HD
ENDROOT
BRANCH   1   5
HETATM    5  C   UNL     1      24.171  47.988  49.633  1.00  0.00     0.132 C 
BRANCH   5   6
HETATM    6  C   UNL     1      25.499  47.565  50.231  1.00  0.00     0.244 C 
BRANCH   6   7
HETATM    7  N   UNL     1      25.324  46.522  51.319  1.00  0.00    -0.068 N 
HETATM    8  C   UNL     1      25.719  45.129  50.796  1.00  0.00     0.254 C 
HETATM    9  C   UNL     1      25.537  44.054  51.888  1.00  0.00     0.150 C 
HETATM   10  N   UNL     1      26.243  44.421  53.127  1.00  0.00    -0.378 N 
HETATM   11  C   UNL     1      25.853  45.739  53.667  1.00  0.00     0.150 C 
HETATM   12  C   UNL     1      26.085  46.844  52.614  1.00  0.00     0.254 C 
HETATM   13  H   UNL     1      24.323  46.471  51.556  1.00  0.00     0.280 HD
BRANCH  10  14
HETATM   14  C   UNL     1      27.556  44.003  53.359  1.00  0.00     0.030 A 
HETATM   15  C   UNL     1      28.286  43.209  52.461  1.00  0.00     0.029 A 
HETATM   16  C   UNL     1      29.601  42.807  52.733  1.00  0.00     0.002 A 
HETATM   17  C   UNL     1      30.216  43.175  53.924  1.00  0.00     0.000 A 
HETATM   18  C   UNL     1      29.510  43.934  54.846  1.00  0.00     0.002 A 
HETATM   19  C   UNL     1      28.199  44.335  54.565  1.00  0.00     0.029 A 
ENDBRANCH  10  14
ENDBRANCH   6   7
ENDBRANCH   5   6
ENDBRANCH   1   5
BRANCH   2  20
HETATM   20  N   UNL     1      22.208  50.032  49.804  1.00  0.00    -0.274 N 
HETATM   21  H   UNL     1      22.162  50.454  50.729  1.00  0.00     0.189 HD
BRANCH  20  22
HETATM   22  C   UNL     1      21.011  50.077  49.136  1.00  0.00     0.191 C 
HETATM   23  S   UNL     1      20.165  51.480  48.790  1.00  0.00    -0.039 SA
BRANCH  22  24
HETATM   24  N   UNL     1      20.538  48.914  48.591  1.00  0.00    -0.331 N 
HETATM   25  H   UNL     1      21.282  48.221  48.538  1.00  0.00     0.168 HD
BRANCH  24  26
HETATM   26  C   UNL     1      19.224  48.402  48.438  1.00  0.00     0.056 A 
HETATM   27  C   UNL     1      18.309  48.065  49.451  1.00  0.00     0.060 A 
HETATM   28 CL   UNL     1      18.549  48.428  51.125  1.00  0.00    -0.082 Cl
HETATM   29  C   UNL     1      17.062  47.510  49.126  1.00  0.00     0.026 A 
HETATM   30  C   UNL     1      16.695  47.318  47.797  1.00  0.00     0.002 A 
HETATM   31  C   UNL     1      17.563  47.707  46.784  1.00  0.00     0.002 A 
HETATM   32  C   UNL     1      18.808  48.257  47.102  1.00  0.00     0.031 A 
ENDBRANCH  24  26
ENDBRANCH  22  24
ENDBRANCH  20  22
ENDBRANCH   2  20
TORSDOF 8
ENDMDL
