MODEL 1
REMARK VINA RESULT:      -8.7      0.000      0.000
REMARK  8 active torsions:
REMARK  status: ('A' for Active; 'I' for Inactive)
REMARK    1  A    between atoms: C_4  and  C_5 
REMARK    2  A    between atoms: C_11  and  C_12 
REMARK    3  A    between atoms: C_12  and  C_13 
REMARK       I    between atoms: C_13  and  N_14 
REMARK    4  A    between atoms: N_14  and  C_15 
REMARK    5  A    between atoms: C_20  and  C_21 
REMARK       I    between atoms: C_21  and  N_22 
REMARK    6  A    between atoms: N_22  and  C_23 
REMARK    7  A    between atoms: C_23  and  C_24 
REMARK    8  A    between atoms: C_24  and  O_25 
ROOT
HETATM    1  C   UNL     1      25.103  46.671  51.877  1.00  0.00     0.228 C 
HETATM    2  N   UNL     1      24.711  46.779  50.554  1.00  0.00    -0.325 N 
HETATM    3  O   UNL     1      25.354  47.605  52.636  1.00  0.00    -0.273 OA
HETATM    4  H   UNL     1      24.539  45.900  50.062  1.00  0.00     0.169 HD
ENDROOT
BRANCH   2   5
HETATM    5  C   UNL     1      24.560  47.947  49.772  1.00  0.00     0.057 A 
HETATM    6  C   UNL     1      25.709  48.514  49.188  1.00  0.00     0.060 A 
HETATM    7 CL   UNL     1      27.273  47.809  49.420  1.00  0.00    -0.082 Cl
HETATM    8  C   UNL     1      25.617  49.660  48.398  1.00  0.00     0.027 A 
HETATM    9  C   UNL     1      24.375  50.256  48.182  1.00  0.00     0.019 A 
HETATM   10  C   UNL     1      23.216  49.714  48.759  1.00  0.00     0.034 A 
HETATM   11  C   UNL     1      23.322  48.566  49.559  1.00  0.00     0.048 A 
BRANCH  10  12
HETATM   12  C   UNL     1      21.919  50.416  48.505  1.00  0.00     0.251 C 
HETATM   13  N   UNL     1      21.225  50.895  49.596  1.00  0.00    -0.355 N 
HETATM   14  H   UNL     1      21.455  50.577  50.529  1.00  0.00     0.162 HD
HETATM   15  O   UNL     1      21.504  50.535  47.356  1.00  0.00    -0.268 OA
BRANCH  13  16
HETATM   16  C   UNL     1      19.902  51.481  49.458  1.00  0.00     0.149 C 
BRANCH  16  17
HETATM   17  C   UNL     1      18.807  50.431  49.643  1.00  0.00     0.186 C 
BRANCH  17  18
HETATM   18  O   UNL     1      17.736  51.018  50.395  1.00  0.00    -0.394 OA
HETATM   19  C   UNL     1      17.159  52.120  49.708  1.00  0.00     0.201 C 
ENDBRANCH  17  18
ENDBRANCH  16  17
ENDBRANCH  13  16
ENDBRANCH  10  12
ENDBRANCH   2   5
BRANCH   1  20
HETATM   20  C   UNL     1      25.130  45.236  52.381  1.00  0.00     0.165 C 
BRANCH  20  21
HETATM   21  C   UNL     1      26.521  44.755  52.559  1.00  0.00     0.075 A 
HETATM   22  C   UNL     1      27.360  44.120  51.671  1.00  0.00     0.077 A 
HETATM   23  C   UNL     1      27.262  43.691  50.266  1.00  0.00     0.079 C 
HETATM   24  O   UNL     1      28.528  43.850  52.322  1.00  0.00    -0.292 OA
HETATM   25  C   UNL     1      28.347  44.333  53.597  1.00  0.00     0.204 A 
HETATM   26  N   UNL     1      27.157  44.890  53.778  1.00  0.00    -0.224 NA
BRANCH  25  27
HETATM   27  C   UNL     1      29.338  44.222  54.627  1.00  0.00     0.128 A 
HETATM   28  O   UNL     1      29.563  45.204  55.561  1.00  0.00    -0.318 OA
HETATM   29  C   UNL     1      30.569  44.786  56.368  1.00  0.00     0.142 A 
HETATM   30  C   UNL     1      31.008  43.543  55.985  1.00  0.00     0.027 A 
HETATM   31  C   UNL     1      30.219  43.178  54.869  1.00  0.00     0.043 A 
ENDBRANCH  25  27
ENDBRANCH  20  21
ENDBRANCH   1  20
TORSDOF 8
ENDMDL
MODEL 2
REMARK VINA RESULT:      -8.5      2.441     10.263
REMARK  8 active torsions:
REMARK  status: ('A' for Active; 'I' for Inactive)
REMARK    1  A    between atoms: C_4  and  C_5 
REMARK    2  A    between atoms: C_11  and  C_12 
REMARK    3  A    between atoms: C_12  and  C_13 
REMARK       I    between atoms: C_13  and  N_14 
REMARK    4  A    between atoms: N_14  and  C_15 
REMARK    5  A    between atoms: C_20  and  C_21 
REMARK       I    between atoms: C_21  and  N_22 
REMARK    6  A    between atoms: N_22  and  C_23 
REMARK    7  A    between atoms: C_23  and  C_24 
REMARK    8  A    between atoms: C_24  and  O_25 
ROOT
HETATM    1  C   UNL     1      24.892  44.605  50.745  1.00  0.00     0.228 C 
HETATM    2  N   UNL     1      26.123  43.982  50.638  1.00  0.00    -0.325 N 
HETATM    3  O   UNL     1      24.262  44.789  51.785  1.00  0.00    -0.273 OA
HETATM    4  H   UNL     1      26.512  43.911  49.695  1.00  0.00     0.169 HD
ENDROOT
BRANCH   2   5
HETATM    5  C   UNL     1      26.901  43.385  51.657  1.00  0.00     0.057 A 
HETATM    6  C   UNL     1      26.971  41.980  51.709  1.00  0.00     0.060 A 
HETATM    7 CL   UNL     1      26.124  40.998  50.561  1.00  0.00    -0.082 Cl
HETATM    8  C   UNL     1      27.731  41.337  52.686  1.00  0.00     0.027 A 
HETATM    9  C   UNL     1      28.432  42.092  53.626  1.00  0.00     0.019 A 
HETATM   10  C   UNL     1      28.373  43.493  53.600  1.00  0.00     0.034 A 
HETATM   11  C   UNL     1      27.598  44.129  52.618  1.00  0.00     0.048 A 
BRANCH  10  12
HETATM   12  C   UNL     1      29.131  44.242  54.651  1.00  0.00     0.251 C 
HETATM   13  N   UNL     1      30.436  43.867  54.891  1.00  0.00    -0.355 N 
HETATM   14  H   UNL     1      30.784  42.980  54.550  1.00  0.00     0.162 HD
HETATM   15  O   UNL     1      28.580  45.145  55.274  1.00  0.00    -0.268 OA
BRANCH  13  16
HETATM   16  C   UNL     1      31.209  44.453  55.972  1.00  0.00     0.149 C 
BRANCH  16  17
HETATM   17  C   UNL     1      31.472  43.437  57.083  1.00  0.00     0.186 C 
BRANCH  17  18
HETATM   18  O   UNL     1      31.631  44.144  58.320  1.00  0.00    -0.394 OA
HETATM   19  C   UNL     1      30.770  45.272  58.390  1.00  0.00     0.201 C 
ENDBRANCH  17  18
ENDBRANCH  16  17
ENDBRANCH  13  16
ENDBRANCH  10  12
ENDBRANCH   2   5
BRANCH   1  20
HETATM   20  C   UNL     1      24.374  45.145  49.421  1.00  0.00     0.165 C 
BRANCH  20  21
HETATM   21  C   UNL     1      24.180  46.615  49.480  1.00  0.00     0.075 A 
HETATM   22  C   UNL     1      25.048  47.608  49.873  1.00  0.00     0.077 A 
HETATM   23  C   UNL     1      26.440  47.651  50.352  1.00  0.00     0.079 C 
HETATM   24  O   UNL     1      24.388  48.799  49.779  1.00  0.00    -0.292 OA
HETATM   25  C   UNL     1      23.128  48.474  49.333  1.00  0.00     0.204 A 
HETATM   26  N   UNL     1      22.965  47.173  49.135  1.00  0.00    -0.224 NA
BRANCH  25  27
HETATM   27  C   UNL     1      22.094  49.446  49.127  1.00  0.00     0.128 A 
HETATM   28  O   UNL     1      20.771  49.204  49.405  1.00  0.00    -0.318 OA
HETATM   29  C   UNL     1      20.069  50.319  49.083  1.00  0.00     0.142 A 
HETATM   30  C   UNL     1      20.907  51.294  48.601  1.00  0.00     0.027 A 
HETATM   31  C   UNL     1      22.208  50.736  48.629  1.00  0.00     0.043 A 
ENDBRANCH  25  27
ENDBRANCH  20  21
ENDBRANCH   1  20
TORSDOF 8
ENDMDL
MODEL 3
REMARK VINA RESULT:      -8.2      1.682      1.960
REMARK  8 active torsions:
REMARK  status: ('A' for Active; 'I' for Inactive)
REMARK    1  A    between atoms: C_4  and  C_5 
REMARK    2  A    between atoms: C_11  and  C_12 
REMARK    3  A    between atoms: C_12  and  C_13 
REMARK       I    between atoms: C_13  and  N_14 
REMARK    4  A    between atoms: N_14  and  C_15 
REMARK    5  A    between atoms: C_20  and  C_21 
REMARK       I    between atoms: C_21  and  N_22 
REMARK    6  A    between atoms: N_22  and  C_23 
REMARK    7  A    between atoms: C_23  and  C_24 
REMARK    8  A    between atoms: C_24  and  O_25 
ROOT
HETATM    1  C   UNL     1      23.975  45.345  49.755  1.00  0.00     0.228 C 
HETATM    2  N   UNL     1      24.070  46.611  50.305  1.00  0.00    -0.325 N 
HETATM    3  O   UNL     1      23.836  45.084  48.561  1.00  0.00    -0.273 OA
HETATM    4  H   UNL     1      24.185  46.653  51.320  1.00  0.00     0.169 HD
ENDROOT
BRANCH   2   5
HETATM    5  C   UNL     1      23.984  47.864  49.657  1.00  0.00     0.057 A 
HETATM    6  C   UNL     1      25.175  48.477  49.222  1.00  0.00     0.060 A 
HETATM    7 CL   UNL     1      26.714  47.724  49.476  1.00  0.00    -0.082 Cl
HETATM    8  C   UNL     1      25.148  49.708  48.568  1.00  0.00     0.027 A 
HETATM    9  C   UNL     1      23.928  50.345  48.340  1.00  0.00     0.019 A 
HETATM   10  C   UNL     1      22.728  49.759  48.769  1.00  0.00     0.034 A 
HETATM   11  C   UNL     1      22.769  48.524  49.435  1.00  0.00     0.048 A 
BRANCH  10  12
HETATM   12  C   UNL     1      21.457  50.507  48.513  1.00  0.00     0.251 C 
HETATM   13  N   UNL     1      20.798  51.042  49.598  1.00  0.00    -0.355 N 
HETATM   14  H   UNL     1      21.027  50.740  50.536  1.00  0.00     0.162 HD
HETATM   15  O   UNL     1      21.032  50.612  47.366  1.00  0.00    -0.268 OA
BRANCH  13  16
HETATM   16  C   UNL     1      19.499  51.679  49.461  1.00  0.00     0.149 C 
BRANCH  16  17
HETATM   17  C   UNL     1      18.364  50.693  49.741  1.00  0.00     0.186 C 
BRANCH  17  18
HETATM   18  O   UNL     1      18.705  49.924  50.902  1.00  0.00    -0.394 OA
HETATM   19  C   UNL     1      18.481  48.537  50.693  1.00  0.00     0.201 C 
ENDBRANCH  17  18
ENDBRANCH  16  17
ENDBRANCH  13  16
ENDBRANCH  10  12
ENDBRANCH   2   5
BRANCH   1  20
HETATM   20  C   UNL     1      24.138  44.230  50.776  1.00  0.00     0.165 C 
BRANCH  20  21
HETATM   21  C   UNL     1      25.473  44.282  51.419  1.00  0.00     0.075 A 
HETATM   22  C   UNL     1      26.644  43.639  51.085  1.00  0.00     0.077 A 
HETATM   23  C   UNL     1      27.058  42.711  50.020  1.00  0.00     0.079 C 
HETATM   24  O   UNL     1      27.588  43.988  52.006  1.00  0.00    -0.292 OA
HETATM   25  C   UNL     1      26.942  44.833  52.878  1.00  0.00     0.204 A 
HETATM   26  N   UNL     1      25.673  45.040  52.556  1.00  0.00    -0.224 NA
BRANCH  25  27
HETATM   27  C   UNL     1      27.577  45.409  54.027  1.00  0.00     0.128 A 
HETATM   28  O   UNL     1      27.116  46.545  54.648  1.00  0.00    -0.318 OA
HETATM   29  C   UNL     1      27.950  46.820  55.681  1.00  0.00     0.142 A 
HETATM   30  C   UNL     1      28.951  45.883  55.755  1.00  0.00     0.027 A 
HETATM   31  C   UNL     1      28.712  44.976  54.695  1.00  0.00     0.043 A 
ENDBRANCH  25  27
ENDBRANCH  20  21
ENDBRANCH   1  20
TORSDOF 8
ENDMDL
MODEL 4
REMARK VINA RESULT:      -8.0      2.781      4.449
REMARK  8 active torsions:
REMARK  status: ('A' for Active; 'I' for Inactive)
REMARK    1  A    between atoms: C_4  and  C_5 
REMARK    2  A    between atoms: C_11  and  C_12 
REMARK    3  A    between atoms: C_12  and  C_13 
REMARK       I    between atoms: C_13  and  N_14 
REMARK    4  A    between atoms: N_14  and  C_15 
REMARK    5  A    between atoms: C_20  and  C_21 
REMARK       I    between atoms: C_21  and  N_22 
REMARK    6  A    between atoms: N_22  and  C_23 
REMARK    7  A    between atoms: C_23  and  C_24 
REMARK    8  A    between atoms: C_24  and  O_25 
ROOT
HETATM    1  C   UNL     1      25.761  44.296  53.656  1.00  0.00     0.228 C 
HETATM    2  N   UNL     1      26.110  44.770  52.403  1.00  0.00    -0.325 N 
HETATM    3  O   UNL     1      24.617  44.117  54.068  1.00  0.00    -0.273 OA
HETATM    4  H   UNL     1      27.111  44.859  52.218  1.00  0.00     0.169 HD
ENDROOT
BRANCH   2   5
HETATM    5  C   UNL     1      25.264  45.194  51.353  1.00  0.00     0.057 A 
HETATM    6  C   UNL     1      24.612  44.214  50.580  1.00  0.00     0.060 A 
HETATM    7 CL   UNL     1      24.839  42.527  50.898  1.00  0.00    -0.082 Cl
HETATM    8  C   UNL     1      23.758  44.575  49.538  1.00  0.00     0.027 A 
HETATM    9  C   UNL     1      23.546  45.924  49.253  1.00  0.00     0.019 A 
HETATM   10  C   UNL     1      24.188  46.920  50.004  1.00  0.00     0.034 A 
HETATM   11  C   UNL     1      25.052  46.544  51.044  1.00  0.00     0.048 A 
BRANCH  10  12
HETATM   12  C   UNL     1      23.933  48.347  49.630  1.00  0.00     0.251 C 
HETATM   13  N   UNL     1      22.624  48.777  49.597  1.00  0.00    -0.355 N 
HETATM   14  H   UNL     1      21.865  48.107  49.586  1.00  0.00     0.162 HD
HETATM   15  O   UNL     1      24.876  49.083  49.354  1.00  0.00    -0.268 OA
BRANCH  13  16
HETATM   16  C   UNL     1      22.272  50.107  49.130  1.00  0.00     0.149 C 
BRANCH  16  17
HETATM   17  C   UNL     1      21.674  50.951  50.255  1.00  0.00     0.186 C 
BRANCH  17  18
HETATM   18  O   UNL     1      20.292  50.598  50.405  1.00  0.00    -0.394 OA
HETATM   19  C   UNL     1      19.445  51.492  49.697  1.00  0.00     0.201 C 
ENDBRANCH  17  18
ENDBRANCH  16  17
ENDBRANCH  13  16
ENDBRANCH  10  12
ENDBRANCH   2   5
BRANCH   1  20
HETATM   20  C   UNL     1      26.960  43.918  54.511  1.00  0.00     0.165 C 
BRANCH  20  21
HETATM   21  C   UNL     1      27.880  43.014  53.779  1.00  0.00     0.075 A 
HETATM   22  C   UNL     1      29.234  42.819  53.927  1.00  0.00     0.077 A 
HETATM   23  C   UNL     1      30.277  43.359  54.815  1.00  0.00     0.079 C 
HETATM   24  O   UNL     1      29.627  41.906  52.992  1.00  0.00    -0.292 OA
HETATM   25  C   UNL     1      28.482  41.585  52.302  1.00  0.00     0.204 A 
HETATM   26  N   UNL     1      27.410  42.225  52.748  1.00  0.00    -0.224 NA
BRANCH  25  27
HETATM   27  C   UNL     1      28.461  40.670  51.199  1.00  0.00     0.128 A 
HETATM   28  O   UNL     1      29.037  39.423  51.247  1.00  0.00    -0.318 OA
HETATM   29  C   UNL     1      28.848  38.832  50.041  1.00  0.00     0.142 A 
HETATM   30  C   UNL     1      28.154  39.666  49.199  1.00  0.00     0.027 A 
HETATM   31  C   UNL     1      27.904  40.846  49.941  1.00  0.00     0.043 A 
ENDBRANCH  25  27
ENDBRANCH  20  21
ENDBRANCH   1  20
TORSDOF 8
ENDMDL
MODEL 5
REMARK VINA RESULT:      -7.8      5.077      8.455
REMARK  8 active torsions:
REMARK  status: ('A' for Active; 'I' for Inactive)
REMARK    1  A    between atoms: C_4  and  C_5 
REMARK    2  A    between atoms: C_11  and  C_12 
REMARK    3  A    between atoms: C_12  and  C_13 
REMARK       I    between atoms: C_13  and  N_14 
REMARK    4  A    between atoms: N_14  and  C_15 
REMARK    5  A    between atoms: C_20  and  C_21 
REMARK       I    between atoms: C_21  and  N_22 
REMARK    6  A    between atoms: N_22  and  C_23 
REMARK    7  A    between atoms: C_23  and  C_24 
REMARK    8  A    between atoms: C_24  and  O_25 
ROOT
HETATM    1  C   UNL     1      25.294  45.510  52.528  1.00  0.00     0.228 C 
HETATM    2  N   UNL     1      25.777  45.210  51.266  1.00  0.00    -0.325 N 
HETATM    3  O   UNL     1      24.600  44.778  53.230  1.00  0.00    -0.273 OA
HETATM    4  H   UNL     1      26.343  45.932  50.816  1.00  0.00     0.169 HD
ENDROOT
BRANCH   2   5
HETATM    5  C   UNL     1      25.554  44.049  50.489  1.00  0.00     0.057 A 
HETATM    6  C   UNL     1      24.690  44.140  49.382  1.00  0.00     0.060 A 
HETATM    7 CL   UNL     1      23.909  45.632  48.975  1.00  0.00    -0.082 Cl
HETATM    8  C   UNL     1      24.442  43.030  48.575  1.00  0.00     0.027 A 
HETATM    9  C   UNL     1      25.054  41.811  48.866  1.00  0.00     0.019 A 
HETATM   10  C   UNL     1      25.915  41.692  49.968  1.00  0.00     0.034 A 
HETATM   11  C   UNL     1      26.149  42.814  50.778  1.00  0.00     0.048 A 
BRANCH  10  12
HETATM   12  C   UNL     1      26.521  40.351  50.237  1.00  0.00     0.251 C 
HETATM   13  N   UNL     1      27.758  40.085  49.691  1.00  0.00    -0.355 N 
HETATM   14  H   UNL     1      28.127  40.668  48.950  1.00  0.00     0.162 HD
HETATM   15  O   UNL     1      25.909  39.529  50.913  1.00  0.00    -0.268 OA
BRANCH  13  16
HETATM   16  C   UNL     1      28.370  38.772  49.796  1.00  0.00     0.149 C 
BRANCH  16  17
HETATM   17  C   UNL     1      29.701  38.715  49.046  1.00  0.00     0.186 C 
BRANCH  17  18
HETATM   18  O   UNL     1      30.614  37.907  49.800  1.00  0.00    -0.394 OA
HETATM   19  C   UNL     1      30.047  37.490  51.034  1.00  0.00     0.201 C 
ENDBRANCH  17  18
ENDBRANCH  16  17
ENDBRANCH  13  16
ENDBRANCH  10  12
ENDBRANCH   2   5
BRANCH   1  20
HETATM   20  C   UNL     1      25.770  46.857  53.049  1.00  0.00     0.165 C 
BRANCH  20  21
HETATM   21  C   UNL     1      26.749  46.692  54.150  1.00  0.00     0.075 A 
HETATM   22  C   UNL     1      26.988  47.483  55.251  1.00  0.00     0.077 A 
HETATM   23  C   UNL     1      26.410  48.726  55.788  1.00  0.00     0.079 C 
HETATM   24  O   UNL     1      28.016  46.923  55.951  1.00  0.00    -0.292 OA
HETATM   25  C   UNL     1      28.370  45.804  55.234  1.00  0.00     0.204 A 
HETATM   26  N   UNL     1      27.629  45.627  54.148  1.00  0.00    -0.224 NA
BRANCH  25  27
HETATM   27  C   UNL     1      29.445  44.936  55.614  1.00  0.00     0.128 A 
HETATM   28  O   UNL     1      30.244  45.165  56.708  1.00  0.00    -0.318 OA
HETATM   29  C   UNL     1      31.161  44.168  56.768  1.00  0.00     0.142 A 
HETATM   30  C   UNL     1      30.979  43.283  55.733  1.00  0.00     0.027 A 
HETATM   31  C   UNL     1      29.877  43.774  54.992  1.00  0.00     0.043 A 
ENDBRANCH  25  27
ENDBRANCH  20  21
ENDBRANCH   1  20
TORSDOF 8
ENDMDL
MODEL 6
REMARK VINA RESULT:      -7.8      2.225      2.805
REMARK  8 active torsions:
REMARK  status: ('A' for Active; 'I' for Inactive)
REMARK    1  A    between atoms: C_4  and  C_5 
REMARK    2  A    between atoms: C_11  and  C_12 
REMARK    3  A    between atoms: C_12  and  C_13 
REMARK       I    between atoms: C_13  and  N_14 
REMARK    4  A    between atoms: N_14  and  C_15 
REMARK    5  A    between atoms: C_20  and  C_21 
REMARK       I    between atoms: C_21  and  N_22 
REMARK    6  A    between atoms: N_22  and  C_23 
REMARK    7  A    between atoms: C_23  and  C_24 
REMARK    8  A    between atoms: C_24  and  O_25 
ROOT
HETATM    1  C   UNL     1      26.596  44.573  49.957  1.00  0.00     0.228 C 
HETATM    2  N   UNL     1      25.221  44.440  49.875  1.00  0.00    -0.325 N 
HETATM    3  O   UNL     1      27.259  45.512  49.522  1.00  0.00    -0.273 OA
HETATM    4  H   UNL     1      24.824  43.595  50.291  1.00  0.00     0.169 HD
ENDROOT
BRANCH   2   5
HETATM    5  C   UNL     1      24.287  45.298  49.249  1.00  0.00     0.057 A 
HETATM    6  C   UNL     1      23.493  44.779  48.209  1.00  0.00     0.060 A 
HETATM    7 CL   UNL     1      23.651  43.132  47.698  1.00  0.00    -0.082 Cl
HETATM    8  C   UNL     1      22.549  45.578  47.563  1.00  0.00     0.027 A 
HETATM    9  C   UNL     1      22.388  46.909  47.948  1.00  0.00     0.019 A 
HETATM   10  C   UNL     1      23.172  47.452  48.977  1.00  0.00     0.034 A 
HETATM   11  C   UNL     1      24.124  46.641  49.613  1.00  0.00     0.048 A 
BRANCH  10  12
HETATM   12  C   UNL     1      22.963  48.892  49.325  1.00  0.00     0.251 C 
HETATM   13  N   UNL     1      21.677  49.306  49.599  1.00  0.00    -0.355 N 
HETATM   14  H   UNL     1      20.887  48.728  49.343  1.00  0.00     0.162 HD
HETATM   15  O   UNL     1      23.921  49.661  49.344  1.00  0.00    -0.268 OA
BRANCH  13  16
HETATM   16  C   UNL     1      21.361  50.706  49.828  1.00  0.00     0.149 C 
BRANCH  16  17
HETATM   17  C   UNL     1      20.691  51.332  48.605  1.00  0.00     0.186 C 
BRANCH  17  18
HETATM   18  O   UNL     1      19.593  52.139  49.050  1.00  0.00    -0.394 OA
HETATM   19  C   UNL     1      18.624  52.314  48.025  1.00  0.00     0.201 C 
ENDBRANCH  17  18
ENDBRANCH  16  17
ENDBRANCH  13  16
ENDBRANCH  10  12
ENDBRANCH   2   5
BRANCH   1  20
HETATM   20  C   UNL     1      27.263  43.449  50.734  1.00  0.00     0.165 C 
BRANCH  20  21
HETATM   21  C   UNL     1      27.429  43.808  52.163  1.00  0.00     0.075 A 
HETATM   22  C   UNL     1      26.518  44.316  53.062  1.00  0.00     0.077 A 
HETATM   23  C   UNL     1      25.092  44.678  53.011  1.00  0.00     0.079 C 
HETATM   24  O   UNL     1      27.166  44.510  54.247  1.00  0.00    -0.292 OA
HETATM   25  C   UNL     1      28.462  44.114  54.015  1.00  0.00     0.204 A 
HETATM   26  N   UNL     1      28.660  43.679  52.778  1.00  0.00    -0.224 NA
BRANCH  25  27
HETATM   27  C   UNL     1      29.494  44.186  55.007  1.00  0.00     0.128 A 
HETATM   28  O   UNL     1      29.570  45.193  55.939  1.00  0.00    -0.318 OA
HETATM   29  C   UNL     1      30.665  44.966  56.706  1.00  0.00     0.142 A 
HETATM   30  C   UNL     1      31.310  43.824  56.300  1.00  0.00     0.027 A 
HETATM   31  C   UNL     1      30.559  43.321  55.210  1.00  0.00     0.043 A 
ENDBRANCH  25  27
ENDBRANCH  20  21
ENDBRANCH   1  20
TORSDOF 8
ENDMDL
MODEL 7
REMARK VINA RESULT:      -7.7     11.364     13.304
REMARK  8 active torsions:
REMARK  status: ('A' for Active; 'I' for Inactive)
REMARK    1  A    between atoms: C_4  and  C_5 
REMARK    2  A    between atoms: C_11  and  C_12 
REMARK    3  A    between atoms: C_12  and  C_13 
REMARK       I    between atoms: C_13  and  N_14 
REMARK    4  A    between atoms: N_14  and  C_15 
REMARK    5  A    between atoms: C_20  and  C_21 
REMARK       I    between atoms: C_21  and  N_22 
REMARK    6  A    between atoms: N_22  and  C_23 
REMARK    7  A    between atoms: C_23  and  C_24 
REMARK    8  A    between atoms: C_24  and  O_25 
ROOT
HETATM    1  C   UNL     1      30.418  49.556  42.063  1.00  0.00     0.228 C 
HETATM    2  N   UNL     1      30.663  50.402  40.996  1.00  0.00    -0.325 N 
HETATM    3  O   UNL     1      29.322  49.103  42.391  1.00  0.00    -0.273 OA
HETATM    4  H   UNL     1      31.635  50.687  40.861  1.00  0.00     0.169 HD
ENDROOT
BRANCH   2   5
HETATM    5  C   UNL     1      29.738  50.969  40.089  1.00  0.00     0.057 A 
HETATM    6  C   UNL     1      29.908  52.315  39.714  1.00  0.00     0.060 A 
HETATM    7 CL   UNL     1      31.211  53.264  40.346  1.00  0.00    -0.082 Cl
HETATM    8  C   UNL     1      29.031  52.923  38.815  1.00  0.00     0.027 A 
HETATM    9  C   UNL     1      27.971  52.192  38.280  1.00  0.00     0.019 A 
HETATM   10  C   UNL     1      27.776  50.851  38.643  1.00  0.00     0.034 A 
HETATM   11  C   UNL     1      28.659  50.253  39.555  1.00  0.00     0.048 A 
BRANCH  10  12
HETATM   12  C   UNL     1      26.606  50.132  38.049  1.00  0.00     0.251 C 
HETATM   13  N   UNL     1      25.344  50.526  38.440  1.00  0.00    -0.355 N 
HETATM   14  H   UNL     1      25.220  51.102  39.262  1.00  0.00     0.162 HD
HETATM   15  O   UNL     1      26.793  49.216  37.253  1.00  0.00    -0.268 OA
BRANCH  13  16
HETATM   16  C   UNL     1      24.156  49.809  38.010  1.00  0.00     0.149 C 
BRANCH  16  17
HETATM   17  C   UNL     1      23.043  49.901  39.053  1.00  0.00     0.186 C 
BRANCH  17  18
HETATM   18  O   UNL     1      22.108  50.905  38.635  1.00  0.00    -0.394 OA
HETATM   19  C   UNL     1      21.120  51.144  39.628  1.00  0.00     0.201 C 
ENDBRANCH  17  18
ENDBRANCH  16  17
ENDBRANCH  13  16
ENDBRANCH  10  12
ENDBRANCH   2   5
BRANCH   1  20
HETATM   20  C   UNL     1      31.679  49.139  42.802  1.00  0.00     0.165 C 
BRANCH  20  21
HETATM   21  C   UNL     1      32.766  50.130  42.613  1.00  0.00     0.075 A 
HETATM   22  C   UNL     1      33.086  51.246  43.352  1.00  0.00     0.077 A 
HETATM   23  C   UNL     1      32.549  51.886  44.565  1.00  0.00     0.079 C 
HETATM   24  O   UNL     1      34.152  51.851  42.752  1.00  0.00    -0.292 OA
HETATM   25  C   UNL     1      34.435  51.071  41.655  1.00  0.00     0.204 A 
HETATM   26  N   UNL     1      33.629  50.024  41.540  1.00  0.00    -0.224 NA
BRANCH  25  27
HETATM   27  C   UNL     1      35.480  51.377  40.723  1.00  0.00     0.128 A 
HETATM   28  O   UNL     1      36.810  51.397  41.068  1.00  0.00    -0.318 OA
HETATM   29  C   UNL     1      37.520  51.734  39.962  1.00  0.00     0.142 A 
HETATM   30  C   UNL     1      36.681  51.933  38.893  1.00  0.00     0.027 A 
HETATM   31  C   UNL     1      35.372  51.702  39.379  1.00  0.00     0.043 A 
ENDBRANCH  25  27
ENDBRANCH  20  21
ENDBRANCH   1  20
TORSDOF 8
ENDMDL
MODEL 8
REMARK VINA RESULT:      -7.7      2.572      3.067
REMARK  8 active torsions:
REMARK  status: ('A' for Active; 'I' for Inactive)
REMARK    1  A    between atoms: C_4  and  C_5 
REMARK    2  A    between atoms: C_11  and  C_12 
REMARK    3  A    between atoms: C_12  and  C_13 
REMARK       I    between atoms: C_13  and  N_14 
REMARK    4  A    between atoms: N_14  and  C_15 
REMARK    5  A    between atoms: C_20  and  C_21 
REMARK       I    between atoms: C_21  and  N_22 
REMARK    6  A    between atoms: N_22  and  C_23 
REMARK    7  A    between atoms: C_23  and  C_24 
REMARK    8  A    between atoms: C_24  and  O_25 
ROOT
HETATM    1  C   UNL     1      24.180  43.001  50.026  1.00  0.00     0.228 C 
HETATM    2  N   UNL     1      24.906  43.983  49.375  1.00  0.00    -0.325 N 
HETATM    3  O   UNL     1      23.175  43.180  50.712  1.00  0.00    -0.273 OA
HETATM    4  H   UNL     1      25.719  43.665  48.843  1.00  0.00     0.169 HD
ENDROOT
BRANCH   2   5
HETATM    5  C   UNL     1      24.705  45.383  49.385  1.00  0.00     0.057 A 
HETATM    6  C   UNL     1      25.759  46.208  49.818  1.00  0.00     0.060 A 
HETATM    7 CL   UNL     1      27.270  45.536  50.334  1.00  0.00    -0.082 Cl
HETATM    8  C   UNL     1      25.619  47.596  49.839  1.00  0.00     0.027 A 
HETATM    9  C   UNL     1      24.420  48.177  49.428  1.00  0.00     0.019 A 
HETATM   10  C   UNL     1      23.351  47.377  48.998  1.00  0.00     0.034 A 
HETATM   11  C   UNL     1      23.501  45.981  48.990  1.00  0.00     0.048 A 
BRANCH  10  12
HETATM   12  C   UNL     1      22.086  48.064  48.591  1.00  0.00     0.251 C 
HETATM   13  N   UNL     1      21.300  48.603  49.587  1.00  0.00    -0.355 N 
HETATM   14  H   UNL     1      21.444  48.338  50.553  1.00  0.00     0.162 HD
HETATM   15  O   UNL     1      21.775  48.119  47.404  1.00  0.00    -0.268 OA
BRANCH  13  16
HETATM   16  C   UNL     1      19.998  49.181  49.300  1.00  0.00     0.149 C 
BRANCH  16  17
HETATM   17  C   UNL     1      19.636  50.268  50.312  1.00  0.00     0.186 C 
BRANCH  17  18
HETATM   18  O   UNL     1      18.211  50.289  50.468  1.00  0.00    -0.394 OA
HETATM   19  C   UNL     1      17.549  50.302  49.211  1.00  0.00     0.201 C 
ENDBRANCH  17  18
ENDBRANCH  16  17
ENDBRANCH  13  16
ENDBRANCH  10  12
ENDBRANCH   2   5
BRANCH   1  20
HETATM   20  C   UNL     1      24.693  41.596  49.757  1.00  0.00     0.165 C 
BRANCH  20  21
HETATM   21  C   UNL     1      25.988  41.357  50.439  1.00  0.00     0.075 A 
HETATM   22  C   UNL     1      26.851  40.287  50.354  1.00  0.00     0.077 A 
HETATM   23  C   UNL     1      26.877  39.024  49.597  1.00  0.00     0.079 C 
HETATM   24  O   UNL     1      27.893  40.524  51.202  1.00  0.00    -0.292 OA
HETATM   25  C   UNL     1      27.613  41.740  51.781  1.00  0.00     0.204 A 
HETATM   26  N   UNL     1      26.481  42.276  51.344  1.00  0.00    -0.224 NA
BRANCH  25  27
HETATM   27  C   UNL     1      28.452  42.349  52.771  1.00  0.00     0.128 A 
HETATM   28  O   UNL     1      27.967  43.157  53.771  1.00  0.00    -0.318 OA
HETATM   29  C   UNL     1      29.021  43.573  54.516  1.00  0.00     0.142 A 
HETATM   30  C   UNL     1      30.193  43.051  54.026  1.00  0.00     0.027 A 
HETATM   31  C   UNL     1      29.829  42.264  52.907  1.00  0.00     0.043 A 
ENDBRANCH  25  27
ENDBRANCH  20  21
ENDBRANCH   1  20
TORSDOF 8
ENDMDL
MODEL 9
REMARK VINA RESULT:      -7.6      2.764      3.386
REMARK  8 active torsions:
REMARK  status: ('A' for Active; 'I' for Inactive)
REMARK    1  A    between atoms: C_4  and  C_5 
REMARK    2  A    between atoms: C_11  and  C_12 
REMARK    3  A    between atoms: C_12  and  C_13 
REMARK       I    between atoms: C_13  and  N_14 
REMARK    4  A    between atoms: N_14  and  C_15 
REMARK    5  A    between atoms: C_20  and  C_21 
REMARK       I    between atoms: C_21  and  N_22 
REMARK    6  A    between atoms: N_22  and  C_23 
REMARK    7  A    between atoms: C_23  and  C_24 
REMARK    8  A    between atoms: C_24  and  O_25 
ROOT
HETATM    1  C   UNL     1      24.570  43.136  50.501  1.00  0.00     0.228 C 
HETATM    2  N   UNL     1      24.865  44.137  49.592  1.00  0.00    -0.325 N 
HETATM    3  O   UNL     1      23.460  42.890  50.972  1.00  0.00    -0.273 OA
HETATM    4  H   UNL     1      25.842  44.206  49.299  1.00  0.00     0.169 HD
ENDROOT
BRANCH   2   5
HETATM    5  C   UNL     1      24.001  45.113  49.043  1.00  0.00     0.057 A 
HETATM    6  C   UNL     1      23.137  44.732  47.999  1.00  0.00     0.060 A 
HETATM    7 CL   UNL     1      23.127  43.111  47.391  1.00  0.00    -0.082 Cl
HETATM    8  C   UNL     1      22.258  45.652  47.428  1.00  0.00     0.027 A 
HETATM    9  C   UNL     1      22.232  46.966  47.892  1.00  0.00     0.019 A 
HETATM   10  C   UNL     1      23.088  47.373  48.926  1.00  0.00     0.034 A 
HETATM   11  C   UNL     1      23.975  46.441  49.487  1.00  0.00     0.048 A 
BRANCH  10  12
HETATM   12  C   UNL     1      23.024  48.803  49.361  1.00  0.00     0.251 C 
HETATM   13  N   UNL     1      21.780  49.346  49.600  1.00  0.00    -0.355 N 
HETATM   14  H   UNL     1      20.946  48.881  49.267  1.00  0.00     0.162 HD
HETATM   15  O   UNL     1      24.060  49.452  49.479  1.00  0.00    -0.268 OA
BRANCH  13  16
HETATM   16  C   UNL     1      21.612  50.756  49.908  1.00  0.00     0.149 C 
BRANCH  16  17
HETATM   17  C   UNL     1      20.416  51.350  49.165  1.00  0.00     0.186 C 
BRANCH  17  18
HETATM   18  O   UNL     1      19.380  51.627  50.117  1.00  0.00    -0.394 OA
HETATM   19  C   UNL     1      18.192  52.077  49.480  1.00  0.00     0.201 C 
ENDBRANCH  17  18
ENDBRANCH  16  17
ENDBRANCH  13  16
ENDBRANCH  10  12
ENDBRANCH   2   5
BRANCH   1  20
HETATM   20  C   UNL     1      25.766  42.262  50.843  1.00  0.00     0.165 C 
BRANCH  20  21
HETATM   21  C   UNL     1      26.627  42.904  51.865  1.00  0.00     0.075 A 
HETATM   22  C   UNL     1      27.732  42.418  52.526  1.00  0.00     0.077 A 
HETATM   23  C   UNL     1      28.496  41.159  52.497  1.00  0.00     0.079 C 
HETATM   24  O   UNL     1      28.154  43.380  53.396  1.00  0.00    -0.292 OA
HETATM   25  C   UNL     1      27.272  44.422  53.232  1.00  0.00     0.204 A 
HETATM   26  N   UNL     1      26.344  44.178  52.317  1.00  0.00    -0.224 NA
BRANCH  25  27
HETATM   27  C   UNL     1      27.341  45.636  53.992  1.00  0.00     0.128 A 
HETATM   28  O   UNL     1      28.386  45.937  54.832  1.00  0.00    -0.318 OA
HETATM   29  C   UNL     1      28.128  47.141  55.398  1.00  0.00     0.142 A 
HETATM   30  C   UNL     1      26.932  47.642  54.944  1.00  0.00     0.027 A 
HETATM   31  C   UNL     1      26.426  46.677  54.040  1.00  0.00     0.043 A 
ENDBRANCH  25  27
ENDBRANCH  20  21
ENDBRANCH   1  20
TORSDOF 8
ENDMDL
MODEL 10
REMARK VINA RESULT:      -7.6      5.411      7.043
REMARK  8 active torsions:
REMARK  status: ('A' for Active; 'I' for Inactive)
REMARK    1  A    between atoms: C_4  and  C_5 
REMARK    2  A    between atoms: C_11  and  C_12 
REMARK    3  A    between atoms: C_12  and  C_13 
REMARK       I    between atoms: C_13  and  N_14 
REMARK    4  A    between atoms: N_14  and  C_15 
REMARK    5  A    between atoms: C_20  and  C_21 
REMARK       I    between atoms: C_21  and  N_22 
REMARK    6  A    between atoms: N_22  and  C_23 
REMARK    7  A    between atoms: C_23  and  C_24 
REMARK    8  A    between atoms: C_24  and  O_25 
ROOT
HETATM    1  C   UNL     1      26.462  44.526  52.508  1.00  0.00     0.228 C 
HETATM    2  N   UNL     1      26.423  43.149  52.636  1.00  0.00    -0.325 N 
HETATM    3  O   UNL     1      26.777  45.150  51.496  1.00  0.00    -0.273 OA
HETATM    4  H   UNL     1      26.136  42.789  53.549  1.00  0.00     0.169 HD
ENDROOT
BRANCH   2   5
HETATM    5  C   UNL     1      26.772  42.164  51.684  1.00  0.00     0.057 A 
HETATM    6  C   UNL     1      27.954  41.426  51.887  1.00  0.00     0.060 A 
HETATM    7 CL   UNL     1      28.964  41.713  53.264  1.00  0.00    -0.082 Cl
HETATM    8  C   UNL     1      28.341  40.435  50.985  1.00  0.00     0.027 A 
HETATM    9  C   UNL     1      27.553  40.169  49.866  1.00  0.00     0.019 A 
HETATM   10  C   UNL     1      26.374  40.895  49.637  1.00  0.00     0.034 A 
HETATM   11  C   UNL     1      25.999  41.896  50.547  1.00  0.00     0.048 A 
BRANCH  10  12
HETATM   12  C   UNL     1      25.587  40.575  48.406  1.00  0.00     0.251 C 
HETATM   13  N   UNL     1      24.767  41.558  47.895  1.00  0.00    -0.355 N 
HETATM   14  H   UNL     1      24.524  42.364  48.455  1.00  0.00     0.162 HD
HETATM   15  O   UNL     1      25.677  39.461  47.897  1.00  0.00    -0.268 OA
BRANCH  13  16
HETATM   16  C   UNL     1      23.876  41.300  46.776  1.00  0.00     0.149 C 
BRANCH  16  17
HETATM   17  C   UNL     1      22.420  41.577  47.149  1.00  0.00     0.186 C 
BRANCH  17  18
HETATM   18  O   UNL     1      22.397  42.543  48.209  1.00  0.00    -0.394 OA
HETATM   19  C   UNL     1      21.987  43.821  47.742  1.00  0.00     0.201 C 
ENDBRANCH  17  18
ENDBRANCH  16  17
ENDBRANCH  13  16
ENDBRANCH  10  12
ENDBRANCH   2   5
BRANCH   1  20
HETATM   20  C   UNL     1      25.988  45.260  53.752  1.00  0.00     0.165 C 
BRANCH  20  21
HETATM   21  C   UNL     1      27.126  45.613  54.635  1.00  0.00     0.075 A 
HETATM   22  C   UNL     1      27.507  46.833  55.146  1.00  0.00     0.077 A 
HETATM   23  C   UNL     1      26.985  48.208  55.066  1.00  0.00     0.079 C 
HETATM   24  O   UNL     1      28.643  46.642  55.877  1.00  0.00    -0.292 OA
HETATM   25  C   UNL     1      28.914  45.298  55.773  1.00  0.00     0.204 A 
HETATM   26  N   UNL     1      28.022  44.643  55.041  1.00  0.00    -0.224 NA
BRANCH  25  27
HETATM   27  C   UNL     1      30.056  44.678  56.377  1.00  0.00     0.128 A 
HETATM   28  O   UNL     1      30.556  45.056  57.600  1.00  0.00    -0.318 OA
HETATM   29  C   UNL     1      31.637  44.282  57.863  1.00  0.00     0.142 A 
HETATM   30  C   UNL     1      31.858  43.397  56.837  1.00  0.00     0.027 A 
HETATM   31  C   UNL     1      30.843  43.649  55.883  1.00  0.00     0.043 A 
ENDBRANCH  25  27
ENDBRANCH  20  21
ENDBRANCH   1  20
TORSDOF 8
ENDMDL
