MODEL 1
REMARK VINA RESULT:      -8.0      0.000      0.000
REMARK  5 active torsions:
REMARK  status: ('A' for Active; 'I' for Inactive)
REMARK    1  A    between atoms: C_5  and  C_6 
REMARK    2  A    between atoms: N_9  and  C_11 
REMARK    3  A    between atoms: C_11  and  C_12 
REMARK    4  A    between atoms: C_13  and  N_14 
REMARK    5  A    between atoms: N_14  and  C_15 
ROOT
HETATM    1  C   UNL     1      28.096  47.791  41.050  1.00  0.00    -0.006 A 
HETATM    2  C   UNL     1      29.328  47.386  40.487  1.00  0.00     0.038 A 
HETATM    3  C   UNL     1      29.363  46.176  39.766  1.00  0.00     0.030 A 
HETATM    4  C   UNL     1      28.225  45.384  39.605  1.00  0.00     0.002 A 
HETATM    5  C   UNL     1      27.015  45.796  40.137  1.00  0.00     0.001 A 
HETATM    6  C   UNL     1      26.947  46.994  40.843  1.00  0.00     0.011 A 
ENDROOT
BRANCH   1   7
HETATM    7  C   UNL     1      27.935  49.082  41.812  1.00  0.00     0.275 C 
BRANCH   7   8
HETATM    8  N   UNL     1      27.721  50.316  40.933  1.00  0.00    -0.067 N 
HETATM    9  C   UNL     1      28.666  51.416  41.354  1.00  0.00     0.236 C 
HETATM   10  C   UNL     1      28.432  52.663  40.512  1.00  0.00     0.037 C 
HETATM   11  C   UNL     1      28.629  52.381  39.013  1.00  0.00     0.025 C 
HETATM   12  C   UNL     1      27.649  51.270  38.617  1.00  0.00     0.037 C 
HETATM   13  C   UNL     1      27.815  50.006  39.454  1.00  0.00     0.236 C 
HETATM   14  H   UNL     1      26.760  50.621  41.114  1.00  0.00     0.280 HD
BRANCH  11  15
HETATM   15  C   UNL     1      30.064  52.080  38.674  1.00  0.00    -0.018 A 
HETATM   16  C   UNL     1      30.556  51.510  37.471  1.00  0.00     0.147 A 
HETATM   17  N   UNL     1      31.885  51.442  37.440  1.00  0.00    -0.185 NA
HETATM   18  N   UNL     1      32.261  51.847  38.661  1.00  0.00    -0.285 N 
HETATM   19  C   UNL     1      33.662  51.854  39.012  1.00  0.00     0.179 C 
HETATM   20  C   UNL     1      31.207  52.247  39.436  1.00  0.00     0.120 A 
ENDBRANCH  11  15
ENDBRANCH   7   8
ENDBRANCH   1   7
BRANCH   2  21
HETATM   21  N   UNL     1      30.465  48.228  40.548  1.00  0.00    -0.380 N 
HETATM   22  C   UNL     1      31.012  48.495  39.209  1.00  0.00     0.150 C 
BRANCH  21  23
HETATM   23  C   UNL     1      31.368  48.037  41.710  1.00  0.00     0.087 C 
HETATM   24  C   UNL     1      31.125  49.092  42.803  1.00  0.00     0.053 C 
HETATM   25  C   UNL     1      31.998  50.336  42.706  1.00  0.00     0.236 C 
HETATM   26  N   UNL     1      33.440  49.945  42.561  1.00  0.00    -0.075 N 
HETATM   27  H   UNL     1      33.712  49.379  43.378  1.00  0.00     0.279 HD
HETATM   28  C   UNL     1      34.352  51.150  42.602  1.00  0.00     0.269 C 
HETATM   29  C   UNL     1      33.668  49.126  41.318  1.00  0.00     0.236 C 
HETATM   30  C   UNL     1      32.855  47.846  41.394  1.00  0.00     0.053 C 
ENDBRANCH  21  23
ENDBRANCH   2  21
TORSDOF 5
ENDMDL
MODEL 2
REMARK VINA RESULT:      -7.8     11.972     13.931
REMARK  5 active torsions:
REMARK  status: ('A' for Active; 'I' for Inactive)
REMARK    1  A    between atoms: C_5  and  C_6 
REMARK    2  A    between atoms: N_9  and  C_11 
REMARK    3  A    between atoms: C_11  and  C_12 
REMARK    4  A    between atoms: C_13  and  N_14 
REMARK    5  A    between atoms: N_14  and  C_15 
ROOT
HETATM    1  C   UNL     1      26.941  42.518  52.275  1.00  0.00    -0.006 A 
HETATM    2  C   UNL     1      27.811  42.391  53.382  1.00  0.00     0.038 A 
HETATM    3  C   UNL     1      28.797  41.384  53.340  1.00  0.00     0.030 A 
HETATM    4  C   UNL     1      28.923  40.525  52.248  1.00  0.00     0.002 A 
HETATM    5  C   UNL     1      28.084  40.669  51.155  1.00  0.00     0.001 A 
HETATM    6  C   UNL     1      27.110  41.663  51.163  1.00  0.00     0.011 A 
ENDROOT
BRANCH   1   7
HETATM    7  C   UNL     1      25.872  43.578  52.199  1.00  0.00     0.275 C 
BRANCH   7   8
HETATM    8  N   UNL     1      26.352  44.925  51.651  1.00  0.00    -0.067 N 
HETATM    9  C   UNL     1      26.253  44.930  50.144  1.00  0.00     0.236 C 
HETATM   10  C   UNL     1      26.768  46.250  49.587  1.00  0.00     0.037 C 
HETATM   11  C   UNL     1      25.981  47.447  50.145  1.00  0.00     0.025 C 
HETATM   12  C   UNL     1      26.113  47.418  51.672  1.00  0.00     0.037 C 
HETATM   13  C   UNL     1      25.642  46.102  52.282  1.00  0.00     0.236 C 
HETATM   14  H   UNL     1      27.340  44.994  51.915  1.00  0.00     0.280 HD
BRANCH  11  15
HETATM   15  C   UNL     1      24.559  47.472  49.653  1.00  0.00    -0.018 A 
HETATM   16  C   UNL     1      23.819  46.384  49.122  1.00  0.00     0.147 A 
HETATM   17  N   UNL     1      22.556  46.704  48.850  1.00  0.00    -0.185 NA
HETATM   18  N   UNL     1      22.497  48.023  49.080  1.00  0.00    -0.285 N 
HETATM   19  C   UNL     1      21.266  48.737  48.836  1.00  0.00     0.179 C 
HETATM   20  C   UNL     1      23.670  48.529  49.571  1.00  0.00     0.120 A 
ENDBRANCH  11  15
ENDBRANCH   7   8
ENDBRANCH   1   7
BRANCH   2  21
HETATM   21  N   UNL     1      27.768  43.320  54.449  1.00  0.00    -0.380 N 
HETATM   22  C   UNL     1      26.402  43.487  54.967  1.00  0.00     0.150 C 
BRANCH  21  23
HETATM   23  C   UNL     1      28.687  44.482  54.354  1.00  0.00     0.087 C 
HETATM   24  C   UNL     1      30.122  44.114  54.771  1.00  0.00     0.053 C 
HETATM   25  C   UNL     1      30.448  44.353  56.240  1.00  0.00     0.236 C 
HETATM   26  N   UNL     1      30.047  45.744  56.637  1.00  0.00    -0.075 N 
HETATM   27  H   UNL     1      30.554  46.416  56.043  1.00  0.00     0.279 HD
HETATM   28  C   UNL     1      30.482  46.068  58.049  1.00  0.00     0.269 C 
HETATM   29  C   UNL     1      28.569  45.966  56.455  1.00  0.00     0.236 C 
HETATM   30  C   UNL     1      28.204  45.788  54.991  1.00  0.00     0.053 C 
ENDBRANCH  21  23
ENDBRANCH   2  21
TORSDOF 5
ENDMDL
MODEL 3
REMARK VINA RESULT:      -7.8     10.386     12.964
REMARK  5 active torsions:
REMARK  status: ('A' for Active; 'I' for Inactive)
REMARK    1  A    between atoms: C_5  and  C_6 
REMARK    2  A    between atoms: N_9  and  C_11 
REMARK    3  A    between atoms: C_11  and  C_12 
REMARK    4  A    between atoms: C_13  and  N_14 
REMARK    5  A    between atoms: N_14  and  C_15 
ROOT
HETATM    1  C   UNL     1      24.708  48.673  49.206  1.00  0.00    -0.006 A 
HETATM    2  C   UNL     1      25.661  47.904  49.914  1.00  0.00     0.038 A 
HETATM    3  C   UNL     1      27.023  48.228  49.759  1.00  0.00     0.030 A 
HETATM    4  C   UNL     1      27.440  49.273  48.932  1.00  0.00     0.002 A 
HETATM    5  C   UNL     1      26.502  50.039  48.260  1.00  0.00     0.001 A 
HETATM    6  C   UNL     1      25.149  49.750  48.404  1.00  0.00     0.011 A 
ENDROOT
BRANCH   1   7
HETATM    7  C   UNL     1      23.224  48.435  49.321  1.00  0.00     0.275 C 
BRANCH   7   8
HETATM    8  N   UNL     1      22.358  49.653  48.989  1.00  0.00    -0.067 N 
HETATM    9  C   UNL     1      21.675  49.449  47.657  1.00  0.00     0.236 C 
HETATM   10  C   UNL     1      20.846  50.674  47.298  1.00  0.00     0.037 C 
HETATM   11  C   UNL     1      19.781  50.971  48.366  1.00  0.00     0.025 C 
HETATM   12  C   UNL     1      20.507  51.184  49.699  1.00  0.00     0.037 C 
HETATM   13  C   UNL     1      21.383  49.999  50.093  1.00  0.00     0.236 C 
HETATM   14  H   UNL     1      23.009  50.440  48.907  1.00  0.00     0.280 HD
BRANCH  11  15
HETATM   15  C   UNL     1      18.711  49.912  48.414  1.00  0.00    -0.018 A 
HETATM   16  C   UNL     1      18.421  49.039  49.494  1.00  0.00     0.147 A 
HETATM   17  N   UNL     1      17.362  48.268  49.262  1.00  0.00    -0.185 NA
HETATM   18  N   UNL     1      17.034  48.539  47.991  1.00  0.00    -0.285 N 
HETATM   19  C   UNL     1      15.938  47.832  47.370  1.00  0.00     0.179 C 
HETATM   20  C   UNL     1      17.808  49.523  47.441  1.00  0.00     0.120 A 
ENDBRANCH  11  15
ENDBRANCH   7   8
ENDBRANCH   1   7
BRANCH   2  21
HETATM   21  N   UNL     1      25.251  46.913  50.838  1.00  0.00    -0.380 N 
HETATM   22  C   UNL     1      25.877  47.110  52.154  1.00  0.00     0.150 C 
BRANCH  21  23
HETATM   23  C   UNL     1      25.044  45.547  50.296  1.00  0.00     0.087 C 
HETATM   24  C   UNL     1      24.425  44.604  51.342  1.00  0.00     0.053 C 
HETATM   25  C   UNL     1      25.427  43.805  52.165  1.00  0.00     0.236 C 
HETATM   26  N   UNL     1      26.416  43.129  51.259  1.00  0.00    -0.075 N 
HETATM   27  H   UNL     1      25.903  42.508  50.617  1.00  0.00     0.279 HD
HETATM   28  C   UNL     1      27.342  42.214  52.028  1.00  0.00     0.269 C 
HETATM   29  C   UNL     1      27.188  44.128  50.440  1.00  0.00     0.236 C 
HETATM   30  C   UNL     1      26.232  44.916  49.563  1.00  0.00     0.053 C 
ENDBRANCH  21  23
ENDBRANCH   2  21
TORSDOF 5
ENDMDL
MODEL 4
REMARK VINA RESULT:      -7.5     11.639     14.494
REMARK  5 active torsions:
REMARK  status: ('A' for Active; 'I' for Inactive)
REMARK    1  A    between atoms: C_5  and  C_6 
REMARK    2  A    between atoms: N_9  and  C_11 
REMARK    3  A    between atoms: C_11  and  C_12 
REMARK    4  A    between atoms: C_13  and  N_14 
REMARK    5  A    between atoms: N_14  and  C_15 
ROOT
HETATM    1  C   UNL     1      27.682  42.077  52.388  1.00  0.00    -0.006 A 
HETATM    2  C   UNL     1      27.424  43.464  52.294  1.00  0.00     0.038 A 
HETATM    3  C   UNL     1      28.083  44.325  53.195  1.00  0.00     0.030 A 
HETATM    4  C   UNL     1      28.966  43.840  54.160  1.00  0.00     0.002 A 
HETATM    5  C   UNL     1      29.235  42.483  54.233  1.00  0.00     0.001 A 
HETATM    6  C   UNL     1      28.609  41.611  53.348  1.00  0.00     0.011 A 
ENDROOT
BRANCH   1   7
HETATM    7  C   UNL     1      27.058  41.069  51.457  1.00  0.00     0.275 C 
BRANCH   7   8
HETATM    8  N   UNL     1      27.864  40.796  50.185  1.00  0.00    -0.067 N 
HETATM    9  C   UNL     1      28.317  39.355  50.164  1.00  0.00     0.236 C 
HETATM   10  C   UNL     1      29.156  39.085  48.923  1.00  0.00     0.037 C 
HETATM   11  C   UNL     1      28.373  39.382  47.633  1.00  0.00     0.025 C 
HETATM   12  C   UNL     1      27.939  40.852  47.682  1.00  0.00     0.037 C 
HETATM   13  C   UNL     1      27.123  41.188  48.925  1.00  0.00     0.236 C 
HETATM   14  H   UNL     1      28.690  41.399  50.247  1.00  0.00     0.280 HD
BRANCH  11  15
HETATM   15  C   UNL     1      27.239  38.416  47.420  1.00  0.00    -0.018 A 
HETATM   16  C   UNL     1      27.224  37.033  47.737  1.00  0.00     0.147 A 
HETATM   17  N   UNL     1      26.044  36.464  47.504  1.00  0.00    -0.185 NA
HETATM   18  N   UNL     1      25.324  37.433  46.921  1.00  0.00    -0.285 N 
HETATM   19  C   UNL     1      23.979  37.154  46.474  1.00  0.00     0.179 C 
HETATM   20  C   UNL     1      25.994  38.625  46.854  1.00  0.00     0.120 A 
ENDBRANCH  11  15
ENDBRANCH   7   8
ENDBRANCH   1   7
BRANCH   2  21
HETATM   21  N   UNL     1      26.616  43.983  51.254  1.00  0.00    -0.380 N 
HETATM   22  C   UNL     1      27.414  44.735  50.274  1.00  0.00     0.150 C 
BRANCH  21  23
HETATM   23  C   UNL     1      25.258  44.444  51.637  1.00  0.00     0.087 C 
HETATM   24  C   UNL     1      24.171  43.833  50.736  1.00  0.00     0.053 C 
HETATM   25  C   UNL     1      23.791  44.672  49.523  1.00  0.00     0.236 C 
HETATM   26  N   UNL     1      23.498  46.084  49.943  1.00  0.00    -0.075 N 
HETATM   27  H   UNL     1      22.727  46.071  50.626  1.00  0.00     0.279 HD
HETATM   28  C   UNL     1      22.982  46.914  48.790  1.00  0.00     0.269 C 
HETATM   29  C   UNL     1      24.696  46.728  50.589  1.00  0.00     0.236 C 
HETATM   30  C   UNL     1      25.081  45.952  51.837  1.00  0.00     0.053 C 
ENDBRANCH  21  23
ENDBRANCH   2  21
TORSDOF 5
ENDMDL
MODEL 5
REMARK VINA RESULT:      -7.5     11.802     13.614
REMARK  5 active torsions:
REMARK  status: ('A' for Active; 'I' for Inactive)
REMARK    1  A    between atoms: C_5  and  C_6 
REMARK    2  A    between atoms: N_9  and  C_11 
REMARK    3  A    between atoms: C_11  and  C_12 
REMARK    4  A    between atoms: C_13  and  N_14 
REMARK    5  A    between atoms: N_14  and  C_15 
ROOT
HETATM    1  C   UNL     1      28.055  42.699  52.000  1.00  0.00    -0.006 A 
HETATM    2  C   UNL     1      28.174  42.318  53.356  1.00  0.00     0.038 A 
HETATM    3  C   UNL     1      28.505  40.979  53.644  1.00  0.00     0.030 A 
HETATM    4  C   UNL     1      28.709  40.040  52.632  1.00  0.00     0.002 A 
HETATM    5  C   UNL     1      28.615  40.423  51.304  1.00  0.00     0.001 A 
HETATM    6  C   UNL     1      28.303  41.742  50.990  1.00  0.00     0.011 A 
ENDROOT
BRANCH   1   7
HETATM    7  C   UNL     1      27.737  44.111  51.577  1.00  0.00     0.275 C 
BRANCH   7   8
HETATM    8  N   UNL     1      26.311  44.311  51.057  1.00  0.00    -0.067 N 
HETATM    9  C   UNL     1      25.642  45.435  51.813  1.00  0.00     0.236 C 
HETATM   10  C   UNL     1      24.209  45.614  51.332  1.00  0.00     0.037 C 
HETATM   11  C   UNL     1      24.150  45.919  49.826  1.00  0.00     0.025 C 
HETATM   12  C   UNL     1      24.826  44.757  49.089  1.00  0.00     0.037 C 
HETATM   13  C   UNL     1      26.256  44.509  49.558  1.00  0.00     0.236 C 
HETATM   14  H   UNL     1      25.817  43.437  51.262  1.00  0.00     0.280 HD
BRANCH  11  15
HETATM   15  C   UNL     1      24.727  47.270  49.497  1.00  0.00    -0.018 A 
HETATM   16  C   UNL     1      24.008  48.466  49.240  1.00  0.00     0.147 A 
HETATM   17  N   UNL     1      24.804  49.517  49.059  1.00  0.00    -0.185 NA
HETATM   18  N   UNL     1      26.039  48.995  49.069  1.00  0.00    -0.285 N 
HETATM   19  C   UNL     1      27.180  49.853  48.845  1.00  0.00     0.179 C 
HETATM   20  C   UNL     1      26.047  47.653  49.336  1.00  0.00     0.120 A 
ENDBRANCH  11  15
ENDBRANCH   7   8
ENDBRANCH   1   7
BRANCH   2  21
HETATM   21  N   UNL     1      28.077  43.279  54.391  1.00  0.00    -0.380 N 
HETATM   22  C   UNL     1      26.676  43.573  54.727  1.00  0.00     0.150 C 
BRANCH  21  23
HETATM   23  C   UNL     1      29.096  44.358  54.391  1.00  0.00     0.087 C 
HETATM   24  C   UNL     1      30.436  43.881  54.980  1.00  0.00     0.053 C 
HETATM   25  C   UNL     1      30.607  44.125  56.474  1.00  0.00     0.236 C 
HETATM   26  N   UNL     1      30.282  45.553  56.804  1.00  0.00    -0.075 N 
HETATM   27  H   UNL     1      30.910  46.167  56.266  1.00  0.00     0.279 HD
HETATM   28  C   UNL     1      30.575  45.871  58.253  1.00  0.00     0.269 C 
HETATM   29  C   UNL     1      28.860  45.894  56.445  1.00  0.00     0.236 C 
HETATM   30  C   UNL     1      28.655  45.714  54.951  1.00  0.00     0.053 C 
ENDBRANCH  21  23
ENDBRANCH   2  21
TORSDOF 5
ENDMDL
MODEL 6
REMARK VINA RESULT:      -7.5      1.997      3.550
REMARK  5 active torsions:
REMARK  status: ('A' for Active; 'I' for Inactive)
REMARK    1  A    between atoms: C_5  and  C_6 
REMARK    2  A    between atoms: N_9  and  C_11 
REMARK    3  A    between atoms: C_11  and  C_12 
REMARK    4  A    between atoms: C_13  and  N_14 
REMARK    5  A    between atoms: N_14  and  C_15 
ROOT
HETATM    1  C   UNL     1      26.355  49.325  38.654  1.00  0.00    -0.006 A 
HETATM    2  C   UNL     1      26.419  47.925  38.842  1.00  0.00     0.038 A 
HETATM    3  C   UNL     1      25.235  47.247  39.192  1.00  0.00     0.030 A 
HETATM    4  C   UNL     1      24.024  47.920  39.356  1.00  0.00     0.002 A 
HETATM    5  C   UNL     1      23.960  49.288  39.146  1.00  0.00     0.001 A 
HETATM    6  C   UNL     1      25.111  49.982  38.787  1.00  0.00     0.011 A 
ENDROOT
BRANCH   1   7
HETATM    7  C   UNL     1      27.551  50.147  38.247  1.00  0.00     0.275 C 
BRANCH   7   8
HETATM    8  N   UNL     1      27.672  51.492  38.967  1.00  0.00    -0.067 N 
HETATM    9  C   UNL     1      27.789  51.268  40.457  1.00  0.00     0.236 C 
HETATM   10  C   UNL     1      27.867  52.602  41.186  1.00  0.00     0.037 C 
HETATM   11  C   UNL     1      29.065  53.440  40.710  1.00  0.00     0.025 C 
HETATM   12  C   UNL     1      28.908  53.658  39.201  1.00  0.00     0.037 C 
HETATM   13  C   UNL     1      28.790  52.352  38.422  1.00  0.00     0.236 C 
HETATM   14  H   UNL     1      26.794  51.986  38.778  1.00  0.00     0.280 HD
BRANCH  11  15
HETATM   15  C   UNL     1      30.381  52.827  41.107  1.00  0.00    -0.018 A 
HETATM   16  C   UNL     1      31.558  52.747  40.318  1.00  0.00     0.147 A 
HETATM   17  N   UNL     1      32.585  52.219  40.979  1.00  0.00    -0.185 NA
HETATM   18  N   UNL     1      32.058  51.837  42.151  1.00  0.00    -0.285 N 
HETATM   19  C   UNL     1      32.887  51.164  43.123  1.00  0.00     0.179 C 
HETATM   20  C   UNL     1      30.741  52.187  42.279  1.00  0.00     0.120 A 
ENDBRANCH  11  15
ENDBRANCH   7   8
ENDBRANCH   1   7
BRANCH   2  21
HETATM   21  N   UNL     1      27.612  47.211  38.576  1.00  0.00    -0.380 N 
HETATM   22  C   UNL     1      27.526  46.467  37.310  1.00  0.00     0.150 C 
BRANCH  21  23
HETATM   23  C   UNL     1      28.312  46.630  39.748  1.00  0.00     0.087 C 
HETATM   24  C   UNL     1      28.427  47.637  40.905  1.00  0.00     0.053 C 
HETATM   25  C   UNL     1      29.709  48.459  40.921  1.00  0.00     0.236 C 
HETATM   26  N   UNL     1      30.902  47.557  40.792  1.00  0.00    -0.075 N 
HETATM   27  H   UNL     1      30.895  46.888  41.575  1.00  0.00     0.279 HD
HETATM   28  C   UNL     1      32.198  48.320  40.945  1.00  0.00     0.269 C 
HETATM   29  C   UNL     1      30.871  46.780  39.502  1.00  0.00     0.236 C 
HETATM   30  C   UNL     1      29.631  45.904  39.464  1.00  0.00     0.053 C 
ENDBRANCH  21  23
ENDBRANCH   2  21
TORSDOF 5
ENDMDL
MODEL 7
REMARK VINA RESULT:      -7.4     11.222     14.451
REMARK  5 active torsions:
REMARK  status: ('A' for Active; 'I' for Inactive)
REMARK    1  A    between atoms: C_5  and  C_6 
REMARK    2  A    between atoms: N_9  and  C_11 
REMARK    3  A    between atoms: C_11  and  C_12 
REMARK    4  A    between atoms: C_13  and  N_14 
REMARK    5  A    between atoms: N_14  and  C_15 
ROOT
HETATM    1  C   UNL     1      18.036  50.838  49.286  1.00  0.00    -0.006 A 
HETATM    2  C   UNL     1      17.107  50.548  48.260  1.00  0.00     0.038 A 
HETATM    3  C   UNL     1      16.019  51.426  48.082  1.00  0.00     0.030 A 
HETATM    4  C   UNL     1      15.844  52.551  48.888  1.00  0.00     0.002 A 
HETATM    5  C   UNL     1      16.770  52.845  49.876  1.00  0.00     0.001 A 
HETATM    6  C   UNL     1      17.861  52.003  50.065  1.00  0.00     0.011 A 
ENDROOT
BRANCH   1   7
HETATM    7  C   UNL     1      19.253  49.987  49.544  1.00  0.00     0.275 C 
BRANCH   7   8
HETATM    8  N   UNL     1      20.553  50.543  48.956  1.00  0.00    -0.067 N 
HETATM    9  C   UNL     1      21.593  50.673  50.043  1.00  0.00     0.236 C 
HETATM   10  C   UNL     1      22.876  51.265  49.476  1.00  0.00     0.037 C 
HETATM   11  C   UNL     1      23.446  50.401  48.340  1.00  0.00     0.025 C 
HETATM   12  C   UNL     1      22.371  50.299  47.251  1.00  0.00     0.037 C 
HETATM   13  C   UNL     1      21.050  49.743  47.772  1.00  0.00     0.236 C 
HETATM   14  H   UNL     1      20.320  51.479  48.609  1.00  0.00     0.280 HD
BRANCH  11  15
HETATM   15  C   UNL     1      23.946  49.070  48.833  1.00  0.00    -0.018 A 
HETATM   16  C   UNL     1      25.268  48.751  49.238  1.00  0.00     0.147 A 
HETATM   17  N   UNL     1      25.379  47.508  49.701  1.00  0.00    -0.185 NA
HETATM   18  N   UNL     1      24.170  46.971  49.485  1.00  0.00    -0.285 N 
HETATM   19  C   UNL     1      23.932  45.588  49.825  1.00  0.00     0.179 C 
HETATM   20  C   UNL     1      23.273  47.869  48.973  1.00  0.00     0.120 A 
ENDBRANCH  11  15
ENDBRANCH   7   8
ENDBRANCH   1   7
BRANCH   2  21
HETATM   21  N   UNL     1      17.326  49.473  47.365  1.00  0.00    -0.380 N 
HETATM   22  C   UNL     1      17.820  49.946  46.062  1.00  0.00     0.150 C 
BRANCH  21  23
HETATM   23  C   UNL     1      16.372  48.339  47.445  1.00  0.00     0.087 C 
HETATM   24  C   UNL     1      16.848  47.259  48.431  1.00  0.00     0.053 C 
HETATM   25  C   UNL     1      17.671  46.137  47.812  1.00  0.00     0.236 C 
HETATM   26  N   UNL     1      16.962  45.581  46.610  1.00  0.00    -0.075 N 
HETATM   27  H   UNL     1      16.040  45.229  46.904  1.00  0.00     0.279 HD
HETATM   28  C   UNL     1      17.678  44.372  46.050  1.00  0.00     0.269 C 
HETATM   29  C   UNL     1      16.756  46.634  45.554  1.00  0.00     0.236 C 
HETATM   30  C   UNL     1      15.895  47.754  46.112  1.00  0.00     0.053 C 
ENDBRANCH  21  23
ENDBRANCH   2  21
TORSDOF 5
ENDMDL
MODEL 8
REMARK VINA RESULT:      -7.4     11.307     14.238
REMARK  5 active torsions:
REMARK  status: ('A' for Active; 'I' for Inactive)
REMARK    1  A    between atoms: C_5  and  C_6 
REMARK    2  A    between atoms: N_9  and  C_11 
REMARK    3  A    between atoms: C_11  and  C_12 
REMARK    4  A    between atoms: C_13  and  N_14 
REMARK    5  A    between atoms: N_14  and  C_15 
ROOT
HETATM    1  C   UNL     1      26.654  42.050  51.076  1.00  0.00    -0.006 A 
HETATM    2  C   UNL     1      26.917  43.420  51.303  1.00  0.00     0.038 A 
HETATM    3  C   UNL     1      27.898  43.760  52.256  1.00  0.00     0.030 A 
HETATM    4  C   UNL     1      28.598  42.785  52.968  1.00  0.00     0.002 A 
HETATM    5  C   UNL     1      28.355  41.443  52.725  1.00  0.00     0.001 A 
HETATM    6  C   UNL     1      27.401  41.079  51.780  1.00  0.00     0.011 A 
ENDROOT
BRANCH   1   7
HETATM    7  C   UNL     1      25.649  41.572  50.059  1.00  0.00     0.275 C 
BRANCH   7   8
HETATM    8  N   UNL     1      26.256  40.815  48.875  1.00  0.00    -0.067 N 
HETATM    9  C   UNL     1      27.720  41.165  48.738  1.00  0.00     0.236 C 
HETATM   10  C   UNL     1      28.322  40.450  47.537  1.00  0.00     0.037 C 
HETATM   11  C   UNL     1      28.182  38.924  47.657  1.00  0.00     0.025 C 
HETATM   12  C   UNL     1      26.688  38.603  47.782  1.00  0.00     0.037 C 
HETATM   13  C   UNL     1      26.023  39.322  48.951  1.00  0.00     0.236 C 
HETATM   14  H   UNL     1      25.758  41.154  48.046  1.00  0.00     0.280 HD
BRANCH  11  15
HETATM   15  C   UNL     1      29.024  38.360  48.770  1.00  0.00    -0.018 A 
HETATM   16  C   UNL     1      30.427  38.502  48.936  1.00  0.00     0.147 A 
HETATM   17  N   UNL     1      30.869  37.956  50.066  1.00  0.00    -0.185 NA
HETATM   18  N   UNL     1      29.789  37.349  50.579  1.00  0.00    -0.285 N 
HETATM   19  C   UNL     1      29.908  36.594  51.805  1.00  0.00     0.179 C 
HETATM   20  C   UNL     1      28.657  37.568  49.843  1.00  0.00     0.120 A 
ENDBRANCH  11  15
ENDBRANCH   7   8
ENDBRANCH   1   7
BRANCH   2  21
HETATM   21  N   UNL     1      26.295  44.419  50.515  1.00  0.00    -0.380 N 
HETATM   22  C   UNL     1      27.285  45.237  49.799  1.00  0.00     0.150 C 
BRANCH  21  23
HETATM   23  C   UNL     1      25.068  45.036  51.075  1.00  0.00     0.087 C 
HETATM   24  C   UNL     1      23.813  44.644  50.275  1.00  0.00     0.053 C 
HETATM   25  C   UNL     1      23.432  45.608  49.159  1.00  0.00     0.236 C 
HETATM   26  N   UNL     1      23.393  47.015  49.684  1.00  0.00    -0.075 N 
HETATM   27  H   UNL     1      22.706  47.063  50.449  1.00  0.00     0.279 HD
HETATM   28  C   UNL     1      22.882  47.985  48.642  1.00  0.00     0.269 C 
HETATM   29  C   UNL     1      24.734  47.442  50.219  1.00  0.00     0.236 C 
HETATM   30  C   UNL     1      25.133  46.537  51.372  1.00  0.00     0.053 C 
ENDBRANCH  21  23
ENDBRANCH   2  21
TORSDOF 5
ENDMDL
MODEL 9
REMARK VINA RESULT:      -7.3     25.147     27.681
REMARK  5 active torsions:
REMARK  status: ('A' for Active; 'I' for Inactive)
REMARK    1  A    between atoms: C_5  and  C_6 
REMARK    2  A    between atoms: N_9  and  C_11 
REMARK    3  A    between atoms: C_11  and  C_12 
REMARK    4  A    between atoms: C_13  and  N_14 
REMARK    5  A    between atoms: N_14  and  C_15 
ROOT
HETATM    1  C   UNL     1      39.099  46.973  65.527  1.00  0.00    -0.006 A 
HETATM    2  C   UNL     1      40.179  47.803  65.907  1.00  0.00     0.038 A 
HETATM    3  C   UNL     1      40.022  49.198  65.776  1.00  0.00     0.030 A 
HETATM    4  C   UNL     1      38.845  49.761  65.283  1.00  0.00     0.002 A 
HETATM    5  C   UNL     1      37.781  48.945  64.934  1.00  0.00     0.001 A 
HETATM    6  C   UNL     1      37.902  47.566  65.066  1.00  0.00     0.011 A 
ENDROOT
BRANCH   1   7
HETATM    7  C   UNL     1      39.145  45.471  65.655  1.00  0.00     0.275 C 
BRANCH   7   8
HETATM    8  N   UNL     1      38.585  44.715  64.448  1.00  0.00    -0.067 N 
HETATM    9  C   UNL     1      39.716  44.090  63.665  1.00  0.00     0.236 C 
HETATM   10  C   UNL     1      39.173  43.370  62.438  1.00  0.00     0.037 C 
HETATM   11  C   UNL     1      38.165  42.275  62.823  1.00  0.00     0.025 C 
HETATM   12  C   UNL     1      37.027  42.944  63.604  1.00  0.00     0.037 C 
HETATM   13  C   UNL     1      37.519  43.710  64.827  1.00  0.00     0.236 C 
HETATM   14  H   UNL     1      38.133  45.424  63.862  1.00  0.00     0.280 HD
BRANCH  11  15
HETATM   15  C   UNL     1      38.818  41.131  63.552  1.00  0.00    -0.018 A 
HETATM   16  C   UNL     1      38.414  40.565  64.789  1.00  0.00     0.147 A 
HETATM   17  N   UNL     1      39.147  39.510  65.136  1.00  0.00    -0.185 NA
HETATM   18  N   UNL     1      40.105  39.457  64.199  1.00  0.00    -0.285 N 
HETATM   19  C   UNL     1      41.133  38.446  64.285  1.00  0.00     0.179 C 
HETATM   20  C   UNL     1      39.947  40.403  63.224  1.00  0.00     0.120 A 
ENDBRANCH  11  15
ENDBRANCH   7   8
ENDBRANCH   1   7
BRANCH   2  21
HETATM   21  N   UNL     1      41.338  47.257  66.509  1.00  0.00    -0.380 N 
HETATM   22  C   UNL     1      41.358  47.496  67.960  1.00  0.00     0.150 C 
BRANCH  21  23
HETATM   23  C   UNL     1      42.590  47.322  65.715  1.00  0.00     0.087 C 
HETATM   24  C   UNL     1      42.610  46.272  64.590  1.00  0.00     0.053 C 
HETATM   25  C   UNL     1      43.262  44.945  64.958  1.00  0.00     0.236 C 
HETATM   26  N   UNL     1      44.608  45.186  65.578  1.00  0.00    -0.075 N 
HETATM   27  H   UNL     1      45.195  45.699  64.903  1.00  0.00     0.279 HD
HETATM   28  C   UNL     1      45.347  43.891  65.828  1.00  0.00     0.269 C 
HETATM   29  C   UNL     1      44.499  46.007  66.835  1.00  0.00     0.236 C 
HETATM   30  C   UNL     1      43.900  47.363  66.508  1.00  0.00     0.053 C 
ENDBRANCH  21  23
ENDBRANCH   2  21
TORSDOF 5
ENDMDL
MODEL 10
REMARK VINA RESULT:      -7.2      2.611      5.662
REMARK  5 active torsions:
REMARK  status: ('A' for Active; 'I' for Inactive)
REMARK    1  A    between atoms: C_5  and  C_6 
REMARK    2  A    between atoms: N_9  and  C_11 
REMARK    3  A    between atoms: C_11  and  C_12 
REMARK    4  A    between atoms: C_13  and  N_14 
REMARK    5  A    between atoms: N_14  and  C_15 
ROOT
HETATM    1  C   UNL     1      28.712  49.076  38.837  1.00  0.00    -0.006 A 
HETATM    2  C   UNL     1      28.245  47.859  39.386  1.00  0.00     0.038 A 
HETATM    3  C   UNL     1      29.197  46.950  39.891  1.00  0.00     0.030 A 
HETATM    4  C   UNL     1      30.565  47.222  39.855  1.00  0.00     0.002 A 
HETATM    5  C   UNL     1      31.016  48.426  39.338  1.00  0.00     0.001 A 
HETATM    6  C   UNL     1      30.099  49.349  38.845  1.00  0.00     0.011 A 
ENDROOT
BRANCH   1   7
HETATM    7  C   UNL     1      27.784  50.134  38.298  1.00  0.00     0.275 C 
BRANCH   7   8
HETATM    8  N   UNL     1      27.836  51.466  39.050  1.00  0.00    -0.067 N 
HETATM    9  C   UNL     1      27.956  51.213  40.535  1.00  0.00     0.236 C 
HETATM   10  C   UNL     1      27.967  52.532  41.295  1.00  0.00     0.037 C 
HETATM   11  C   UNL     1      29.126  53.436  40.846  1.00  0.00     0.025 C 
HETATM   12  C   UNL     1      28.968  53.682  39.341  1.00  0.00     0.037 C 
HETATM   13  C   UNL     1      28.916  52.391  38.532  1.00  0.00     0.236 C 
HETATM   14  H   UNL     1      26.937  51.923  38.866  1.00  0.00     0.280 HD
BRANCH  11  15
HETATM   15  C   UNL     1      30.468  52.877  41.237  1.00  0.00    -0.018 A 
HETATM   16  C   UNL     1      31.635  52.817  40.432  1.00  0.00     0.147 A 
HETATM   17  N   UNL     1      32.689  52.340  41.089  1.00  0.00    -0.185 NA
HETATM   18  N   UNL     1      32.192  51.970  42.278  1.00  0.00    -0.285 N 
HETATM   19  C   UNL     1      33.058  51.349  43.253  1.00  0.00     0.179 C 
HETATM   20  C   UNL     1      30.867  52.278  42.418  1.00  0.00     0.120 A 
ENDBRANCH  11  15
ENDBRANCH   7   8
ENDBRANCH   1   7
BRANCH   2  21
HETATM   21  N   UNL     1      26.859  47.612  39.529  1.00  0.00    -0.380 N 
HETATM   22  C   UNL     1      26.423  47.765  40.925  1.00  0.00     0.150 C 
BRANCH  21  23
HETATM   23  C   UNL     1      26.283  46.548  38.670  1.00  0.00     0.087 C 
HETATM   24  C   UNL     1      26.642  46.751  37.187  1.00  0.00     0.053 C 
HETATM   25  C   UNL     1      25.621  47.543  36.380  1.00  0.00     0.236 C 
HETATM   26  N   UNL     1      24.246  46.980  36.592  1.00  0.00    -0.075 N 
HETATM   27  H   UNL     1      24.246  45.992  36.300  1.00  0.00     0.279 HD
HETATM   28  C   UNL     1      23.225  47.649  35.699  1.00  0.00     0.269 C 
HETATM   29  C   UNL     1      23.838  47.049  38.039  1.00  0.00     0.236 C 
HETATM   30  C   UNL     1      24.800  46.228  38.880  1.00  0.00     0.053 C 
ENDBRANCH  21  23
ENDBRANCH   2  21
TORSDOF 5
ENDMDL
