MODEL 1
REMARK VINA RESULT:      -9.2      0.000      0.000
REMARK  6 active torsions:
REMARK  status: ('A' for Active; 'I' for Inactive)
REMARK    1  A    between atoms: C_5  and  C_6 
REMARK    2  A    between atoms: C_6  and  O_7 
REMARK    3  A    between atoms: C_6  and  C_8 
REMARK    4  A    between atoms: C_8  and  N_9 
REMARK       I    between atoms: N_9  and  C_10 
REMARK    5  A    between atoms: C_10  and  C_11 
REMARK    6  A    between atoms: C_11  and  C_12 
ROOT
HETATM    1  N   UNL     1      27.690  43.437  51.177  1.00  0.00    -0.358 N 
HETATM    2  C   UNL     1      28.094  42.371  51.953  1.00  0.00     0.222 C 
HETATM    3  O   UNL     1      27.394  41.378  52.131  1.00  0.00    -0.273 OA
HETATM    4  H   UNL     1      28.398  44.094  50.868  1.00  0.00     0.162 HD
ENDROOT
BRANCH   1   5
HETATM    5  C   UNL     1      26.473  43.351  50.371  1.00  0.00     0.159 C 
BRANCH   5   6
HETATM    6  C   UNL     1      25.201  43.806  51.118  1.00  0.00     0.169 C 
BRANCH   6   7
HETATM    7  C   UNL     1      25.514  44.932  52.082  1.00  0.00    -0.028 A 
HETATM    8  C   UNL     1      25.975  46.181  51.647  1.00  0.00     0.010 A 
HETATM    9  C   UNL     1      26.231  47.208  52.561  1.00  0.00     0.007 A 
HETATM   10  C   UNL     1      26.035  47.004  53.931  1.00  0.00    -0.062 A 
HETATM   11  C   UNL     1      26.277  48.111  54.913  1.00  0.00     0.048 C 
HETATM   12  C   UNL     1      25.561  45.763  54.371  1.00  0.00     0.007 A 
HETATM   13  C   UNL     1      25.308  44.737  53.457  1.00  0.00     0.010 A 
ENDBRANCH   6   7
BRANCH   6  14
HETATM   14  O   UNL     1      24.645  42.681  51.810  1.00  0.00    -0.389 OA
HETATM   15  H   UNL     1      23.807  43.004  52.185  1.00  0.00     0.210 HD
ENDBRANCH   6  14
ENDBRANCH   5   6
ENDBRANCH   1   5
BRANCH   2  16
HETATM   16  C   UNL     1      29.479  42.508  52.559  1.00  0.00     0.142 C 
BRANCH  16  17
HETATM   17  C   UNL     1      29.539  43.363  53.798  1.00  0.00    -0.031 A 
HETATM   18  C   UNL     1      28.796  44.527  53.955  1.00  0.00     0.125 A 
HETATM   19  N   UNL     1      28.858  45.334  55.039  1.00  0.00    -0.260 NA
HETATM   20  C   UNL     1      29.717  45.015  56.021  1.00  0.00     0.066 A 
HETATM   21  C   UNL     1      30.539  43.873  55.957  1.00  0.00    -0.007 A 
HETATM   22  C   UNL     1      29.814  45.834  57.138  1.00  0.00     0.032 A 
HETATM   23  C   UNL     1      30.435  43.050  54.824  1.00  0.00     0.022 A 
HETATM   24  C   UNL     1      31.437  43.588  57.003  1.00  0.00     0.014 A 
HETATM   25  C   UNL     1      31.517  44.431  58.111  1.00  0.00     0.001 A 
HETATM   26  C   UNL     1      30.703  45.555  58.179  1.00  0.00     0.002 A 
ENDBRANCH  16  17
ENDBRANCH   2  16
TORSDOF 6
ENDMDL
MODEL 2
REMARK VINA RESULT:      -8.9      3.906      5.174
REMARK  6 active torsions:
REMARK  status: ('A' for Active; 'I' for Inactive)
REMARK    1  A    between atoms: C_5  and  C_6 
REMARK    2  A    between atoms: C_6  and  O_7 
REMARK    3  A    between atoms: C_6  and  C_8 
REMARK    4  A    between atoms: C_8  and  N_9 
REMARK       I    between atoms: N_9  and  C_10 
REMARK    5  A    between atoms: C_10  and  C_11 
REMARK    6  A    between atoms: C_11  and  C_12 
ROOT
HETATM    1  N   UNL     1      26.256  47.432  51.310  1.00  0.00    -0.358 N 
HETATM    2  C   UNL     1      25.498  46.552  52.054  1.00  0.00     0.222 C 
HETATM    3  O   UNL     1      24.616  45.856  51.559  1.00  0.00    -0.273 OA
HETATM    4  H   UNL     1      27.117  47.779  51.719  1.00  0.00     0.162 HD
ENDROOT
BRANCH   1   5
HETATM    5  C   UNL     1      26.168  47.441  49.851  1.00  0.00     0.159 C 
BRANCH   5   6
HETATM    6  C   UNL     1      26.058  48.856  49.244  1.00  0.00     0.169 C 
BRANCH   6   7
HETATM    7  C   UNL     1      24.634  49.153  48.819  1.00  0.00    -0.028 A 
HETATM    8  C   UNL     1      23.554  48.356  49.219  1.00  0.00     0.010 A 
HETATM    9  C   UNL     1      22.249  48.672  48.830  1.00  0.00     0.007 A 
HETATM   10  C   UNL     1      21.998  49.790  48.028  1.00  0.00    -0.062 A 
HETATM   11  C   UNL     1      20.597  50.152  47.635  1.00  0.00     0.048 C 
HETATM   12  C   UNL     1      23.071  50.598  47.637  1.00  0.00     0.007 A 
HETATM   13  C   UNL     1      24.375  50.281  48.024  1.00  0.00     0.010 A 
ENDBRANCH   6   7
BRANCH   6  14
HETATM   14  O   UNL     1      26.954  48.951  48.130  1.00  0.00    -0.389 OA
HETATM   15  H   UNL     1      27.496  49.739  48.309  1.00  0.00     0.210 HD
ENDBRANCH   6  14
ENDBRANCH   5   6
ENDBRANCH   1   5
BRANCH   2  16
HETATM   16  C   UNL     1      25.847  46.494  53.530  1.00  0.00     0.142 C 
BRANCH  16  17
HETATM   17  C   UNL     1      27.021  45.610  53.862  1.00  0.00    -0.031 A 
HETATM   18  C   UNL     1      27.260  44.395  53.232  1.00  0.00     0.125 A 
HETATM   19  N   UNL     1      28.284  43.564  53.535  1.00  0.00    -0.260 NA
HETATM   20  C   UNL     1      29.111  43.912  54.534  1.00  0.00     0.066 A 
HETATM   21  C   UNL     1      28.948  45.108  55.260  1.00  0.00    -0.007 A 
HETATM   22  C   UNL     1      30.160  43.070  54.878  1.00  0.00     0.032 A 
HETATM   23  C   UNL     1      27.885  45.954  54.906  1.00  0.00     0.022 A 
HETATM   24  C   UNL     1      29.830  45.422  56.311  1.00  0.00     0.014 A 
HETATM   25  C   UNL     1      30.872  44.556  56.639  1.00  0.00     0.001 A 
HETATM   26  C   UNL     1      31.038  43.378  55.920  1.00  0.00     0.002 A 
ENDBRANCH  16  17
ENDBRANCH   2  16
TORSDOF 6
ENDMDL
MODEL 3
REMARK VINA RESULT:      -8.9      3.187      3.880
REMARK  6 active torsions:
REMARK  status: ('A' for Active; 'I' for Inactive)
REMARK    1  A    between atoms: C_5  and  C_6 
REMARK    2  A    between atoms: C_6  and  O_7 
REMARK    3  A    between atoms: C_6  and  C_8 
REMARK    4  A    between atoms: C_8  and  N_9 
REMARK       I    between atoms: N_9  and  C_10 
REMARK    5  A    between atoms: C_10  and  C_11 
REMARK    6  A    between atoms: C_11  and  C_12 
ROOT
HETATM    1  N   UNL     1      27.359  45.261  50.512  1.00  0.00    -0.358 N 
HETATM    2  C   UNL     1      26.890  44.624  51.642  1.00  0.00     0.222 C 
HETATM    3  O   UNL     1      25.759  44.804  52.083  1.00  0.00    -0.273 OA
HETATM    4  H   UNL     1      28.188  44.885  50.065  1.00  0.00     0.162 HD
ENDROOT
BRANCH   1   5
HETATM    5  C   UNL     1      26.456  46.048  49.673  1.00  0.00     0.159 C 
BRANCH   5   6
HETATM    6  C   UNL     1      26.804  47.551  49.628  1.00  0.00     0.169 C 
BRANCH   6   7
HETATM    7  C   UNL     1      25.586  48.378  49.267  1.00  0.00    -0.028 A 
HETATM    8  C   UNL     1      25.677  49.542  48.494  1.00  0.00     0.010 A 
HETATM    9  C   UNL     1      24.531  50.269  48.158  1.00  0.00     0.007 A 
HETATM   10  C   UNL     1      23.270  49.847  48.592  1.00  0.00    -0.062 A 
HETATM   11  C   UNL     1      22.034  50.604  48.207  1.00  0.00     0.048 C 
HETATM   12  C   UNL     1      23.171  48.677  49.352  1.00  0.00     0.007 A 
HETATM   13  C   UNL     1      24.317  47.953  49.690  1.00  0.00     0.010 A 
ENDBRANCH   6   7
BRANCH   6  14
HETATM   14  O   UNL     1      27.857  47.752  48.677  1.00  0.00    -0.389 OA
HETATM   15  H   UNL     1      27.885  48.713  48.530  1.00  0.00     0.210 HD
ENDBRANCH   6  14
ENDBRANCH   5   6
ENDBRANCH   1   5
BRANCH   2  16
HETATM   16  C   UNL     1      27.873  43.667  52.293  1.00  0.00     0.142 C 
BRANCH  16  17
HETATM   17  C   UNL     1      28.437  44.144  53.606  1.00  0.00    -0.031 A 
HETATM   18  C   UNL     1      28.058  45.339  54.205  1.00  0.00     0.125 A 
HETATM   19  N   UNL     1      28.574  45.810  55.364  1.00  0.00    -0.260 NA
HETATM   20  C   UNL     1      29.543  45.100  55.964  1.00  0.00     0.066 A 
HETATM   21  C   UNL     1      30.024  43.888  55.432  1.00  0.00    -0.007 A 
HETATM   22  C   UNL     1      30.103  45.569  57.145  1.00  0.00     0.032 A 
HETATM   23  C   UNL     1      29.453  43.421  54.238  1.00  0.00     0.022 A 
HETATM   24  C   UNL     1      31.053  43.187  56.088  1.00  0.00     0.014 A 
HETATM   25  C   UNL     1      31.601  43.683  57.270  1.00  0.00     0.001 A 
HETATM   26  C   UNL     1      31.124  44.876  57.800  1.00  0.00     0.002 A 
ENDBRANCH  16  17
ENDBRANCH   2  16
TORSDOF 6
ENDMDL
MODEL 4
REMARK VINA RESULT:      -8.9      1.968      3.302
REMARK  6 active torsions:
REMARK  status: ('A' for Active; 'I' for Inactive)
REMARK    1  A    between atoms: C_5  and  C_6 
REMARK    2  A    between atoms: C_6  and  O_7 
REMARK    3  A    between atoms: C_6  and  C_8 
REMARK    4  A    between atoms: C_8  and  N_9 
REMARK       I    between atoms: N_9  and  C_10 
REMARK    5  A    between atoms: C_10  and  C_11 
REMARK    6  A    between atoms: C_11  and  C_12 
ROOT
HETATM    1  N   UNL     1      26.255  41.459  51.579  1.00  0.00    -0.358 N 
HETATM    2  C   UNL     1      27.619  41.275  51.665  1.00  0.00     0.222 C 
HETATM    3  O   UNL     1      28.328  41.100  50.678  1.00  0.00    -0.273 OA
HETATM    4  H   UNL     1      25.777  41.845  52.385  1.00  0.00     0.162 HD
ENDROOT
BRANCH   1   5
HETATM    5  C   UNL     1      25.611  41.642  50.279  1.00  0.00     0.159 C 
BRANCH   5   6
HETATM    6  C   UNL     1      24.519  42.734  50.276  1.00  0.00     0.169 C 
BRANCH   6   7
HETATM    7  C   UNL     1      25.134  44.115  50.179  1.00  0.00    -0.028 A 
HETATM    8  C   UNL     1      26.463  44.313  49.782  1.00  0.00     0.010 A 
HETATM    9  C   UNL     1      26.993  45.603  49.678  1.00  0.00     0.007 A 
HETATM   10  C   UNL     1      26.207  46.720  49.975  1.00  0.00    -0.062 A 
HETATM   11  C   UNL     1      26.761  48.106  49.835  1.00  0.00     0.048 C 
HETATM   12  C   UNL     1      24.875  46.529  50.359  1.00  0.00     0.007 A 
HETATM   13  C   UNL     1      24.346  45.240  50.465  1.00  0.00     0.010 A 
ENDBRANCH   6   7
BRANCH   6  14
HETATM   14  O   UNL     1      23.736  42.606  51.470  1.00  0.00    -0.389 OA
HETATM   15  H   UNL     1      24.074  41.805  51.908  1.00  0.00     0.210 HD
ENDBRANCH   6  14
ENDBRANCH   5   6
ENDBRANCH   1   5
BRANCH   2  16
HETATM   16  C   UNL     1      28.184  41.322  53.073  1.00  0.00     0.142 C 
BRANCH  16  17
HETATM   17  C   UNL     1      28.362  42.710  53.631  1.00  0.00    -0.031 A 
HETATM   18  C   UNL     1      29.358  43.042  54.541  1.00  0.00     0.125 A 
HETATM   19  N   UNL     1      29.518  44.270  55.087  1.00  0.00    -0.260 NA
HETATM   20  C   UNL     1      28.638  45.231  54.759  1.00  0.00     0.066 A 
HETATM   21  C   UNL     1      27.572  45.000  53.868  1.00  0.00    -0.007 A 
HETATM   22  C   UNL     1      28.767  46.495  55.318  1.00  0.00     0.032 A 
HETATM   23  C   UNL     1      27.448  43.718  53.308  1.00  0.00     0.022 A 
HETATM   24  C   UNL     1      26.665  46.033  53.568  1.00  0.00     0.014 A 
HETATM   25  C   UNL     1      26.815  47.292  54.147  1.00  0.00     0.001 A 
HETATM   26  C   UNL     1      27.869  47.524  55.023  1.00  0.00     0.002 A 
ENDBRANCH  16  17
ENDBRANCH   2  16
TORSDOF 6
ENDMDL
MODEL 5
REMARK VINA RESULT:      -8.9      3.929      8.363
REMARK  6 active torsions:
REMARK  status: ('A' for Active; 'I' for Inactive)
REMARK    1  A    between atoms: C_5  and  C_6 
REMARK    2  A    between atoms: C_6  and  O_7 
REMARK    3  A    between atoms: C_6  and  C_8 
REMARK    4  A    between atoms: C_8  and  N_9 
REMARK       I    between atoms: N_9  and  C_10 
REMARK    5  A    between atoms: C_10  and  C_11 
REMARK    6  A    between atoms: C_11  and  C_12 
ROOT
HETATM    1  N   UNL     1      26.302  45.338  52.881  1.00  0.00    -0.358 N 
HETATM    2  C   UNL     1      25.986  46.466  52.154  1.00  0.00     0.222 C 
HETATM    3  O   UNL     1      25.774  47.555  52.680  1.00  0.00    -0.273 OA
HETATM    4  H   UNL     1      26.707  44.552  52.385  1.00  0.00     0.162 HD
ENDROOT
BRANCH   1   5
HETATM    5  C   UNL     1      26.583  45.430  54.314  1.00  0.00     0.159 C 
BRANCH   5   6
HETATM    6  C   UNL     1      27.815  46.297  54.649  1.00  0.00     0.169 C 
BRANCH   6   7
HETATM    7  C   UNL     1      28.903  45.464  55.297  1.00  0.00    -0.028 A 
HETATM    8  C   UNL     1      29.372  44.275  54.725  1.00  0.00     0.010 A 
HETATM    9  C   UNL     1      30.395  43.542  55.335  1.00  0.00     0.007 A 
HETATM   10  C   UNL     1      30.965  43.982  56.534  1.00  0.00    -0.062 A 
HETATM   11  C   UNL     1      32.084  43.218  57.176  1.00  0.00     0.048 C 
HETATM   12  C   UNL     1      30.511  45.177  57.102  1.00  0.00     0.007 A 
HETATM   13  C   UNL     1      29.487  45.907  56.494  1.00  0.00     0.010 A 
ENDBRANCH   6   7
BRANCH   6  14
HETATM   14  O   UNL     1      27.406  47.365  55.514  1.00  0.00    -0.389 OA
HETATM   15  H   UNL     1      26.590  47.047  55.937  1.00  0.00     0.210 HD
ENDBRANCH   6  14
ENDBRANCH   5   6
ENDBRANCH   1   5
BRANCH   2  16
HETATM   16  C   UNL     1      25.938  46.267  50.650  1.00  0.00     0.142 C 
BRANCH  16  17
HETATM   17  C   UNL     1      25.322  47.410  49.886  1.00  0.00    -0.031 A 
HETATM   18  C   UNL     1      26.065  48.458  49.357  1.00  0.00     0.125 A 
HETATM   19  N   UNL     1      25.536  49.516  48.699  1.00  0.00    -0.260 NA
HETATM   20  C   UNL     1      24.201  49.584  48.575  1.00  0.00     0.066 A 
HETATM   21  C   UNL     1      23.347  48.592  49.096  1.00  0.00    -0.007 A 
HETATM   22  C   UNL     1      23.630  50.667  47.920  1.00  0.00     0.032 A 
HETATM   23  C   UNL     1      23.933  47.500  49.756  1.00  0.00     0.022 A 
HETATM   24  C   UNL     1      21.953  48.715  48.955  1.00  0.00     0.014 A 
HETATM   25  C   UNL     1      21.405  49.816  48.298  1.00  0.00     0.001 A 
HETATM   26  C   UNL     1      22.245  50.793  47.778  1.00  0.00     0.002 A 
ENDBRANCH  16  17
ENDBRANCH   2  16
TORSDOF 6
ENDMDL
MODEL 6
REMARK VINA RESULT:      -8.7      4.503      5.439
REMARK  6 active torsions:
REMARK  status: ('A' for Active; 'I' for Inactive)
REMARK    1  A    between atoms: C_5  and  C_6 
REMARK    2  A    between atoms: C_6  and  O_7 
REMARK    3  A    between atoms: C_6  and  C_8 
REMARK    4  A    between atoms: C_8  and  N_9 
REMARK       I    between atoms: N_9  and  C_10 
REMARK    5  A    between atoms: C_10  and  C_11 
REMARK    6  A    between atoms: C_11  and  C_12 
ROOT
HETATM    1  N   UNL     1      24.356  46.677  50.714  1.00  0.00    -0.358 N 
HETATM    2  C   UNL     1      25.370  46.695  51.649  1.00  0.00     0.222 C 
HETATM    3  O   UNL     1      26.224  47.575  51.683  1.00  0.00    -0.273 OA
HETATM    4  H   UNL     1      23.555  46.082  50.893  1.00  0.00     0.162 HD
ENDROOT
BRANCH   1   5
HETATM    5  C   UNL     1      24.143  47.820  49.826  1.00  0.00     0.159 C 
BRANCH   5   6
HETATM    6  C   UNL     1      22.988  47.618  48.822  1.00  0.00     0.169 C 
BRANCH   6   7
HETATM    7  C   UNL     1      22.091  48.839  48.777  1.00  0.00    -0.028 A 
HETATM    8  C   UNL     1      22.585  50.117  48.489  1.00  0.00     0.010 A 
HETATM    9  C   UNL     1      21.726  51.219  48.431  1.00  0.00     0.007 A 
HETATM   10  C   UNL     1      20.356  51.066  48.664  1.00  0.00    -0.062 A 
HETATM   11  C   UNL     1      19.426  52.238  48.570  1.00  0.00     0.048 C 
HETATM   12  C   UNL     1      19.855  49.788  48.938  1.00  0.00     0.007 A 
HETATM   13  C   UNL     1      20.713  48.688  48.999  1.00  0.00     0.010 A 
ENDBRANCH   6   7
BRANCH   6  14
HETATM   14  O   UNL     1      22.245  46.452  49.202  1.00  0.00    -0.389 OA
HETATM   15  H   UNL     1      21.859  46.671  50.068  1.00  0.00     0.210 HD
ENDBRANCH   6  14
ENDBRANCH   5   6
ENDBRANCH   1   5
BRANCH   2  16
HETATM   16  C   UNL     1      25.341  45.551  52.647  1.00  0.00     0.142 C 
BRANCH  16  17
HETATM   17  C   UNL     1      26.516  45.512  53.589  1.00  0.00    -0.031 A 
HETATM   18  C   UNL     1      26.798  46.527  54.494  1.00  0.00     0.125 A 
HETATM   19  N   UNL     1      27.866  46.536  55.325  1.00  0.00    -0.260 NA
HETATM   20  C   UNL     1      28.737  45.516  55.253  1.00  0.00     0.066 A 
HETATM   21  C   UNL     1      28.565  44.446  54.354  1.00  0.00    -0.007 A 
HETATM   22  C   UNL     1      29.851  45.508  56.082  1.00  0.00     0.032 A 
HETATM   23  C   UNL     1      27.436  44.461  53.520  1.00  0.00     0.022 A 
HETATM   24  C   UNL     1      29.513  43.407  54.303  1.00  0.00     0.014 A 
HETATM   25  C   UNL     1      30.626  43.426  55.142  1.00  0.00     0.001 A 
HETATM   26  C   UNL     1      30.794  44.479  56.035  1.00  0.00     0.002 A 
ENDBRANCH  16  17
ENDBRANCH   2  16
TORSDOF 6
ENDMDL
MODEL 7
REMARK VINA RESULT:      -8.6      2.160      3.019
REMARK  6 active torsions:
REMARK  status: ('A' for Active; 'I' for Inactive)
REMARK    1  A    between atoms: C_5  and  C_6 
REMARK    2  A    between atoms: C_6  and  O_7 
REMARK    3  A    between atoms: C_6  and  C_8 
REMARK    4  A    between atoms: C_8  and  N_9 
REMARK       I    between atoms: N_9  and  C_10 
REMARK    5  A    between atoms: C_10  and  C_11 
REMARK    6  A    between atoms: C_11  and  C_12 
ROOT
HETATM    1  N   UNL     1      25.311  42.943  50.639  1.00  0.00    -0.358 N 
HETATM    2  C   UNL     1      26.677  42.780  50.550  1.00  0.00     0.222 C 
HETATM    3  O   UNL     1      27.334  43.192  49.599  1.00  0.00    -0.273 OA
HETATM    4  H   UNL     1      24.875  42.812  51.545  1.00  0.00     0.162 HD
ENDROOT
BRANCH   1   5
HETATM    5  C   UNL     1      24.600  43.789  49.681  1.00  0.00     0.159 C 
BRANCH   5   6
HETATM    6  C   UNL     1      23.954  45.039  50.316  1.00  0.00     0.169 C 
BRANCH   6   7
HETATM    7  C   UNL     1      24.713  46.293  49.933  1.00  0.00    -0.028 A 
HETATM    8  C   UNL     1      26.111  46.358  49.964  1.00  0.00     0.010 A 
HETATM    9  C   UNL     1      26.782  47.524  49.580  1.00  0.00     0.007 A 
HETATM   10  C   UNL     1      26.066  48.650  49.161  1.00  0.00    -0.062 A 
HETATM   11  C   UNL     1      26.781  49.891  48.717  1.00  0.00     0.048 C 
HETATM   12  C   UNL     1      24.670  48.586  49.114  1.00  0.00     0.007 A 
HETATM   13  C   UNL     1      24.000  47.423  49.501  1.00  0.00     0.010 A 
ENDBRANCH   6   7
BRANCH   6  14
HETATM   14  O   UNL     1      23.930  44.872  51.740  1.00  0.00    -0.389 OA
HETATM   15  H   UNL     1      23.947  45.775  52.100  1.00  0.00     0.210 HD
ENDBRANCH   6  14
ENDBRANCH   5   6
ENDBRANCH   1   5
BRANCH   2  16
HETATM   16  C   UNL     1      27.315  42.065  51.728  1.00  0.00     0.142 C 
BRANCH  16  17
HETATM   17  C   UNL     1      27.833  42.977  52.809  1.00  0.00    -0.031 A 
HETATM   18  C   UNL     1      27.306  44.239  53.056  1.00  0.00     0.125 A 
HETATM   19  N   UNL     1      27.774  45.094  53.994  1.00  0.00    -0.260 NA
HETATM   20  C   UNL     1      28.843  44.721  54.718  1.00  0.00     0.066 A 
HETATM   21  C   UNL     1      29.475  43.476  54.535  1.00  0.00    -0.007 A 
HETATM   22  C   UNL     1      29.355  45.586  55.675  1.00  0.00     0.032 A 
HETATM   23  C   UNL     1      28.950  42.607  53.565  1.00  0.00     0.022 A 
HETATM   24  C   UNL     1      30.602  43.135  55.306  1.00  0.00     0.014 A 
HETATM   25  C   UNL     1      31.099  44.025  56.257  1.00  0.00     0.001 A 
HETATM   26  C   UNL     1      30.474  45.252  56.443  1.00  0.00     0.002 A 
ENDBRANCH  16  17
ENDBRANCH   2  16
TORSDOF 6
ENDMDL
MODEL 8
REMARK VINA RESULT:      -8.5     13.509     14.690
REMARK  6 active torsions:
REMARK  status: ('A' for Active; 'I' for Inactive)
REMARK    1  A    between atoms: C_5  and  C_6 
REMARK    2  A    between atoms: C_6  and  O_7 
REMARK    3  A    between atoms: C_6  and  C_8 
REMARK    4  A    between atoms: C_8  and  N_9 
REMARK       I    between atoms: N_9  and  C_10 
REMARK    5  A    between atoms: C_10  and  C_11 
REMARK    6  A    between atoms: C_11  and  C_12 
ROOT
HETATM    1  N   UNL     1      27.966  48.296  39.542  1.00  0.00    -0.358 N 
HETATM    2  C   UNL     1      29.320  48.060  39.432  1.00  0.00     0.222 C 
HETATM    3  O   UNL     1      29.939  48.225  38.385  1.00  0.00    -0.273 OA
HETATM    4  H   UNL     1      27.574  48.386  40.473  1.00  0.00     0.162 HD
ENDROOT
BRANCH   1   5
HETATM    5  C   UNL     1      27.233  48.940  38.452  1.00  0.00     0.159 C 
BRANCH   5   6
HETATM    6  C   UNL     1      26.737  50.362  38.793  1.00  0.00     0.169 C 
BRANCH   6   7
HETATM    7  C   UNL     1      27.865  51.209  39.347  1.00  0.00    -0.028 A 
HETATM    8  C   UNL     1      28.952  51.611  38.561  1.00  0.00     0.010 A 
HETATM    9  C   UNL     1      29.964  52.415  39.095  1.00  0.00     0.007 A 
HETATM   10  C   UNL     1      29.911  52.829  40.430  1.00  0.00    -0.062 A 
HETATM   11  C   UNL     1      30.976  53.717  41.000  1.00  0.00     0.048 C 
HETATM   12  C   UNL     1      28.820  52.442  41.217  1.00  0.00     0.007 A 
HETATM   13  C   UNL     1      27.811  51.637  40.683  1.00  0.00     0.010 A 
ENDBRANCH   6   7
BRANCH   6  14
HETATM   14  O   UNL     1      25.663  50.261  39.737  1.00  0.00    -0.389 OA
HETATM   15  H   UNL     1      25.405  51.180  39.924  1.00  0.00     0.210 HD
ENDBRANCH   6  14
ENDBRANCH   5   6
ENDBRANCH   1   5
BRANCH   2  16
HETATM   16  C   UNL     1      29.995  47.595  40.710  1.00  0.00     0.142 C 
BRANCH  16  17
HETATM   17  C   UNL     1      31.122  48.478  41.181  1.00  0.00    -0.031 A 
HETATM   18  C   UNL     1      32.437  48.318  40.765  1.00  0.00     0.125 A 
HETATM   19  N   UNL     1      33.474  49.071  41.199  1.00  0.00    -0.260 NA
HETATM   20  C   UNL     1      33.231  50.017  42.120  1.00  0.00     0.066 A 
HETATM   21  C   UNL     1      31.940  50.250  42.634  1.00  0.00    -0.007 A 
HETATM   22  C   UNL     1      34.279  50.793  42.596  1.00  0.00     0.032 A 
HETATM   23  C   UNL     1      30.886  49.461  42.147  1.00  0.00     0.022 A 
HETATM   24  C   UNL     1      31.737  51.241  43.611  1.00  0.00     0.014 A 
HETATM   25  C   UNL     1      32.808  52.003  44.076  1.00  0.00     0.001 A 
HETATM   26  C   UNL     1      34.081  51.780  43.567  1.00  0.00     0.002 A 
ENDBRANCH  16  17
ENDBRANCH   2  16
TORSDOF 6
ENDMDL
MODEL 9
REMARK VINA RESULT:      -8.4     13.673     15.374
REMARK  6 active torsions:
REMARK  status: ('A' for Active; 'I' for Inactive)
REMARK    1  A    between atoms: C_5  and  C_6 
REMARK    2  A    between atoms: C_6  and  O_7 
REMARK    3  A    between atoms: C_6  and  C_8 
REMARK    4  A    between atoms: C_8  and  N_9 
REMARK       I    between atoms: N_9  and  C_10 
REMARK    5  A    between atoms: C_10  and  C_11 
REMARK    6  A    between atoms: C_11  and  C_12 
ROOT
HETATM    1  N   UNL     1      28.733  49.176  39.601  1.00  0.00    -0.358 N 
HETATM    2  C   UNL     1      29.719  48.233  39.400  1.00  0.00     0.222 C 
HETATM    3  O   UNL     1      30.076  47.876  38.281  1.00  0.00    -0.273 OA
HETATM    4  H   UNL     1      28.666  49.604  40.517  1.00  0.00     0.162 HD
ENDROOT
BRANCH   1   5
HETATM    5  C   UNL     1      28.191  49.937  38.476  1.00  0.00     0.159 C 
BRANCH   5   6
HETATM    6  C   UNL     1      28.393  51.462  38.604  1.00  0.00     0.169 C 
BRANCH   6   7
HETATM    7  C   UNL     1      29.850  51.797  38.849  1.00  0.00    -0.028 A 
HETATM    8  C   UNL     1      30.270  52.535  39.962  1.00  0.00     0.010 A 
HETATM    9  C   UNL     1      31.626  52.805  40.172  1.00  0.00     0.007 A 
HETATM   10  C   UNL     1      32.590  52.346  39.269  1.00  0.00    -0.062 A 
HETATM   11  C   UNL     1      34.047  52.604  39.507  1.00  0.00     0.048 C 
HETATM   12  C   UNL     1      32.178  51.595  38.163  1.00  0.00     0.007 A 
HETATM   13  C   UNL     1      30.823  51.328  37.951  1.00  0.00     0.010 A 
ENDBRANCH   6   7
BRANCH   6  14
HETATM   14  O   UNL     1      27.571  51.948  39.673  1.00  0.00    -0.389 OA
HETATM   15  H   UNL     1      27.251  51.149  40.127  1.00  0.00     0.210 HD
ENDBRANCH   6  14
ENDBRANCH   5   6
ENDBRANCH   1   5
BRANCH   2  16
HETATM   16  C   UNL     1      30.346  47.681  40.667  1.00  0.00     0.142 C 
BRANCH  16  17
HETATM   17  C   UNL     1      31.226  48.655  41.407  1.00  0.00    -0.031 A 
HETATM   18  C   UNL     1      30.738  49.568  42.333  1.00  0.00     0.125 A 
HETATM   19  N   UNL     1      31.498  50.479  42.984  1.00  0.00    -0.260 NA
HETATM   20  C   UNL     1      32.810  50.533  42.697  1.00  0.00     0.066 A 
HETATM   21  C   UNL     1      33.408  49.673  41.756  1.00  0.00    -0.007 A 
HETATM   22  C   UNL     1      33.611  51.469  43.337  1.00  0.00     0.032 A 
HETATM   23  C   UNL     1      32.591  48.730  41.113  1.00  0.00     0.022 A 
HETATM   24  C   UNL     1      34.783  49.779  41.476  1.00  0.00     0.014 A 
HETATM   25  C   UNL     1      35.564  50.732  42.130  1.00  0.00     0.001 A 
HETATM   26  C   UNL     1      34.977  51.577  43.063  1.00  0.00     0.002 A 
ENDBRANCH  16  17
ENDBRANCH   2  16
TORSDOF 6
ENDMDL
MODEL 10
REMARK VINA RESULT:      -8.3      4.135      8.352
REMARK  6 active torsions:
REMARK  status: ('A' for Active; 'I' for Inactive)
REMARK    1  A    between atoms: C_5  and  C_6 
REMARK    2  A    between atoms: C_6  and  O_7 
REMARK    3  A    between atoms: C_6  and  C_8 
REMARK    4  A    between atoms: C_8  and  N_9 
REMARK       I    between atoms: N_9  and  C_10 
REMARK    5  A    between atoms: C_10  and  C_11 
REMARK    6  A    between atoms: C_11  and  C_12 
ROOT
HETATM    1  N   UNL     1      26.154  45.765  50.938  1.00  0.00    -0.358 N 
HETATM    2  C   UNL     1      26.228  47.114  51.215  1.00  0.00     0.222 C 
HETATM    3  O   UNL     1      26.006  47.574  52.331  1.00  0.00    -0.273 OA
HETATM    4  H   UNL     1      26.588  45.431  50.084  1.00  0.00     0.162 HD
ENDROOT
BRANCH   1   5
HETATM    5  C   UNL     1      25.988  44.792  52.017  1.00  0.00     0.159 C 
BRANCH   5   6
HETATM    6  C   UNL     1      26.998  43.625  51.962  1.00  0.00     0.169 C 
BRANCH   6   7
HETATM    7  C   UNL     1      28.040  43.759  53.053  1.00  0.00    -0.028 A 
HETATM    8  C   UNL     1      29.164  42.926  53.117  1.00  0.00     0.010 A 
HETATM    9  C   UNL     1      30.121  43.092  54.124  1.00  0.00     0.007 A 
HETATM   10  C   UNL     1      29.969  44.092  55.090  1.00  0.00    -0.062 A 
HETATM   11  C   UNL     1      31.008  44.295  56.152  1.00  0.00     0.048 C 
HETATM   12  C   UNL     1      28.856  44.936  55.023  1.00  0.00     0.007 A 
HETATM   13  C   UNL     1      27.899  44.768  54.019  1.00  0.00     0.010 A 
ENDBRANCH   6   7
BRANCH   6  14
HETATM   14  O   UNL     1      27.613  43.610  50.667  1.00  0.00    -0.389 OA
HETATM   15  H   UNL     1      27.620  42.674  50.403  1.00  0.00     0.210 HD
ENDBRANCH   6  14
ENDBRANCH   5   6
ENDBRANCH   1   5
BRANCH   2  16
HETATM   16  C   UNL     1      26.622  47.989  50.038  1.00  0.00     0.142 C 
BRANCH  16  17
HETATM   17  C   UNL     1      25.463  48.617  49.309  1.00  0.00    -0.031 A 
HETATM   18  C   UNL     1      25.610  49.658  48.401  1.00  0.00     0.125 A 
HETATM   19  N   UNL     1      24.585  50.265  47.760  1.00  0.00    -0.260 NA
HETATM   20  C   UNL     1      23.334  49.864  48.039  1.00  0.00     0.066 A 
HETATM   21  C   UNL     1      23.064  48.835  48.962  1.00  0.00    -0.007 A 
HETATM   22  C   UNL     1      22.261  50.481  47.409  1.00  0.00     0.032 A 
HETATM   23  C   UNL     1      24.154  48.216  49.595  1.00  0.00     0.022 A 
HETATM   24  C   UNL     1      21.736  48.460  49.234  1.00  0.00     0.014 A 
HETATM   25  C   UNL     1      20.677  49.100  48.591  1.00  0.00     0.001 A 
HETATM   26  C   UNL     1      20.940  50.112  47.675  1.00  0.00     0.002 A 
ENDBRANCH  16  17
ENDBRANCH   2  16
TORSDOF 6
ENDMDL
