MODEL 1
REMARK VINA RESULT:     -10.1      0.000      0.000
REMARK  5 active torsions:
REMARK  status: ('A' for Active; 'I' for Inactive)
REMARK    1  A    between atoms: C_5  and  C_6 
REMARK    2  A    between atoms: C_14  and  C_15 
REMARK       I    between atoms: C_15  and  N_16 
REMARK    3  A    between atoms: N_16  and  C_17 
REMARK    4  A    between atoms: C_20  and  C_21 
REMARK    5  A    between atoms: C_23  and  N_24 
ROOT
HETATM    1  C   UNL     1      24.798  47.798  49.934  1.00  0.00     0.262 C 
HETATM    2  N   UNL     1      25.622  46.762  49.555  1.00  0.00    -0.301 N 
HETATM    3  O   UNL     1      24.337  47.937  51.061  1.00  0.00    -0.267 OA
HETATM    4  H   UNL     1      26.215  46.852  48.746  1.00  0.00     0.171 HD
ENDROOT
BRANCH   1   5
HETATM    5  C   UNL     1      24.537  48.804  48.911  1.00  0.00     0.095 A 
HETATM    6  C   UNL     1      25.402  49.674  48.269  1.00  0.00     0.093 A 
HETATM    7  C   UNL     1      26.852  49.951  48.305  1.00  0.00     0.080 C 
HETATM    8  O   UNL     1      24.706  50.423  47.374  1.00  0.00    -0.217 OA
HETATM    9  N   UNL     1      23.383  50.053  47.378  1.00  0.00    -0.127 NA
HETATM   10  C   UNL     1      23.274  49.072  48.284  1.00  0.00     0.117 A 
BRANCH  10  11
HETATM   11  C   UNL     1      21.992  48.424  48.520  1.00  0.00     0.056 A 
HETATM   12  C   UNL     1      20.952  49.047  49.220  1.00  0.00     0.049 A 
HETATM   13 CL   UNL     1      21.096  50.648  49.862  1.00  0.00    -0.083 Cl
HETATM   14  C   UNL     1      19.748  48.367  49.451  1.00  0.00     0.025 A 
HETATM   15  C   UNL     1      19.578  47.059  48.994  1.00  0.00     0.005 A 
HETATM   16  C   UNL     1      20.606  46.432  48.297  1.00  0.00     0.043 A 
HETATM   17  C   UNL     1      21.797  47.117  48.059  1.00  0.00     0.130 A 
HETATM   18  F   UNL     1      22.769  46.484  47.382  1.00  0.00    -0.205 F 
ENDBRANCH  10  11
ENDBRANCH   1   5
BRANCH   2  19
HETATM   19  C   UNL     1      25.873  45.629  50.291  1.00  0.00     0.173 A 
HETATM   20  S   UNL     1      24.900  44.233  50.179  1.00  0.00    -0.061 SA
HETATM   21  C   UNL     1      25.927  43.434  51.288  1.00  0.00     0.085 A 
HETATM   22  C   UNL     1      26.961  44.272  51.653  1.00  0.00     0.076 A 
HETATM   23  N   UNL     1      26.931  45.529  51.061  1.00  0.00    -0.223 NA
BRANCH  22  24
HETATM   24  C   UNL     1      27.996  43.907  52.615  1.00  0.00    -0.004 A 
HETATM   25  C   UNL     1      28.208  44.652  53.784  1.00  0.00     0.050 A 
HETATM   26  C   UNL     1      29.238  44.290  54.666  1.00  0.00     0.103 A 
HETATM   27  C   UNL     1      30.058  43.188  54.397  1.00  0.00     0.036 A 
HETATM   28  C   UNL     1      29.838  42.439  53.243  1.00  0.00     0.003 A 
HETATM   29  C   UNL     1      28.812  42.795  52.362  1.00  0.00     0.014 A 
BRANCH  26  30
HETATM   30  N   UNL     1      29.460  45.083  55.883  1.00  0.00    -0.116 N 
HETATM   31  O   UNL     1      28.546  45.832  56.257  1.00  0.00    -0.532 OA
HETATM   32  O   UNL     1      30.549  44.959  56.460  1.00  0.00    -0.532 OA
ENDBRANCH  26  30
ENDBRANCH  22  24
ENDBRANCH   2  19
TORSDOF 5
ENDMDL
MODEL 2
REMARK VINA RESULT:      -9.3      1.562      2.023
REMARK  5 active torsions:
REMARK  status: ('A' for Active; 'I' for Inactive)
REMARK    1  A    between atoms: C_5  and  C_6 
REMARK    2  A    between atoms: C_14  and  C_15 
REMARK       I    between atoms: C_15  and  N_16 
REMARK    3  A    between atoms: N_16  and  C_17 
REMARK    4  A    between atoms: C_20  and  C_21 
REMARK    5  A    between atoms: C_23  and  N_24 
ROOT
HETATM    1  C   UNL     1      24.122  47.634  49.513  1.00  0.00     0.262 C 
HETATM    2  N   UNL     1      24.824  47.784  50.688  1.00  0.00    -0.301 N 
HETATM    3  O   UNL     1      23.605  46.585  49.147  1.00  0.00    -0.267 OA
HETATM    4  H   UNL     1      24.953  48.698  51.091  1.00  0.00     0.171 HD
ENDROOT
BRANCH   1   5
HETATM    5  C   UNL     1      23.957  48.844  48.716  1.00  0.00     0.095 A 
HETATM    6  C   UNL     1      24.905  49.701  48.184  1.00  0.00     0.093 A 
HETATM    7  C   UNL     1      26.380  49.775  48.162  1.00  0.00     0.080 C 
HETATM    8  O   UNL     1      24.281  50.694  47.498  1.00  0.00    -0.217 OA
HETATM    9  N   UNL     1      22.920  50.506  47.531  1.00  0.00    -0.127 NA
HETATM   10  C   UNL     1      22.717  49.391  48.246  1.00  0.00     0.117 A 
BRANCH  10  11
HETATM   11  C   UNL     1      21.369  48.882  48.452  1.00  0.00     0.056 A 
HETATM   12  C   UNL     1      20.492  49.436  49.393  1.00  0.00     0.049 A 
HETATM   13 CL   UNL     1      20.932  50.780  50.391  1.00  0.00    -0.083 Cl
HETATM   14  C   UNL     1      19.215  48.887  49.579  1.00  0.00     0.025 A 
HETATM   15  C   UNL     1      18.809  47.778  48.834  1.00  0.00     0.005 A 
HETATM   16  C   UNL     1      19.673  47.222  47.897  1.00  0.00     0.043 A 
HETATM   17  C   UNL     1      20.937  47.779  47.707  1.00  0.00     0.130 A 
HETATM   18  F   UNL     1      21.747  47.219  46.793  1.00  0.00    -0.205 F 
ENDBRANCH  10  11
ENDBRANCH   1   5
BRANCH   2  19
HETATM   19  C   UNL     1      25.239  46.763  51.508  1.00  0.00     0.173 A 
HETATM   20  S   UNL     1      24.561  45.200  51.437  1.00  0.00    -0.061 SA
HETATM   21  C   UNL     1      25.648  44.678  52.647  1.00  0.00     0.085 A 
HETATM   22  C   UNL     1      26.478  45.720  53.011  1.00  0.00     0.076 A 
HETATM   23  N   UNL     1      26.245  46.913  52.337  1.00  0.00    -0.223 NA
BRANCH  22  24
HETATM   24  C   UNL     1      27.499  45.615  54.048  1.00  0.00    -0.004 A 
HETATM   25  C   UNL     1      28.449  44.584  54.041  1.00  0.00     0.050 A 
HETATM   26  C   UNL     1      29.392  44.496  55.077  1.00  0.00     0.103 A 
HETATM   27  C   UNL     1      29.402  45.430  56.119  1.00  0.00     0.036 A 
HETATM   28  C   UNL     1      28.467  46.464  56.118  1.00  0.00     0.003 A 
HETATM   29  C   UNL     1      27.526  46.557  55.087  1.00  0.00     0.014 A 
BRANCH  26  30
HETATM   30  N   UNL     1      30.377  43.406  55.068  1.00  0.00    -0.116 N 
HETATM   31  O   UNL     1      30.560  42.804  54.000  1.00  0.00    -0.532 OA
HETATM   32  O   UNL     1      30.962  43.150  56.129  1.00  0.00    -0.532 OA
ENDBRANCH  26  30
ENDBRANCH  22  24
ENDBRANCH   2  19
TORSDOF 5
ENDMDL
MODEL 3
REMARK VINA RESULT:      -9.2      2.621      3.075
REMARK  5 active torsions:
REMARK  status: ('A' for Active; 'I' for Inactive)
REMARK    1  A    between atoms: C_5  and  C_6 
REMARK    2  A    between atoms: C_14  and  C_15 
REMARK       I    between atoms: C_15  and  N_16 
REMARK    3  A    between atoms: N_16  and  C_17 
REMARK    4  A    between atoms: C_20  and  C_21 
REMARK    5  A    between atoms: C_23  and  N_24 
ROOT
HETATM    1  C   UNL     1      24.697  47.596  50.039  1.00  0.00     0.262 C 
HETATM    2  N   UNL     1      25.689  47.760  50.978  1.00  0.00    -0.301 N 
HETATM    3  O   UNL     1      23.890  46.672  50.040  1.00  0.00    -0.267 OA
HETATM    4  H   UNL     1      26.109  48.664  51.123  1.00  0.00     0.171 HD
ENDROOT
BRANCH   1   5
HETATM    5  C   UNL     1      24.599  48.647  49.032  1.00  0.00     0.095 A 
HETATM    6  C   UNL     1      25.588  49.416  48.443  1.00  0.00     0.093 A 
HETATM    7  C   UNL     1      27.058  49.511  48.535  1.00  0.00     0.080 C 
HETATM    8  O   UNL     1      25.023  50.264  47.543  1.00  0.00    -0.217 OA
HETATM    9  N   UNL     1      23.665  50.060  47.492  1.00  0.00    -0.127 NA
HETATM   10  C   UNL     1      23.403  49.082  48.370  1.00  0.00     0.117 A 
BRANCH  10  11
HETATM   11  C   UNL     1      22.043  48.592  48.545  1.00  0.00     0.056 A 
HETATM   12  C   UNL     1      21.092  49.273  49.315  1.00  0.00     0.049 A 
HETATM   13 CL   UNL     1      21.448  50.762  50.123  1.00  0.00    -0.083 Cl
HETATM   14  C   UNL     1      19.806  48.742  49.482  1.00  0.00     0.025 A 
HETATM   15  C   UNL     1      19.463  47.525  48.890  1.00  0.00     0.005 A 
HETATM   16  C   UNL     1      20.401  46.842  48.122  1.00  0.00     0.043 A 
HETATM   17  C   UNL     1      21.675  47.380  47.949  1.00  0.00     0.130 A 
HETATM   18  F   UNL     1      22.556  46.697  47.201  1.00  0.00    -0.205 F 
ENDBRANCH  10  11
ENDBRANCH   1   5
BRANCH   2  19
HETATM   19  C   UNL     1      26.069  46.827  51.912  1.00  0.00     0.173 A 
HETATM   20  S   UNL     1      25.805  47.044  53.582  1.00  0.00    -0.061 SA
HETATM   21  C   UNL     1      26.478  45.503  53.885  1.00  0.00     0.085 A 
HETATM   22  C   UNL     1      26.838  44.908  52.692  1.00  0.00     0.076 A 
HETATM   23  N   UNL     1      26.583  45.672  51.559  1.00  0.00    -0.223 NA
BRANCH  22  24
HETATM   24  C   UNL     1      27.475  43.598  52.602  1.00  0.00    -0.004 A 
HETATM   25  C   UNL     1      27.484  42.867  51.406  1.00  0.00     0.050 A 
HETATM   26  C   UNL     1      28.075  41.594  51.370  1.00  0.00     0.103 A 
HETATM   27  C   UNL     1      28.661  41.043  52.515  1.00  0.00     0.036 A 
HETATM   28  C   UNL     1      28.665  41.776  53.700  1.00  0.00     0.003 A 
HETATM   29  C   UNL     1      28.080  43.045  53.741  1.00  0.00     0.014 A 
BRANCH  26  30
HETATM   30  N   UNL     1      28.070  40.830  50.115  1.00  0.00    -0.116 N 
HETATM   31  O   UNL     1      28.488  39.663  50.150  1.00  0.00    -0.532 OA
HETATM   32  O   UNL     1      27.653  41.398  49.096  1.00  0.00    -0.532 OA
ENDBRANCH  26  30
ENDBRANCH  22  24
ENDBRANCH   2  19
TORSDOF 5
ENDMDL
MODEL 4
REMARK VINA RESULT:      -9.0      4.055      8.706
REMARK  5 active torsions:
REMARK  status: ('A' for Active; 'I' for Inactive)
REMARK    1  A    between atoms: C_5  and  C_6 
REMARK    2  A    between atoms: C_14  and  C_15 
REMARK       I    between atoms: C_15  and  N_16 
REMARK    3  A    between atoms: N_16  and  C_17 
REMARK    4  A    between atoms: C_20  and  C_21 
REMARK    5  A    between atoms: C_23  and  N_24 
ROOT
HETATM    1  C   UNL     1      23.975  43.611  50.025  1.00  0.00     0.262 C 
HETATM    2  N   UNL     1      24.149  44.422  48.927  1.00  0.00    -0.301 N 
HETATM    3  O   UNL     1      22.890  43.375  50.545  1.00  0.00    -0.267 OA
HETATM    4  H   UNL     1      24.977  44.340  48.359  1.00  0.00     0.171 HD
ENDROOT
BRANCH   1   5
HETATM    5  C   UNL     1      25.180  42.964  50.531  1.00  0.00     0.095 A 
HETATM    6  C   UNL     1      25.754  41.751  50.190  1.00  0.00     0.093 A 
HETATM    7  C   UNL     1      25.454  40.662  49.238  1.00  0.00     0.080 C 
HETATM    8  O   UNL     1      26.887  41.568  50.917  1.00  0.00    -0.217 OA
HETATM    9  N   UNL     1      27.107  42.655  51.727  1.00  0.00    -0.127 NA
HETATM   10  C   UNL     1      26.098  43.505  51.492  1.00  0.00     0.117 A 
BRANCH  10  11
HETATM   11  C   UNL     1      26.040  44.790  52.172  1.00  0.00     0.056 A 
HETATM   12  C   UNL     1      26.340  45.996  51.527  1.00  0.00     0.049 A 
HETATM   13 CL   UNL     1      26.798  46.066  49.859  1.00  0.00    -0.083 Cl
HETATM   14  C   UNL     1      26.304  47.206  52.236  1.00  0.00     0.025 A 
HETATM   15  C   UNL     1      25.979  47.218  53.593  1.00  0.00     0.005 A 
HETATM   16  C   UNL     1      25.680  46.024  54.242  1.00  0.00     0.043 A 
HETATM   17  C   UNL     1      25.705  44.826  53.530  1.00  0.00     0.130 A 
HETATM   18  F   UNL     1      25.409  43.692  54.186  1.00  0.00    -0.205 F 
ENDBRANCH  10  11
ENDBRANCH   1   5
BRANCH   2  19
HETATM   19  C   UNL     1      23.197  45.253  48.387  1.00  0.00     0.173 A 
HETATM   20  S   UNL     1      22.222  44.788  47.067  1.00  0.00    -0.061 SA
HETATM   21  C   UNL     1      21.400  46.284  47.154  1.00  0.00     0.085 A 
HETATM   22  C   UNL     1      21.902  47.034  48.199  1.00  0.00     0.076 A 
HETATM   23  N   UNL     1      22.926  46.424  48.915  1.00  0.00    -0.223 NA
BRANCH  22  24
HETATM   24  C   UNL     1      21.440  48.379  48.525  1.00  0.00    -0.004 A 
HETATM   25  C   UNL     1      20.347  48.593  49.376  1.00  0.00     0.050 A 
HETATM   26  C   UNL     1      19.910  49.902  49.635  1.00  0.00     0.103 A 
HETATM   27  C   UNL     1      20.555  51.001  49.057  1.00  0.00     0.036 A 
HETATM   28  C   UNL     1      21.651  50.788  48.222  1.00  0.00     0.003 A 
HETATM   29  C   UNL     1      22.091  49.487  47.963  1.00  0.00     0.014 A 
BRANCH  26  30
HETATM   30  N   UNL     1      18.757  50.117  50.519  1.00  0.00    -0.116 N 
HETATM   31  O   UNL     1      18.609  49.338  51.472  1.00  0.00    -0.532 OA
HETATM   32  O   UNL     1      17.999  51.061  50.257  1.00  0.00    -0.532 OA
ENDBRANCH  26  30
ENDBRANCH  22  24
ENDBRANCH   2  19
TORSDOF 5
ENDMDL
MODEL 5
REMARK VINA RESULT:      -8.8      3.864      9.226
REMARK  5 active torsions:
REMARK  status: ('A' for Active; 'I' for Inactive)
REMARK    1  A    between atoms: C_5  and  C_6 
REMARK    2  A    between atoms: C_14  and  C_15 
REMARK       I    between atoms: C_15  and  N_16 
REMARK    3  A    between atoms: N_16  and  C_17 
REMARK    4  A    between atoms: C_20  and  C_21 
REMARK    5  A    between atoms: C_23  and  N_24 
ROOT
HETATM    1  C   UNL     1      26.698  44.807  50.188  1.00  0.00     0.262 C 
HETATM    2  N   UNL     1      25.580  45.537  50.523  1.00  0.00    -0.301 N 
HETATM    3  O   UNL     1      27.659  45.257  49.573  1.00  0.00    -0.267 OA
HETATM    4  H   UNL     1      24.981  45.234  51.274  1.00  0.00     0.171 HD
ENDROOT
BRANCH   1   5
HETATM    5  C   UNL     1      26.723  43.431  50.671  1.00  0.00     0.095 A 
HETATM    6  C   UNL     1      26.471  42.244  50.004  1.00  0.00     0.093 A 
HETATM    7  C   UNL     1      26.111  41.854  48.626  1.00  0.00     0.080 C 
HETATM    8  O   UNL     1      26.630  41.202  50.862  1.00  0.00    -0.217 OA
HETATM    9  N   UNL     1      27.016  41.664  52.097  1.00  0.00    -0.127 NA
HETATM   10  C   UNL     1      27.090  42.998  51.988  1.00  0.00     0.117 A 
BRANCH  10  11
HETATM   11  C   UNL     1      27.508  43.808  53.123  1.00  0.00     0.056 A 
HETATM   12  C   UNL     1      28.842  43.882  53.543  1.00  0.00     0.049 A 
HETATM   13 CL   UNL     1      30.114  43.020  52.745  1.00  0.00    -0.083 Cl
HETATM   14  C   UNL     1      29.189  44.650  54.663  1.00  0.00     0.025 A 
HETATM   15  C   UNL     1      28.208  45.341  55.377  1.00  0.00     0.005 A 
HETATM   16  C   UNL     1      26.880  45.273  54.966  1.00  0.00     0.043 A 
HETATM   17  C   UNL     1      26.542  44.519  53.844  1.00  0.00     0.130 A 
HETATM   18  F   UNL     1      25.252  44.476  53.473  1.00  0.00    -0.205 F 
ENDBRANCH  10  11
ENDBRANCH   1   5
BRANCH   2  19
HETATM   19  C   UNL     1      25.268  46.786  50.045  1.00  0.00     0.173 A 
HETATM   20  S   UNL     1      26.461  47.927  49.618  1.00  0.00    -0.061 SA
HETATM   21  C   UNL     1      25.239  49.016  49.128  1.00  0.00     0.085 A 
HETATM   22  C   UNL     1      23.999  48.433  49.297  1.00  0.00     0.076 A 
HETATM   23  N   UNL     1      24.026  47.142  49.810  1.00  0.00    -0.223 NA
BRANCH  22  24
HETATM   24  C   UNL     1      22.741  49.112  49.004  1.00  0.00    -0.004 A 
HETATM   25  C   UNL     1      21.518  48.426  49.011  1.00  0.00     0.050 A 
HETATM   26  C   UNL     1      20.333  49.106  48.688  1.00  0.00     0.103 A 
HETATM   27  C   UNL     1      20.354  50.467  48.362  1.00  0.00     0.036 A 
HETATM   28  C   UNL     1      21.568  51.153  48.370  1.00  0.00     0.003 A 
HETATM   29  C   UNL     1      22.750  50.479  48.693  1.00  0.00     0.014 A 
BRANCH  26  30
HETATM   30  N   UNL     1      19.058  48.377  48.686  1.00  0.00    -0.116 N 
HETATM   31  O   UNL     1      18.548  48.107  49.783  1.00  0.00    -0.532 OA
HETATM   32  O   UNL     1      18.571  48.071  47.589  1.00  0.00    -0.532 OA
ENDBRANCH  26  30
ENDBRANCH  22  24
ENDBRANCH   2  19
TORSDOF 5
ENDMDL
MODEL 6
REMARK VINA RESULT:      -8.8      5.512      7.822
REMARK  5 active torsions:
REMARK  status: ('A' for Active; 'I' for Inactive)
REMARK    1  A    between atoms: C_5  and  C_6 
REMARK    2  A    between atoms: C_14  and  C_15 
REMARK       I    between atoms: C_15  and  N_16 
REMARK    3  A    between atoms: N_16  and  C_17 
REMARK    4  A    between atoms: C_20  and  C_21 
REMARK    5  A    between atoms: C_23  and  N_24 
ROOT
HETATM    1  C   UNL     1      26.394  41.712  49.667  1.00  0.00     0.262 C 
HETATM    2  N   UNL     1      26.421  41.326  50.988  1.00  0.00    -0.301 N 
HETATM    3  O   UNL     1      27.247  42.412  49.134  1.00  0.00    -0.267 OA
HETATM    4  H   UNL     1      25.898  40.522  51.296  1.00  0.00     0.171 HD
ENDROOT
BRANCH   1   5
HETATM    5  C   UNL     1      25.292  41.176  48.875  1.00  0.00     0.095 A 
HETATM    6  C   UNL     1      23.978  41.598  48.771  1.00  0.00     0.093 A 
HETATM    7  C   UNL     1      23.162  42.689  49.342  1.00  0.00     0.080 C 
HETATM    8  O   UNL     1      23.315  40.798  47.896  1.00  0.00    -0.217 OA
HETATM    9  N   UNL     1      24.171  39.854  47.380  1.00  0.00    -0.127 NA
HETATM   10  C   UNL     1      25.362  40.082  47.950  1.00  0.00     0.117 A 
BRANCH  10  11
HETATM   11  C   UNL     1      26.517  39.270  47.596  1.00  0.00     0.056 A 
HETATM   12  C   UNL     1      27.177  39.397  46.367  1.00  0.00     0.049 A 
HETATM   13 CL   UNL     1      26.682  40.537  45.162  1.00  0.00    -0.083 Cl
HETATM   14  C   UNL     1      28.264  38.566  46.060  1.00  0.00     0.025 A 
HETATM   15  C   UNL     1      28.693  37.599  46.971  1.00  0.00     0.005 A 
HETATM   16  C   UNL     1      28.042  37.466  48.194  1.00  0.00     0.043 A 
HETATM   17  C   UNL     1      26.970  38.303  48.500  1.00  0.00     0.130 A 
HETATM   18  F   UNL     1      26.366  38.150  49.689  1.00  0.00    -0.205 F 
ENDBRANCH  10  11
ENDBRANCH   1   5
BRANCH   2  19
HETATM   19  C   UNL     1      27.261  41.831  51.951  1.00  0.00     0.173 A 
HETATM   20  S   UNL     1      28.673  41.015  52.452  1.00  0.00    -0.061 SA
HETATM   21  C   UNL     1      29.042  42.308  53.506  1.00  0.00     0.085 A 
HETATM   22  C   UNL     1      28.080  43.293  53.392  1.00  0.00     0.076 A 
HETATM   23  N   UNL     1      27.067  43.016  52.481  1.00  0.00    -0.223 NA
BRANCH  22  24
HETATM   24  C   UNL     1      28.081  44.519  54.182  1.00  0.00    -0.004 A 
HETATM   25  C   UNL     1      27.080  45.489  54.034  1.00  0.00     0.050 A 
HETATM   26  C   UNL     1      27.137  46.673  54.786  1.00  0.00     0.103 A 
HETATM   27  C   UNL     1      28.181  46.898  55.691  1.00  0.00     0.036 A 
HETATM   28  C   UNL     1      29.168  45.927  55.849  1.00  0.00     0.003 A 
HETATM   29  C   UNL     1      29.115  44.746  55.103  1.00  0.00     0.014 A 
BRANCH  26  30
HETATM   30  N   UNL     1      26.090  47.689  54.616  1.00  0.00    -0.116 N 
HETATM   31  O   UNL     1      25.506  47.736  53.523  1.00  0.00    -0.532 OA
HETATM   32  O   UNL     1      25.855  48.441  55.572  1.00  0.00    -0.532 OA
ENDBRANCH  26  30
ENDBRANCH  22  24
ENDBRANCH   2  19
TORSDOF 5
ENDMDL
MODEL 7
REMARK VINA RESULT:      -8.6      5.304      7.496
REMARK  5 active torsions:
REMARK  status: ('A' for Active; 'I' for Inactive)
REMARK    1  A    between atoms: C_5  and  C_6 
REMARK    2  A    between atoms: C_14  and  C_15 
REMARK       I    between atoms: C_15  and  N_16 
REMARK    3  A    between atoms: N_16  and  C_17 
REMARK    4  A    between atoms: C_20  and  C_21 
REMARK    5  A    between atoms: C_23  and  N_24 
ROOT
HETATM    1  C   UNL     1      25.999  42.256  49.313  1.00  0.00     0.262 C 
HETATM    2  N   UNL     1      25.577  42.411  50.614  1.00  0.00    -0.301 N 
HETATM    3  O   UNL     1      27.002  42.781  48.844  1.00  0.00    -0.267 OA
HETATM    4  H   UNL     1      24.956  41.738  51.033  1.00  0.00     0.171 HD
ENDROOT
BRANCH   1   5
HETATM    5  C   UNL     1      25.202  41.349  48.495  1.00  0.00     0.095 A 
HETATM    6  C   UNL     1      23.950  41.521  47.929  1.00  0.00     0.093 A 
HETATM    7  C   UNL     1      22.943  42.600  47.880  1.00  0.00     0.080 C 
HETATM    8  O   UNL     1      23.612  40.403  47.234  1.00  0.00    -0.217 OA
HETATM    9  N   UNL     1      24.632  39.484  47.295  1.00  0.00    -0.127 NA
HETATM   10  C   UNL     1      25.596  40.048  48.036  1.00  0.00     0.117 A 
BRANCH  10  11
HETATM   11  C   UNL     1      26.848  39.346  48.276  1.00  0.00     0.056 A 
HETATM   12  C   UNL     1      27.819  39.180  47.280  1.00  0.00     0.049 A 
HETATM   13 CL   UNL     1      27.619  39.801  45.677  1.00  0.00    -0.083 Cl
HETATM   14  C   UNL     1      28.995  38.465  47.552  1.00  0.00     0.025 A 
HETATM   15  C   UNL     1      29.204  37.904  48.812  1.00  0.00     0.005 A 
HETATM   16  C   UNL     1      28.245  38.065  49.807  1.00  0.00     0.043 A 
HETATM   17  C   UNL     1      27.084  38.787  49.537  1.00  0.00     0.130 A 
HETATM   18  F   UNL     1      26.179  38.925  50.519  1.00  0.00    -0.205 F 
ENDBRANCH  10  11
ENDBRANCH   1   5
BRANCH   2  19
HETATM   19  C   UNL     1      26.070  43.329  51.510  1.00  0.00     0.173 A 
HETATM   20  S   UNL     1      25.353  44.860  51.738  1.00  0.00    -0.061 SA
HETATM   21  C   UNL     1      26.499  45.210  52.957  1.00  0.00     0.085 A 
HETATM   22  C   UNL     1      27.340  44.129  53.132  1.00  0.00     0.076 A 
HETATM   23  N   UNL     1      27.074  43.043  52.305  1.00  0.00    -0.223 NA
BRANCH  22  24
HETATM   24  C   UNL     1      28.454  44.115  54.075  1.00  0.00    -0.004 A 
HETATM   25  C   UNL     1      28.482  44.966  55.189  1.00  0.00     0.050 A 
HETATM   26  C   UNL     1      29.589  44.949  56.052  1.00  0.00     0.103 A 
HETATM   27  C   UNL     1      30.668  44.089  55.819  1.00  0.00     0.036 A 
HETATM   28  C   UNL     1      30.633  43.233  54.719  1.00  0.00     0.003 A 
HETATM   29  C   UNL     1      29.532  43.245  53.857  1.00  0.00     0.014 A 
BRANCH  26  30
HETATM   30  N   UNL     1      29.615  45.851  57.211  1.00  0.00    -0.116 N 
HETATM   31  O   UNL     1      28.547  46.377  57.557  1.00  0.00    -0.532 OA
HETATM   32  O   UNL     1      30.704  46.037  57.772  1.00  0.00    -0.532 OA
ENDBRANCH  26  30
ENDBRANCH  22  24
ENDBRANCH   2  19
TORSDOF 5
ENDMDL
MODEL 8
REMARK VINA RESULT:      -8.5      3.910      8.917
REMARK  5 active torsions:
REMARK  status: ('A' for Active; 'I' for Inactive)
REMARK    1  A    between atoms: C_5  and  C_6 
REMARK    2  A    between atoms: C_14  and  C_15 
REMARK       I    between atoms: C_15  and  N_16 
REMARK    3  A    between atoms: N_16  and  C_17 
REMARK    4  A    between atoms: C_20  and  C_21 
REMARK    5  A    between atoms: C_23  and  N_24 
ROOT
HETATM    1  C   UNL     1      25.988  43.622  49.858  1.00  0.00     0.262 C 
HETATM    2  N   UNL     1      24.619  43.760  49.882  1.00  0.00    -0.301 N 
HETATM    3  O   UNL     1      26.757  44.443  49.371  1.00  0.00    -0.267 OA
HETATM    4  H   UNL     1      24.066  43.243  50.547  1.00  0.00     0.171 HD
ENDROOT
BRANCH   1   5
HETATM    5  C   UNL     1      26.516  42.435  50.522  1.00  0.00     0.095 A 
HETATM    6  C   UNL     1      26.656  41.138  50.058  1.00  0.00     0.093 A 
HETATM    7  C   UNL     1      26.381  40.424  48.795  1.00  0.00     0.080 C 
HETATM    8  O   UNL     1      27.213  40.370  51.031  1.00  0.00    -0.217 OA
HETATM    9  N   UNL     1      27.480  41.135  52.141  1.00  0.00    -0.127 NA
HETATM   10  C   UNL     1      27.080  42.378  51.840  1.00  0.00     0.117 A 
BRANCH  10  11
HETATM   11  C   UNL     1      27.251  43.460  52.798  1.00  0.00     0.056 A 
HETATM   12  C   UNL     1      28.511  43.869  53.253  1.00  0.00     0.049 A 
HETATM   13 CL   UNL     1      29.978  43.128  52.711  1.00  0.00    -0.083 Cl
HETATM   14  C   UNL     1      28.620  44.894  54.204  1.00  0.00     0.025 A 
HETATM   15  C   UNL     1      27.476  45.510  54.713  1.00  0.00     0.005 A 
HETATM   16  C   UNL     1      26.220  45.110  54.266  1.00  0.00     0.043 A 
HETATM   17  C   UNL     1      26.117  44.099  53.312  1.00  0.00     0.130 A 
HETATM   18  F   UNL     1      24.891  43.738  52.900  1.00  0.00    -0.205 F 
ENDBRANCH  10  11
ENDBRANCH   1   5
BRANCH   2  19
HETATM   19  C   UNL     1      23.897  44.701  49.188  1.00  0.00     0.173 A 
HETATM   20  S   UNL     1      22.880  44.292  47.882  1.00  0.00    -0.061 SA
HETATM   21  C   UNL     1      22.419  45.931  47.734  1.00  0.00     0.085 A 
HETATM   22  C   UNL     1      23.049  46.683  48.706  1.00  0.00     0.076 A 
HETATM   23  N   UNL     1      23.886  45.963  49.550  1.00  0.00    -0.223 NA
BRANCH  22  24
HETATM   24  C   UNL     1      22.897  48.129  48.834  1.00  0.00    -0.004 A 
HETATM   25  C   UNL     1      21.657  48.713  49.129  1.00  0.00     0.050 A 
HETATM   26  C   UNL     1      21.544  50.110  49.208  1.00  0.00     0.103 A 
HETATM   27  C   UNL     1      22.657  50.932  48.998  1.00  0.00     0.036 A 
HETATM   28  C   UNL     1      23.893  50.351  48.718  1.00  0.00     0.003 A 
HETATM   29  C   UNL     1      24.010  48.960  48.641  1.00  0.00     0.014 A 
BRANCH  26  30
HETATM   30  N   UNL     1      20.239  50.714  49.507  1.00  0.00    -0.116 N 
HETATM   31  O   UNL     1      19.447  50.060  50.200  1.00  0.00    -0.532 OA
HETATM   32  O   UNL     1      20.006  51.840  49.045  1.00  0.00    -0.532 OA
ENDBRANCH  26  30
ENDBRANCH  22  24
ENDBRANCH   2  19
TORSDOF 5
ENDMDL
MODEL 9
REMARK VINA RESULT:      -8.5      3.522      5.103
REMARK  5 active torsions:
REMARK  status: ('A' for Active; 'I' for Inactive)
REMARK    1  A    between atoms: C_5  and  C_6 
REMARK    2  A    between atoms: C_14  and  C_15 
REMARK       I    between atoms: C_15  and  N_16 
REMARK    3  A    between atoms: N_16  and  C_17 
REMARK    4  A    between atoms: C_20  and  C_21 
REMARK    5  A    between atoms: C_23  and  N_24 
ROOT
HETATM    1  C   UNL     1      22.313  46.915  48.197  1.00  0.00     0.262 C 
HETATM    2  N   UNL     1      22.325  45.814  49.023  1.00  0.00    -0.301 N 
HETATM    3  O   UNL     1      22.437  46.867  46.978  1.00  0.00    -0.267 OA
HETATM    4  H   UNL     1      21.917  45.862  49.942  1.00  0.00     0.171 HD
ENDROOT
BRANCH   1   5
HETATM    5  C   UNL     1      22.073  48.195  48.854  1.00  0.00     0.095 A 
HETATM    6  C   UNL     1      20.890  48.776  49.277  1.00  0.00     0.093 A 
HETATM    7  C   UNL     1      19.461  48.401  49.277  1.00  0.00     0.080 C 
HETATM    8  O   UNL     1      21.158  49.977  49.853  1.00  0.00    -0.217 OA
HETATM    9  N   UNL     1      22.512  50.207  49.854  1.00  0.00    -0.127 NA
HETATM   10  C   UNL     1      23.071  49.138  49.272  1.00  0.00     0.117 A 
BRANCH  10  11
HETATM   11  C   UNL     1      24.517  49.042  49.137  1.00  0.00     0.056 A 
HETATM   12  C   UNL     1      25.284  48.142  49.888  1.00  0.00     0.049 A 
HETATM   13 CL   UNL     1      24.578  47.059  51.039  1.00  0.00    -0.083 Cl
HETATM   14  C   UNL     1      26.679  48.113  49.747  1.00  0.00     0.025 A 
HETATM   15  C   UNL     1      27.318  48.986  48.865  1.00  0.00     0.005 A 
HETATM   16  C   UNL     1      26.563  49.883  48.115  1.00  0.00     0.043 A 
HETATM   17  C   UNL     1      25.176  49.900  48.249  1.00  0.00     0.130 A 
HETATM   18  F   UNL     1      24.477  50.777  47.509  1.00  0.00    -0.205 F 
ENDBRANCH  10  11
ENDBRANCH   1   5
BRANCH   2  19
HETATM   19  C   UNL     1      22.690  44.542  48.654  1.00  0.00     0.173 A 
HETATM   20  S   UNL     1      21.892  43.685  47.414  1.00  0.00    -0.061 SA
HETATM   21  C   UNL     1      22.979  42.382  47.621  1.00  0.00     0.085 A 
HETATM   22  C   UNL     1      23.898  42.692  48.604  1.00  0.00     0.076 A 
HETATM   23  N   UNL     1      23.733  43.946  49.181  1.00  0.00    -0.223 NA
BRANCH  22  24
HETATM   24  C   UNL     1      24.945  41.778  49.048  1.00  0.00    -0.004 A 
HETATM   25  C   UNL     1      25.711  42.041  50.192  1.00  0.00     0.050 A 
HETATM   26  C   UNL     1      26.734  41.156  50.566  1.00  0.00     0.103 A 
HETATM   27  C   UNL     1      26.999  40.006  49.813  1.00  0.00     0.036 A 
HETATM   28  C   UNL     1      26.227  39.738  48.683  1.00  0.00     0.003 A 
HETATM   29  C   UNL     1      25.206  40.616  48.308  1.00  0.00     0.014 A 
BRANCH  26  30
HETATM   30  N   UNL     1      27.540  41.444  51.760  1.00  0.00    -0.116 N 
HETATM   31  O   UNL     1      27.203  42.408  52.463  1.00  0.00    -0.532 OA
HETATM   32  O   UNL     1      28.511  40.711  51.991  1.00  0.00    -0.532 OA
ENDBRANCH  26  30
ENDBRANCH  22  24
ENDBRANCH   2  19
TORSDOF 5
ENDMDL
MODEL 10
REMARK VINA RESULT:      -8.5      2.775      3.509
REMARK  5 active torsions:
REMARK  status: ('A' for Active; 'I' for Inactive)
REMARK    1  A    between atoms: C_5  and  C_6 
REMARK    2  A    between atoms: C_14  and  C_15 
REMARK       I    between atoms: C_15  and  N_16 
REMARK    3  A    between atoms: N_16  and  C_17 
REMARK    4  A    between atoms: C_20  and  C_21 
REMARK    5  A    between atoms: C_23  and  N_24 
ROOT
HETATM    1  C   UNL     1      22.492  45.184  48.824  1.00  0.00     0.262 C 
HETATM    2  N   UNL     1      23.725  45.608  49.264  1.00  0.00    -0.301 N 
HETATM    3  O   UNL     1      21.729  44.481  49.477  1.00  0.00    -0.267 OA
HETATM    4  H   UNL     1      24.166  46.412  48.848  1.00  0.00     0.171 HD
ENDROOT
BRANCH   1   5
HETATM    5  C   UNL     1      22.084  45.679  47.514  1.00  0.00     0.095 A 
HETATM    6  C   UNL     1      22.331  45.173  46.249  1.00  0.00     0.093 A 
HETATM    7  C   UNL     1      23.039  44.003  45.691  1.00  0.00     0.080 C 
HETATM    8  O   UNL     1      21.735  45.967  45.321  1.00  0.00    -0.217 OA
HETATM    9  N   UNL     1      21.060  46.991  45.941  1.00  0.00    -0.127 NA
HETATM   10  C   UNL     1      21.250  46.818  47.257  1.00  0.00     0.117 A 
BRANCH  10  11
HETATM   11  C   UNL     1      20.636  47.724  48.216  1.00  0.00     0.056 A 
HETATM   12  C   UNL     1      21.181  48.977  48.522  1.00  0.00     0.049 A 
HETATM   13 CL   UNL     1      22.631  49.563  47.780  1.00  0.00    -0.083 Cl
HETATM   14  C   UNL     1      20.571  49.799  49.480  1.00  0.00     0.025 A 
HETATM   15  C   UNL     1      19.420  49.373  50.145  1.00  0.00     0.005 A 
HETATM   16  C   UNL     1      18.871  48.129  49.847  1.00  0.00     0.043 A 
HETATM   17  C   UNL     1      19.474  47.321  48.885  1.00  0.00     0.130 A 
HETATM   18  F   UNL     1      18.919  46.128  48.619  1.00  0.00    -0.205 F 
ENDBRANCH  10  11
ENDBRANCH   1   5
BRANCH   2  19
HETATM   19  C   UNL     1      24.378  45.145  50.380  1.00  0.00     0.173 A 
HETATM   20  S   UNL     1      24.510  43.483  50.738  1.00  0.00    -0.061 SA
HETATM   21  C   UNL     1      25.442  43.859  52.121  1.00  0.00     0.085 A 
HETATM   22  C   UNL     1      25.617  45.226  52.209  1.00  0.00     0.076 A 
HETATM   23  N   UNL     1      25.014  45.957  51.192  1.00  0.00    -0.223 NA
BRANCH  22  24
HETATM   24  C   UNL     1      26.339  45.880  53.295  1.00  0.00    -0.004 A 
HETATM   25  C   UNL     1      27.474  45.299  53.877  1.00  0.00     0.050 A 
HETATM   26  C   UNL     1      28.118  45.942  54.945  1.00  0.00     0.103 A 
HETATM   27  C   UNL     1      27.645  47.163  55.438  1.00  0.00     0.036 A 
HETATM   28  C   UNL     1      26.525  47.748  54.849  1.00  0.00     0.003 A 
HETATM   29  C   UNL     1      25.880  47.112  53.784  1.00  0.00     0.014 A 
BRANCH  26  30
HETATM   30  N   UNL     1      29.301  45.320  55.556  1.00  0.00    -0.116 N 
HETATM   31  O   UNL     1      29.938  45.987  56.385  1.00  0.00    -0.532 OA
HETATM   32  O   UNL     1      29.593  44.169  55.204  1.00  0.00    -0.532 OA
ENDBRANCH  26  30
ENDBRANCH  22  24
ENDBRANCH   2  19
TORSDOF 5
ENDMDL
