MODEL 1
REMARK VINA RESULT:      -9.6      0.000      0.000
REMARK  6 active torsions:
REMARK  status: ('A' for Active; 'I' for Inactive)
REMARK    1  A    between atoms: N_4  and  C_5 
REMARK    2  A    between atoms: C_14  and  C_15 
REMARK       I    between atoms: C_15  and  N_16 
REMARK    3  A    between atoms: N_16  and  C_17 
REMARK    4  A    between atoms: C_17  and  C_18 
REMARK    5  A    between atoms: C_18  and  O_19 
REMARK    6  A    between atoms: C_18  and  C_20 
ROOT
HETATM    1  C   UNL     1      26.481  46.190  50.071  1.00  0.00     0.255 C 
HETATM    2  N   UNL     1      26.286  45.763  51.365  1.00  0.00    -0.354 N 
HETATM    3  O   UNL     1      27.260  45.628  49.308  1.00  0.00    -0.268 OA
HETATM    4  H   UNL     1      25.862  46.401  52.026  1.00  0.00     0.162 HD
ENDROOT
BRANCH   1   5
HETATM    5  C   UNL     1      25.736  47.379  49.673  1.00  0.00     0.082 C 
HETATM    6  C   UNL     1      26.309  48.625  49.315  1.00  0.00     0.069 C 
HETATM    7  C   UNL     1      27.747  49.002  49.298  1.00  0.00     0.073 C 
HETATM    8  N   UNL     1      25.389  49.512  48.940  1.00  0.00    -0.171 NA
HETATM    9  N   UNL     1      24.195  48.896  49.117  1.00  0.00    -0.237 N 
HETATM   10  C   UNL     1      24.368  47.554  49.458  1.00  0.00     0.050 C 
HETATM   11  C   UNL     1      23.281  46.537  49.436  1.00  0.00     0.071 C 
BRANCH   9  12
HETATM   12  C   UNL     1      23.004  49.666  48.923  1.00  0.00     0.058 A 
HETATM   13  C   UNL     1      22.461  50.356  50.024  1.00  0.00     0.033 A 
HETATM   14  C   UNL     1      21.303  51.126  49.886  1.00  0.00     0.021 A 
HETATM   15  C   UNL     1      20.667  51.195  48.651  1.00  0.00     0.011 A 
HETATM   16 BR   UNL     1      19.098  52.231  48.458  1.00  0.00    -0.051 Br
HETATM   17  C   UNL     1      21.175  50.496  47.558  1.00  0.00     0.021 A 
HETATM   18  C   UNL     1      22.340  49.728  47.693  1.00  0.00     0.033 A 
ENDBRANCH   9  12
ENDBRANCH   1   5
BRANCH   2  19
HETATM   19  C   UNL     1      27.101  44.695  51.926  1.00  0.00     0.159 C 
BRANCH  19  20
HETATM   20  C   UNL     1      26.811  44.477  53.420  1.00  0.00     0.169 C 
BRANCH  20  21
HETATM   21  O   UNL     1      26.034  45.573  53.920  1.00  0.00    -0.389 OA
HETATM   22  H   UNL     1      25.493  45.898  53.178  1.00  0.00     0.210 HD
ENDBRANCH  20  21
BRANCH  20  23
HETATM   23  C   UNL     1      28.085  44.328  54.228  1.00  0.00    -0.028 A 
HETATM   24  C   UNL     1      28.917  43.212  54.033  1.00  0.00     0.013 A 
HETATM   25  C   UNL     1      30.108  43.084  54.750  1.00  0.00     0.043 A 
HETATM   26  C   UNL     1      30.473  44.070  55.659  1.00  0.00     0.116 A 
HETATM   27  F   UNL     1      31.619  43.947  56.339  1.00  0.00    -0.206 F 
HETATM   28  C   UNL     1      29.665  45.180  55.870  1.00  0.00     0.043 A 
HETATM   29  C   UNL     1      28.471  45.310  55.158  1.00  0.00     0.013 A 
ENDBRANCH  20  23
ENDBRANCH  19  20
ENDBRANCH   2  19
TORSDOF 6
ENDMDL
MODEL 2
REMARK VINA RESULT:      -8.9      5.088      9.896
REMARK  6 active torsions:
REMARK  status: ('A' for Active; 'I' for Inactive)
REMARK    1  A    between atoms: N_4  and  C_5 
REMARK    2  A    between atoms: C_14  and  C_15 
REMARK       I    between atoms: C_15  and  N_16 
REMARK    3  A    between atoms: N_16  and  C_17 
REMARK    4  A    between atoms: C_17  and  C_18 
REMARK    5  A    between atoms: C_18  and  O_19 
REMARK    6  A    between atoms: C_18  and  C_20 
ROOT
HETATM    1  C   UNL     1      23.294  46.250  49.078  1.00  0.00     0.255 C 
HETATM    2  N   UNL     1      22.851  47.452  49.581  1.00  0.00    -0.354 N 
HETATM    3  O   UNL     1      22.980  45.853  47.960  1.00  0.00    -0.268 OA
HETATM    4  H   UNL     1      22.902  47.607  50.579  1.00  0.00     0.162 HD
ENDROOT
BRANCH   1   5
HETATM    5  C   UNL     1      24.129  45.454  49.971  1.00  0.00     0.082 C 
HETATM    6  C   UNL     1      23.871  44.115  50.358  1.00  0.00     0.069 C 
HETATM    7  C   UNL     1      22.715  43.258  49.985  1.00  0.00     0.073 C 
HETATM    8  N   UNL     1      24.835  43.623  51.135  1.00  0.00    -0.171 NA
HETATM    9  N   UNL     1      25.700  44.646  51.336  1.00  0.00    -0.237 N 
HETATM   10  C   UNL     1      25.363  45.750  50.552  1.00  0.00     0.050 C 
HETATM   11  C   UNL     1      26.259  46.915  50.316  1.00  0.00     0.071 C 
BRANCH   9  12
HETATM   12  C   UNL     1      26.777  44.447  52.258  1.00  0.00     0.058 A 
HETATM   13  C   UNL     1      27.879  43.671  51.851  1.00  0.00     0.033 A 
HETATM   14  C   UNL     1      28.957  43.452  52.713  1.00  0.00     0.021 A 
HETATM   15  C   UNL     1      28.932  43.988  53.995  1.00  0.00     0.011 A 
HETATM   16 BR   UNL     1      30.385  43.692  55.167  1.00  0.00    -0.051 Br
HETATM   17  C   UNL     1      27.836  44.735  54.424  1.00  0.00     0.021 A 
HETATM   18  C   UNL     1      26.757  44.961  53.560  1.00  0.00     0.033 A 
ENDBRANCH   9  12
ENDBRANCH   1   5
BRANCH   2  19
HETATM   19  C   UNL     1      21.877  48.250  48.850  1.00  0.00     0.159 C 
BRANCH  19  20
HETATM   20  C   UNL     1      22.065  49.755  49.100  1.00  0.00     0.169 C 
BRANCH  20  21
HETATM   21  O   UNL     1      22.833  49.948  50.295  1.00  0.00    -0.389 OA
HETATM   22  H   UNL     1      22.774  50.894  50.520  1.00  0.00     0.210 HD
ENDBRANCH  20  21
BRANCH  20  23
HETATM   23  C   UNL     1      20.739  50.481  49.209  1.00  0.00    -0.028 A 
HETATM   24  C   UNL     1      19.750  50.013  50.091  1.00  0.00     0.013 A 
HETATM   25  C   UNL     1      18.539  50.695  50.222  1.00  0.00     0.043 A 
HETATM   26  C   UNL     1      18.313  51.845  49.475  1.00  0.00     0.116 A 
HETATM   27  F   UNL     1      17.153  52.501  49.608  1.00  0.00    -0.206 F 
HETATM   28  C   UNL     1      19.275  52.325  48.596  1.00  0.00     0.043 A 
HETATM   29  C   UNL     1      20.486  51.644  48.460  1.00  0.00     0.013 A 
ENDBRANCH  20  23
ENDBRANCH  19  20
ENDBRANCH   2  19
TORSDOF 6
ENDMDL
MODEL 3
REMARK VINA RESULT:      -8.8      1.381      1.816
REMARK  6 active torsions:
REMARK  status: ('A' for Active; 'I' for Inactive)
REMARK    1  A    between atoms: N_4  and  C_5 
REMARK    2  A    between atoms: C_14  and  C_15 
REMARK       I    between atoms: C_15  and  N_16 
REMARK    3  A    between atoms: N_16  and  C_17 
REMARK    4  A    between atoms: C_17  and  C_18 
REMARK    5  A    between atoms: C_18  and  O_19 
REMARK    6  A    between atoms: C_18  and  C_20 
ROOT
HETATM    1  C   UNL     1      25.101  45.401  49.973  1.00  0.00     0.255 C 
HETATM    2  N   UNL     1      25.224  45.081  51.307  1.00  0.00    -0.354 N 
HETATM    3  O   UNL     1      25.461  44.639  49.082  1.00  0.00    -0.268 OA
HETATM    4  H   UNL     1      25.177  45.827  51.988  1.00  0.00     0.162 HD
ENDROOT
BRANCH   1   5
HETATM    5  C   UNL     1      24.555  46.722  49.682  1.00  0.00     0.082 C 
HETATM    6  C   UNL     1      25.290  47.933  49.685  1.00  0.00     0.069 C 
HETATM    7  C   UNL     1      26.728  48.133  50.008  1.00  0.00     0.073 C 
HETATM    8  N   UNL     1      24.544  48.975  49.325  1.00  0.00    -0.171 NA
HETATM    9  N   UNL     1      23.292  48.486  49.155  1.00  0.00    -0.237 N 
HETATM   10  C   UNL     1      23.279  47.094  49.255  1.00  0.00     0.050 C 
HETATM   11  C   UNL     1      22.139  46.235  48.835  1.00  0.00     0.071 C 
BRANCH   9  12
HETATM   12  C   UNL     1      22.234  49.415  48.897  1.00  0.00     0.058 A 
HETATM   13  C   UNL     1      21.781  50.230  49.952  1.00  0.00     0.033 A 
HETATM   14  C   UNL     1      20.754  51.156  49.750  1.00  0.00     0.021 A 
HETATM   15  C   UNL     1      20.158  51.261  48.499  1.00  0.00     0.011 A 
HETATM   16 BR   UNL     1      18.767  52.509  48.220  1.00  0.00    -0.051 Br
HETATM   17  C   UNL     1      20.575  50.443  47.451  1.00  0.00     0.021 A 
HETATM   18  C   UNL     1      21.609  49.517  47.649  1.00  0.00     0.033 A 
ENDBRANCH   9  12
ENDBRANCH   1   5
BRANCH   2  19
HETATM   19  C   UNL     1      25.911  43.866  51.719  1.00  0.00     0.159 C 
BRANCH  19  20
HETATM   20  C   UNL     1      27.394  43.880  51.312  1.00  0.00     0.169 C 
BRANCH  20  21
HETATM   21  O   UNL     1      27.646  42.811  50.391  1.00  0.00    -0.389 OA
HETATM   22  H   UNL     1      27.979  43.217  49.570  1.00  0.00     0.210 HD
ENDBRANCH  20  21
BRANCH  20  23
HETATM   23  C   UNL     1      28.312  43.762  52.512  1.00  0.00    -0.028 A 
HETATM   24  C   UNL     1      28.016  44.459  53.696  1.00  0.00     0.013 A 
HETATM   25  C   UNL     1      28.839  44.330  54.817  1.00  0.00     0.043 A 
HETATM   26  C   UNL     1      29.955  43.505  54.759  1.00  0.00     0.116 A 
HETATM   27  F   UNL     1      30.737  43.378  55.839  1.00  0.00    -0.206 F 
HETATM   28  C   UNL     1      30.267  42.808  53.599  1.00  0.00     0.043 A 
HETATM   29  C   UNL     1      29.449  42.937  52.476  1.00  0.00     0.013 A 
ENDBRANCH  20  23
ENDBRANCH  19  20
ENDBRANCH   2  19
TORSDOF 6
ENDMDL
MODEL 4
REMARK VINA RESULT:      -8.6      4.999      9.802
REMARK  6 active torsions:
REMARK  status: ('A' for Active; 'I' for Inactive)
REMARK    1  A    between atoms: N_4  and  C_5 
REMARK    2  A    between atoms: C_14  and  C_15 
REMARK       I    between atoms: C_15  and  N_16 
REMARK    3  A    between atoms: N_16  and  C_17 
REMARK    4  A    between atoms: C_17  and  C_18 
REMARK    5  A    between atoms: C_18  and  O_19 
REMARK    6  A    between atoms: C_18  and  C_20 
ROOT
HETATM    1  C   UNL     1      24.688  45.004  50.882  1.00  0.00     0.255 C 
HETATM    2  N   UNL     1      24.744  46.115  50.071  1.00  0.00    -0.354 N 
HETATM    3  O   UNL     1      23.635  44.418  51.117  1.00  0.00    -0.268 OA
HETATM    4  H   UNL     1      25.557  46.713  50.128  1.00  0.00     0.162 HD
ENDROOT
BRANCH   1   5
HETATM    5  C   UNL     1      25.950  44.587  51.482  1.00  0.00     0.082 C 
HETATM    6  C   UNL     1      26.889  43.707  50.888  1.00  0.00     0.069 C 
HETATM    7  C   UNL     1      26.790  43.006  49.581  1.00  0.00     0.073 C 
HETATM    8  N   UNL     1      27.978  43.553  51.639  1.00  0.00    -0.171 NA
HETATM    9  N   UNL     1      27.745  44.262  52.770  1.00  0.00    -0.237 N 
HETATM   10  C   UNL     1      26.564  44.998  52.666  1.00  0.00     0.050 C 
HETATM   11  C   UNL     1      26.174  46.091  53.598  1.00  0.00     0.071 C 
BRANCH   9  12
HETATM   12  C   UNL     1      28.697  44.165  53.834  1.00  0.00     0.058 A 
HETATM   13  C   UNL     1      29.492  43.007  53.925  1.00  0.00     0.033 A 
HETATM   14  C   UNL     1      30.439  42.868  54.943  1.00  0.00     0.021 A 
HETATM   15  C   UNL     1      30.584  43.875  55.890  1.00  0.00     0.011 A 
HETATM   16 BR   UNL     1      31.861  43.692  57.271  1.00  0.00    -0.051 Br
HETATM   17  C   UNL     1      29.786  45.016  55.832  1.00  0.00     0.021 A 
HETATM   18  C   UNL     1      28.839  45.161  54.809  1.00  0.00     0.033 A 
ENDBRANCH   9  12
ENDBRANCH   1   5
BRANCH   2  19
HETATM   19  C   UNL     1      23.525  46.722  49.558  1.00  0.00     0.159 C 
BRANCH  19  20
HETATM   20  C   UNL     1      23.795  48.092  48.913  1.00  0.00     0.169 C 
BRANCH  20  21
HETATM   21  O   UNL     1      24.932  48.698  49.541  1.00  0.00    -0.389 OA
HETATM   22  H   UNL     1      25.514  49.016  48.826  1.00  0.00     0.210 HD
ENDBRANCH  20  21
BRANCH  20  23
HETATM   23  C   UNL     1      22.593  49.011  49.012  1.00  0.00    -0.028 A 
HETATM   24  C   UNL     1      22.772  50.378  49.283  1.00  0.00     0.013 A 
HETATM   25  C   UNL     1      21.673  51.237  49.343  1.00  0.00     0.043 A 
HETATM   26  C   UNL     1      20.395  50.734  49.130  1.00  0.00     0.116 A 
HETATM   27  F   UNL     1      19.344  51.562  49.181  1.00  0.00    -0.206 F 
HETATM   28  C   UNL     1      20.194  49.386  48.862  1.00  0.00     0.043 A 
HETATM   29  C   UNL     1      21.291  48.524  48.805  1.00  0.00     0.013 A 
ENDBRANCH  20  23
ENDBRANCH  19  20
ENDBRANCH   2  19
TORSDOF 6
ENDMDL
MODEL 5
REMARK VINA RESULT:      -8.5      1.777      2.655
REMARK  6 active torsions:
REMARK  status: ('A' for Active; 'I' for Inactive)
REMARK    1  A    between atoms: N_4  and  C_5 
REMARK    2  A    between atoms: C_14  and  C_15 
REMARK       I    between atoms: C_15  and  N_16 
REMARK    3  A    between atoms: N_16  and  C_17 
REMARK    4  A    between atoms: C_17  and  C_18 
REMARK    5  A    between atoms: C_18  and  O_19 
REMARK    6  A    between atoms: C_18  and  C_20 
ROOT
HETATM    1  C   UNL     1      26.407  44.304  49.996  1.00  0.00     0.255 C 
HETATM    2  N   UNL     1      26.674  44.325  51.346  1.00  0.00    -0.354 N 
HETATM    3  O   UNL     1      27.121  43.706  49.197  1.00  0.00    -0.268 OA
HETATM    4  H   UNL     1      26.235  45.038  51.914  1.00  0.00     0.162 HD
ENDROOT
BRANCH   1   5
HETATM    5  C   UNL     1      25.243  45.071  49.564  1.00  0.00     0.082 C 
HETATM    6  C   UNL     1      24.183  44.573  48.767  1.00  0.00     0.069 C 
HETATM    7  C   UNL     1      24.035  43.215  48.181  1.00  0.00     0.073 C 
HETATM    8  N   UNL     1      23.227  45.481  48.578  1.00  0.00    -0.171 NA
HETATM    9  N   UNL     1      23.674  46.611  49.178  1.00  0.00    -0.237 N 
HETATM   10  C   UNL     1      24.852  46.371  49.887  1.00  0.00     0.050 C 
HETATM   11  C   UNL     1      25.436  47.310  50.883  1.00  0.00     0.071 C 
BRANCH   9  12
HETATM   12  C   UNL     1      22.907  47.809  49.016  1.00  0.00     0.058 A 
HETATM   13  C   UNL     1      21.502  47.717  49.032  1.00  0.00     0.033 A 
HETATM   14  C   UNL     1      20.709  48.858  48.883  1.00  0.00     0.021 A 
HETATM   15  C   UNL     1      21.314  50.096  48.695  1.00  0.00     0.011 A 
HETATM   16 BR   UNL     1      20.248  51.643  48.488  1.00  0.00    -0.051 Br
HETATM   17  C   UNL     1      22.703  50.201  48.648  1.00  0.00     0.021 A 
HETATM   18  C   UNL     1      23.500  49.059  48.803  1.00  0.00     0.033 A 
ENDBRANCH   9  12
ENDBRANCH   1   5
BRANCH   2  19
HETATM   19  C   UNL     1      27.900  43.741  51.870  1.00  0.00     0.159 C 
BRANCH  19  20
HETATM   20  C   UNL     1      27.718  43.215  53.304  1.00  0.00     0.169 C 
BRANCH  20  21
HETATM   21  O   UNL     1      26.330  43.272  53.659  1.00  0.00    -0.389 OA
HETATM   22  H   UNL     1      25.860  43.670  52.904  1.00  0.00     0.210 HD
ENDBRANCH  20  21
BRANCH  20  23
HETATM   23  C   UNL     1      28.545  43.998  54.303  1.00  0.00    -0.028 A 
HETATM   24  C   UNL     1      28.086  45.236  54.782  1.00  0.00     0.013 A 
HETATM   25  C   UNL     1      28.826  45.948  55.728  1.00  0.00     0.043 A 
HETATM   26  C   UNL     1      30.024  45.424  56.199  1.00  0.00     0.116 A 
HETATM   27  F   UNL     1      30.728  46.106  57.112  1.00  0.00    -0.206 F 
HETATM   28  C   UNL     1      30.499  44.203  55.738  1.00  0.00     0.043 A 
HETATM   29  C   UNL     1      29.763  43.490  54.790  1.00  0.00     0.013 A 
ENDBRANCH  20  23
ENDBRANCH  19  20
ENDBRANCH   2  19
TORSDOF 6
ENDMDL
MODEL 6
REMARK VINA RESULT:      -8.3      1.976      2.469
REMARK  6 active torsions:
REMARK  status: ('A' for Active; 'I' for Inactive)
REMARK    1  A    between atoms: N_4  and  C_5 
REMARK    2  A    between atoms: C_14  and  C_15 
REMARK       I    between atoms: C_15  and  N_16 
REMARK    3  A    between atoms: N_16  and  C_17 
REMARK    4  A    between atoms: C_17  and  C_18 
REMARK    5  A    between atoms: C_18  and  O_19 
REMARK    6  A    between atoms: C_18  and  C_20 
ROOT
HETATM    1  C   UNL     1      26.651  44.510  51.480  1.00  0.00     0.255 C 
HETATM    2  N   UNL     1      26.612  44.145  52.807  1.00  0.00    -0.354 N 
HETATM    3  O   UNL     1      27.385  43.953  50.670  1.00  0.00    -0.268 OA
HETATM    4  H   UNL     1      26.216  44.793  53.474  1.00  0.00     0.162 HD
ENDROOT
BRANCH   1   5
HETATM    5  C   UNL     1      25.795  45.629  51.101  1.00  0.00     0.082 C 
HETATM    6  C   UNL     1      25.773  46.896  51.735  1.00  0.00     0.069 C 
HETATM    7  C   UNL     1      26.563  47.347  52.911  1.00  0.00     0.073 C 
HETATM    8  N   UNL     1      24.935  47.742  51.139  1.00  0.00    -0.171 NA
HETATM    9  N   UNL     1      24.336  47.029  50.155  1.00  0.00    -0.237 N 
HETATM   10  C   UNL     1      24.914  45.765  50.027  1.00  0.00     0.050 C 
HETATM   11  C   UNL     1      24.693  44.856  48.869  1.00  0.00     0.071 C 
BRANCH   9  12
HETATM   12  C   UNL     1      23.271  47.648  49.426  1.00  0.00     0.058 A 
HETATM   13  C   UNL     1      23.267  49.050  49.299  1.00  0.00     0.033 A 
HETATM   14  C   UNL     1      22.253  49.702  48.593  1.00  0.00     0.021 A 
HETATM   15  C   UNL     1      21.222  48.960  48.028  1.00  0.00     0.011 A 
HETATM   16 BR   UNL     1      19.844  49.835  47.075  1.00  0.00    -0.051 Br
HETATM   17  C   UNL     1      21.195  47.574  48.168  1.00  0.00     0.021 A 
HETATM   18  C   UNL     1      22.215  46.917  48.870  1.00  0.00     0.033 A 
ENDBRANCH   9  12
ENDBRANCH   1   5
BRANCH   2  19
HETATM   19  C   UNL     1      27.545  43.159  53.334  1.00  0.00     0.159 C 
BRANCH  19  20
HETATM   20  C   UNL     1      29.004  43.632  53.219  1.00  0.00     0.169 C 
BRANCH  20  21
HETATM   21  O   UNL     1      29.786  42.612  52.585  1.00  0.00    -0.389 OA
HETATM   22  H   UNL     1      30.720  42.877  52.670  1.00  0.00     0.210 HD
ENDBRANCH  20  21
BRANCH  20  23
HETATM   23  C   UNL     1      29.595  43.978  54.570  1.00  0.00    -0.028 A 
HETATM   24  C   UNL     1      30.631  43.196  55.108  1.00  0.00     0.013 A 
HETATM   25  C   UNL     1      31.203  43.528  56.338  1.00  0.00     0.043 A 
HETATM   26  C   UNL     1      30.745  44.641  57.031  1.00  0.00     0.116 A 
HETATM   27  F   UNL     1      31.301  44.961  58.206  1.00  0.00    -0.206 F 
HETATM   28  C   UNL     1      29.721  45.428  56.520  1.00  0.00     0.043 A 
HETATM   29  C   UNL     1      29.144  45.097  55.292  1.00  0.00     0.013 A 
ENDBRANCH  20  23
ENDBRANCH  19  20
ENDBRANCH   2  19
TORSDOF 6
ENDMDL
MODEL 7
REMARK VINA RESULT:      -8.2      2.169      3.566
REMARK  6 active torsions:
REMARK  status: ('A' for Active; 'I' for Inactive)
REMARK    1  A    between atoms: N_4  and  C_5 
REMARK    2  A    between atoms: C_14  and  C_15 
REMARK       I    between atoms: C_15  and  N_16 
REMARK    3  A    between atoms: N_16  and  C_17 
REMARK    4  A    between atoms: C_17  and  C_18 
REMARK    5  A    between atoms: C_18  and  O_19 
REMARK    6  A    between atoms: C_18  and  C_20 
ROOT
HETATM    1  C   UNL     1      27.733  43.900  51.844  1.00  0.00     0.255 C 
HETATM    2  N   UNL     1      27.246  43.465  53.056  1.00  0.00    -0.354 N 
HETATM    3  O   UNL     1      28.908  43.751  51.521  1.00  0.00    -0.268 OA
HETATM    4  H   UNL     1      26.369  43.845  53.387  1.00  0.00     0.162 HD
ENDROOT
BRANCH   1   5
HETATM    5  C   UNL     1      26.779  44.586  50.981  1.00  0.00     0.082 C 
HETATM    6  C   UNL     1      26.191  44.041  49.812  1.00  0.00     0.069 C 
HETATM    7  C   UNL     1      26.430  42.707  49.201  1.00  0.00     0.073 C 
HETATM    8  N   UNL     1      25.312  44.873  49.257  1.00  0.00    -0.171 NA
HETATM    9  N   UNL     1      25.360  46.005  50.002  1.00  0.00    -0.237 N 
HETATM   10  C   UNL     1      26.163  45.829  51.129  1.00  0.00     0.050 C 
HETATM   11  C   UNL     1      26.194  46.763  52.288  1.00  0.00     0.071 C 
BRANCH   9  12
HETATM   12  C   UNL     1      24.612  47.140  49.552  1.00  0.00     0.058 A 
HETATM   13  C   UNL     1      25.291  48.355  49.345  1.00  0.00     0.033 A 
HETATM   14  C   UNL     1      24.607  49.490  48.902  1.00  0.00     0.021 A 
HETATM   15  C   UNL     1      23.235  49.425  48.684  1.00  0.00     0.011 A 
HETATM   16 BR   UNL     1      22.303  50.957  48.088  1.00  0.00    -0.051 Br
HETATM   17  C   UNL     1      22.543  48.237  48.911  1.00  0.00     0.021 A 
HETATM   18  C   UNL     1      23.228  47.096  49.349  1.00  0.00     0.033 A 
ENDBRANCH   9  12
ENDBRANCH   1   5
BRANCH   2  19
HETATM   19  C   UNL     1      28.142  42.922  54.066  1.00  0.00     0.159 C 
BRANCH  19  20
HETATM   20  C   UNL     1      29.554  43.522  53.962  1.00  0.00     0.169 C 
BRANCH  20  21
HETATM   21  O   UNL     1      30.444  42.549  53.398  1.00  0.00    -0.389 OA
HETATM   22  H   UNL     1      30.533  42.762  52.452  1.00  0.00     0.210 HD
ENDBRANCH  20  21
BRANCH  20  23
HETATM   23  C   UNL     1      30.072  43.986  55.308  1.00  0.00    -0.028 A 
HETATM   24  C   UNL     1      29.589  45.177  55.876  1.00  0.00     0.013 A 
HETATM   25  C   UNL     1      30.037  45.596  57.131  1.00  0.00     0.043 A 
HETATM   26  C   UNL     1      30.966  44.826  57.820  1.00  0.00     0.116 A 
HETATM   27  F   UNL     1      31.388  45.226  59.026  1.00  0.00    -0.206 F 
HETATM   28  C   UNL     1      31.459  43.646  57.277  1.00  0.00     0.043 A 
HETATM   29  C   UNL     1      31.016  43.227  56.022  1.00  0.00     0.013 A 
ENDBRANCH  20  23
ENDBRANCH  19  20
ENDBRANCH   2  19
TORSDOF 6
ENDMDL
MODEL 8
REMARK VINA RESULT:      -7.9     18.294     19.751
REMARK  6 active torsions:
REMARK  status: ('A' for Active; 'I' for Inactive)
REMARK    1  A    between atoms: N_4  and  C_5 
REMARK    2  A    between atoms: C_14  and  C_15 
REMARK       I    between atoms: C_15  and  N_16 
REMARK    3  A    between atoms: N_16  and  C_17 
REMARK    4  A    between atoms: C_17  and  C_18 
REMARK    5  A    between atoms: C_18  and  O_19 
REMARK    6  A    between atoms: C_18  and  C_20 
ROOT
HETATM    1  C   UNL     1      39.076  45.646  64.867  1.00  0.00     0.255 C 
HETATM    2  N   UNL     1      38.628  45.337  63.603  1.00  0.00    -0.354 N 
HETATM    3  O   UNL     1      39.979  45.018  65.412  1.00  0.00    -0.268 OA
HETATM    4  H   UNL     1      37.724  45.686  63.312  1.00  0.00     0.162 HD
ENDROOT
BRANCH   1   5
HETATM    5  C   UNL     1      38.385  46.741  65.539  1.00  0.00     0.082 C 
HETATM    6  C   UNL     1      37.060  46.689  66.040  1.00  0.00     0.069 C 
HETATM    7  C   UNL     1      36.095  45.561  65.968  1.00  0.00     0.073 C 
HETATM    8  N   UNL     1      36.712  47.817  66.657  1.00  0.00    -0.171 NA
HETATM    9  N   UNL     1      37.767  48.656  66.506  1.00  0.00    -0.237 N 
HETATM   10  C   UNL     1      38.851  47.998  65.925  1.00  0.00     0.050 C 
HETATM   11  C   UNL     1      40.238  48.539  65.890  1.00  0.00     0.071 C 
BRANCH   9  12
HETATM   12  C   UNL     1      37.622  50.007  66.954  1.00  0.00     0.058 A 
HETATM   13  C   UNL     1      37.874  51.050  66.042  1.00  0.00     0.033 A 
HETATM   14  C   UNL     1      37.742  52.386  66.429  1.00  0.00     0.021 A 
HETATM   15  C   UNL     1      37.377  52.691  67.735  1.00  0.00     0.011 A 
HETATM   16 BR   UNL     1      37.200  54.496  68.266  1.00  0.00    -0.051 Br
HETATM   17  C   UNL     1      37.151  51.672  68.658  1.00  0.00     0.021 A 
HETATM   18  C   UNL     1      37.277  50.331  68.271  1.00  0.00     0.033 A 
ENDBRANCH   9  12
ENDBRANCH   1   5
BRANCH   2  19
HETATM   19  C   UNL     1      39.124  44.159  62.906  1.00  0.00     0.159 C 
BRANCH  19  20
HETATM   20  C   UNL     1      38.039  43.080  62.760  1.00  0.00     0.169 C 
BRANCH  20  21
HETATM   21  O   UNL     1      36.848  43.506  63.436  1.00  0.00    -0.389 OA
HETATM   22  H   UNL     1      36.464  42.716  63.857  1.00  0.00     0.210 HD
ENDBRANCH  20  21
BRANCH  20  23
HETATM   23  C   UNL     1      38.495  41.740  63.302  1.00  0.00    -0.028 A 
HETATM   24  C   UNL     1      39.113  40.809  62.449  1.00  0.00     0.013 A 
HETATM   25  C   UNL     1      39.566  39.586  62.948  1.00  0.00     0.043 A 
HETATM   26  C   UNL     1      39.407  39.292  64.296  1.00  0.00     0.116 A 
HETATM   27  F   UNL     1      39.850  38.121  64.772  1.00  0.00    -0.206 F 
HETATM   28  C   UNL     1      38.798  40.196  65.157  1.00  0.00     0.043 A 
HETATM   29  C   UNL     1      38.340  41.418  64.661  1.00  0.00     0.013 A 
ENDBRANCH  20  23
ENDBRANCH  19  20
ENDBRANCH   2  19
TORSDOF 6
ENDMDL
MODEL 9
REMARK VINA RESULT:      -7.9      2.917      3.854
REMARK  6 active torsions:
REMARK  status: ('A' for Active; 'I' for Inactive)
REMARK    1  A    between atoms: N_4  and  C_5 
REMARK    2  A    between atoms: C_14  and  C_15 
REMARK       I    between atoms: C_15  and  N_16 
REMARK    3  A    between atoms: N_16  and  C_17 
REMARK    4  A    between atoms: C_17  and  C_18 
REMARK    5  A    between atoms: C_18  and  O_19 
REMARK    6  A    between atoms: C_18  and  C_20 
ROOT
HETATM    1  C   UNL     1      27.352  43.970  51.987  1.00  0.00     0.255 C 
HETATM    2  N   UNL     1      27.124  43.363  53.202  1.00  0.00    -0.354 N 
HETATM    3  O   UNL     1      28.430  43.885  51.407  1.00  0.00    -0.268 OA
HETATM    4  H   UNL     1      26.343  43.680  53.761  1.00  0.00     0.162 HD
ENDROOT
BRANCH   1   5
HETATM    5  C   UNL     1      26.247  44.755  51.449  1.00  0.00     0.082 C 
HETATM    6  C   UNL     1      25.812  46.008  51.949  1.00  0.00     0.069 C 
HETATM    7  C   UNL     1      26.339  46.764  53.116  1.00  0.00     0.073 C 
HETATM    8  N   UNL     1      24.820  46.520  51.224  1.00  0.00    -0.171 NA
HETATM    9  N   UNL     1      24.533  45.586  50.285  1.00  0.00    -0.237 N 
HETATM   10  C   UNL     1      25.457  44.540  50.320  1.00  0.00     0.050 C 
HETATM   11  C   UNL     1      25.602  43.516  49.250  1.00  0.00     0.071 C 
BRANCH   9  12
HETATM   12  C   UNL     1      23.400  45.806  49.439  1.00  0.00     0.058 A 
HETATM   13  C   UNL     1      22.490  44.750  49.241  1.00  0.00     0.033 A 
HETATM   14  C   UNL     1      21.366  44.917  48.428  1.00  0.00     0.021 A 
HETATM   15  C   UNL     1      21.154  46.133  47.790  1.00  0.00     0.011 A 
HETATM   16 BR   UNL     1      19.637  46.364  46.685  1.00  0.00    -0.051 Br
HETATM   17  C   UNL     1      22.058  47.180  47.951  1.00  0.00     0.021 A 
HETATM   18  C   UNL     1      23.184  47.018  48.771  1.00  0.00     0.033 A 
ENDBRANCH   9  12
ENDBRANCH   1   5
BRANCH   2  19
HETATM   19  C   UNL     1      28.205  42.698  53.915  1.00  0.00     0.159 C 
BRANCH  19  20
HETATM   20  C   UNL     1      29.531  43.467  53.793  1.00  0.00     0.169 C 
BRANCH  20  21
HETATM   21  O   UNL     1      30.496  42.649  53.119  1.00  0.00    -0.389 OA
HETATM   22  H   UNL     1      30.509  42.935  52.187  1.00  0.00     0.210 HD
ENDBRANCH  20  21
BRANCH  20  23
HETATM   23  C   UNL     1      30.064  43.896  55.145  1.00  0.00    -0.028 A 
HETATM   24  C   UNL     1      29.660  45.119  55.706  1.00  0.00     0.013 A 
HETATM   25  C   UNL     1      30.121  45.506  56.966  1.00  0.00     0.043 A 
HETATM   26  C   UNL     1      30.982  44.673  57.669  1.00  0.00     0.116 A 
HETATM   27  F   UNL     1      31.416  45.043  58.880  1.00  0.00    -0.206 F 
HETATM   28  C   UNL     1      31.396  43.460  57.134  1.00  0.00     0.043 A 
HETATM   29  C   UNL     1      30.940  43.071  55.873  1.00  0.00     0.013 A 
ENDBRANCH  20  23
ENDBRANCH  19  20
ENDBRANCH   2  19
TORSDOF 6
ENDMDL
MODEL 10
REMARK VINA RESULT:      -7.9      7.163      8.769
REMARK  6 active torsions:
REMARK  status: ('A' for Active; 'I' for Inactive)
REMARK    1  A    between atoms: N_4  and  C_5 
REMARK    2  A    between atoms: C_14  and  C_15 
REMARK       I    between atoms: C_15  and  N_16 
REMARK    3  A    between atoms: N_16  and  C_17 
REMARK    4  A    between atoms: C_17  and  C_18 
REMARK    5  A    between atoms: C_18  and  O_19 
REMARK    6  A    between atoms: C_18  and  C_20 
ROOT
HETATM    1  C   UNL     1      28.010  40.765  51.311  1.00  0.00     0.255 C 
HETATM    2  N   UNL     1      29.144  41.280  51.898  1.00  0.00    -0.354 N 
HETATM    3  O   UNL     1      26.926  40.749  51.887  1.00  0.00    -0.268 OA
HETATM    4  H   UNL     1      30.044  41.027  51.513  1.00  0.00     0.162 HD
ENDROOT
BRANCH   1   5
HETATM    5  C   UNL     1      28.182  40.200  49.978  1.00  0.00     0.082 C 
HETATM    6  C   UNL     1      28.914  39.026  49.673  1.00  0.00     0.069 C 
HETATM    7  C   UNL     1      29.676  38.152  50.604  1.00  0.00     0.073 C 
HETATM    8  N   UNL     1      28.851  38.716  48.379  1.00  0.00    -0.171 NA
HETATM    9  N   UNL     1      28.144  39.716  47.799  1.00  0.00    -0.237 N 
HETATM   10  C   UNL     1      27.623  40.585  48.758  1.00  0.00     0.050 C 
HETATM   11  C   UNL     1      26.574  41.604  48.483  1.00  0.00     0.071 C 
BRANCH   9  12
HETATM   12  C   UNL     1      28.034  39.723  46.372  1.00  0.00     0.058 A 
HETATM   13  C   UNL     1      27.695  38.524  45.716  1.00  0.00     0.033 A 
HETATM   14  C   UNL     1      27.570  38.480  44.325  1.00  0.00     0.021 A 
HETATM   15  C   UNL     1      27.803  39.628  43.577  1.00  0.00     0.011 A 
HETATM   16 BR   UNL     1      27.639  39.575  41.694  1.00  0.00    -0.051 Br
HETATM   17  C   UNL     1      28.167  40.817  44.207  1.00  0.00     0.021 A 
HETATM   18  C   UNL     1      28.287  40.865  45.602  1.00  0.00     0.033 A 
ENDBRANCH   9  12
ENDBRANCH   1   5
BRANCH   2  19
HETATM   19  C   UNL     1      29.130  41.714  53.287  1.00  0.00     0.159 C 
BRANCH  19  20
HETATM   20  C   UNL     1      28.629  43.160  53.432  1.00  0.00     0.169 C 
BRANCH  20  21
HETATM   21  O   UNL     1      28.874  43.874  52.213  1.00  0.00    -0.389 OA
HETATM   22  H   UNL     1      28.560  44.786  52.351  1.00  0.00     0.210 HD
ENDBRANCH  20  21
BRANCH  20  23
HETATM   23  C   UNL     1      29.286  43.874  54.596  1.00  0.00    -0.028 A 
HETATM   24  C   UNL     1      28.728  45.060  55.101  1.00  0.00     0.013 A 
HETATM   25  C   UNL     1      29.308  45.706  56.194  1.00  0.00     0.043 A 
HETATM   26  C   UNL     1      30.445  45.169  56.786  1.00  0.00     0.116 A 
HETATM   27  F   UNL     1      30.995  45.787  57.839  1.00  0.00    -0.206 F 
HETATM   28  C   UNL     1      31.015  43.998  56.302  1.00  0.00     0.043 A 
HETATM   29  C   UNL     1      30.439  43.352  55.207  1.00  0.00     0.013 A 
ENDBRANCH  20  23
ENDBRANCH  19  20
ENDBRANCH   2  19
TORSDOF 6
ENDMDL
