MODEL 1
REMARK VINA RESULT:      -8.3      0.000      0.000
REMARK  2 active torsions:
REMARK  status: ('A' for Active; 'I' for Inactive)
REMARK    1  A    between atoms: C_12  and  C_13 
REMARK    2  A    between atoms: C_16  and  O_17 
ROOT
HETATM    1  C   UNL     1      29.685  53.207  40.188  1.00  0.00     0.002 A 
HETATM    2  C   UNL     1      29.265  52.249  41.109  1.00  0.00     0.026 A 
HETATM    3  C   UNL     1      28.279  51.308  40.777  1.00  0.00     0.036 A 
HETATM    4  C   UNL     1      27.702  51.328  39.487  1.00  0.00     0.053 A 
HETATM    5  N   UNL     1      26.729  50.402  39.045  1.00  0.00    -0.356 N 
HETATM    6  C   UNL     1      26.610  49.092  39.453  1.00  0.00     0.041 A 
HETATM    7  C   UNL     1      27.196  48.476  40.492  1.00  0.00     0.056 A 
HETATM    8  C   UNL     1      26.749  47.077  40.474  1.00  0.00     0.251 A 
HETATM    9  O   UNL     1      27.029  46.219  41.287  1.00  0.00    -0.268 OA
HETATM   10  N   UNL     1      25.937  46.921  39.381  1.00  0.00    -0.351 N 
HETATM   11  C   UNL     1      25.754  48.138  38.663  1.00  0.00     0.180 A 
HETATM   12  C   UNL     1      28.071  48.988  41.575  1.00  0.00     0.134 C 
HETATM   13  N   UNL     1      27.860  50.432  41.807  1.00  0.00    -0.278 NA
HETATM   14  C   UNL     1      28.127  52.316  38.578  1.00  0.00     0.031 A 
HETATM   15  C   UNL     1      29.111  53.245  38.924  1.00  0.00     0.002 A 
HETATM   16  H   UNL     1      26.355  50.603  38.122  1.00  0.00     0.166 HD
HETATM   17  H   UNL     1      25.492  46.036  39.182  1.00  0.00     0.163 HD
HETATM   18  H   UNL     1      26.855  50.580  41.901  1.00  0.00     0.128 HD
ENDROOT
BRANCH  12  19
HETATM   19  C   UNL     1      29.553  48.646  41.461  1.00  0.00    -0.035 A 
HETATM   20  C   UNL     1      30.115  48.083  40.301  1.00  0.00     0.012 A 
HETATM   21  C   UNL     1      31.482  47.795  40.233  1.00  0.00     0.037 A 
HETATM   22  C   UNL     1      32.297  48.076  41.322  1.00  0.00     0.065 A 
HETATM   23  C   UNL     1      31.773  48.647  42.473  1.00  0.00     0.037 A 
HETATM   24  C   UNL     1      30.409  48.936  42.541  1.00  0.00     0.012 A 
BRANCH  22  25
HETATM   25  O   UNL     1      33.635  47.807  41.296  1.00  0.00    -0.361 OA
HETATM   26  H   UNL     1      34.064  48.327  41.994  1.00  0.00     0.217 HD
ENDBRANCH  22  25
ENDBRANCH  12  19
TORSDOF 2
ENDMDL
MODEL 2
REMARK VINA RESULT:      -8.0      2.569      5.204
REMARK  2 active torsions:
REMARK  status: ('A' for Active; 'I' for Inactive)
REMARK    1  A    between atoms: C_12  and  C_13 
REMARK    2  A    between atoms: C_16  and  O_17 
ROOT
HETATM    1  C   UNL     1      28.768  53.106  38.912  1.00  0.00     0.002 A 
HETATM    2  C   UNL     1      29.506  51.971  38.583  1.00  0.00     0.026 A 
HETATM    3  C   UNL     1      30.748  51.715  39.182  1.00  0.00     0.036 A 
HETATM    4  C   UNL     1      31.262  52.621  40.137  1.00  0.00     0.053 A 
HETATM    5  N   UNL     1      32.485  52.435  40.822  1.00  0.00    -0.356 N 
HETATM    6  C   UNL     1      33.051  51.225  41.158  1.00  0.00     0.041 A 
HETATM    7  C   UNL     1      32.729  49.995  40.729  1.00  0.00     0.056 A 
HETATM    8  C   UNL     1      33.627  49.050  41.406  1.00  0.00     0.251 A 
HETATM    9  O   UNL     1      33.670  47.848  41.239  1.00  0.00    -0.268 OA
HETATM   10  N   UNL     1      34.424  49.778  42.250  1.00  0.00    -0.351 N 
HETATM   11  C   UNL     1      34.168  51.177  42.166  1.00  0.00     0.180 A 
HETATM   12  C   UNL     1      31.750  49.530  39.716  1.00  0.00     0.134 C 
HETATM   13  N   UNL     1      31.459  50.582  38.719  1.00  0.00    -0.278 NA
HETATM   14  C   UNL     1      30.509  53.772  40.441  1.00  0.00     0.031 A 
HETATM   15  C   UNL     1      29.273  54.012  39.837  1.00  0.00     0.002 A 
HETATM   16  H   UNL     1      32.752  53.216  41.412  1.00  0.00     0.166 HD
HETATM   17  H   UNL     1      35.141  49.333  42.806  1.00  0.00     0.163 HD
HETATM   18  H   UNL     1      32.354  50.937  38.384  1.00  0.00     0.128 HD
ENDROOT
BRANCH  12  19
HETATM   19  C   UNL     1      30.472  48.896  40.255  1.00  0.00    -0.035 A 
HETATM   20  C   UNL     1      29.988  49.150  41.551  1.00  0.00     0.012 A 
HETATM   21  C   UNL     1      28.805  48.557  42.005  1.00  0.00     0.037 A 
HETATM   22  C   UNL     1      28.094  47.713  41.162  1.00  0.00     0.065 A 
HETATM   23  C   UNL     1      28.538  47.458  39.872  1.00  0.00     0.037 A 
HETATM   24  C   UNL     1      29.719  48.050  39.419  1.00  0.00     0.012 A 
BRANCH  22  25
HETATM   25  O   UNL     1      26.937  47.113  41.567  1.00  0.00    -0.361 OA
HETATM   26  H   UNL     1      26.222  47.398  40.976  1.00  0.00     0.217 HD
ENDBRANCH  22  25
ENDBRANCH  12  19
TORSDOF 2
ENDMDL
MODEL 3
REMARK VINA RESULT:      -7.8     12.245     14.617
REMARK  2 active torsions:
REMARK  status: ('A' for Active; 'I' for Inactive)
REMARK    1  A    between atoms: C_12  and  C_13 
REMARK    2  A    between atoms: C_16  and  O_17 
ROOT
HETATM    1  C   UNL     1      28.573  41.106  52.837  1.00  0.00     0.002 A 
HETATM    2  C   UNL     1      27.434  41.783  53.270  1.00  0.00     0.026 A 
HETATM    3  C   UNL     1      27.531  43.028  53.910  1.00  0.00     0.036 A 
HETATM    4  C   UNL     1      28.803  43.608  54.118  1.00  0.00     0.053 A 
HETATM    5  N   UNL     1      29.002  44.873  54.720  1.00  0.00    -0.356 N 
HETATM    6  C   UNL     1      28.141  45.945  54.660  1.00  0.00     0.041 A 
HETATM    7  C   UNL     1      26.863  45.979  54.250  1.00  0.00     0.056 A 
HETATM    8  C   UNL     1      26.407  47.371  54.368  1.00  0.00     0.251 A 
HETATM    9  O   UNL     1      25.290  47.787  54.135  1.00  0.00    -0.268 OA
HETATM   10  N   UNL     1      27.470  48.113  54.811  1.00  0.00    -0.351 N 
HETATM   11  C   UNL     1      28.625  47.316  55.054  1.00  0.00     0.180 A 
HETATM   12  C   UNL     1      25.937  44.903  53.821  1.00  0.00     0.134 C 
HETATM   13  N   UNL     1      26.325  43.595  54.388  1.00  0.00    -0.278 NA
HETATM   14  C   UNL     1      29.941  42.899  53.689  1.00  0.00     0.031 A 
HETATM   15  C   UNL     1      29.828  41.661  53.053  1.00  0.00     0.002 A 
HETATM   16  H   UNL     1      29.978  45.109  54.872  1.00  0.00     0.166 HD
HETATM   17  H   UNL     1      27.378  49.104  54.989  1.00  0.00     0.163 HD
HETATM   18  H   UNL     1      26.463  43.728  55.390  1.00  0.00     0.128 HD
ENDROOT
BRANCH  12  19
HETATM   19  C   UNL     1      25.663  44.809  52.323  1.00  0.00    -0.035 A 
HETATM   20  C   UNL     1      26.499  45.401  51.360  1.00  0.00     0.012 A 
HETATM   21  C   UNL     1      26.220  45.282  49.995  1.00  0.00     0.037 A 
HETATM   22  C   UNL     1      25.105  44.562  49.584  1.00  0.00     0.065 A 
HETATM   23  C   UNL     1      24.271  43.952  50.511  1.00  0.00     0.037 A 
HETATM   24  C   UNL     1      24.552  44.070  51.874  1.00  0.00     0.012 A 
BRANCH  22  25
HETATM   25  O   UNL     1      24.795  44.424  48.262  1.00  0.00    -0.361 OA
HETATM   26  H   UNL     1      23.897  44.064  48.195  1.00  0.00     0.217 HD
ENDBRANCH  22  25
ENDBRANCH  12  19
TORSDOF 2
ENDMDL
MODEL 4
REMARK VINA RESULT:      -7.8     12.409     13.888
REMARK  2 active torsions:
REMARK  status: ('A' for Active; 'I' for Inactive)
REMARK    1  A    between atoms: C_12  and  C_13 
REMARK    2  A    between atoms: C_16  and  O_17 
ROOT
HETATM    1  C   UNL     1      25.973  47.136  51.611  1.00  0.00     0.002 A 
HETATM    2  C   UNL     1      25.786  46.050  52.464  1.00  0.00     0.026 A 
HETATM    3  C   UNL     1      26.131  44.750  52.069  1.00  0.00     0.036 A 
HETATM    4  C   UNL     1      26.681  44.534  50.785  1.00  0.00     0.053 A 
HETATM    5  N   UNL     1      27.094  43.268  50.307  1.00  0.00    -0.356 N 
HETATM    6  C   UNL     1      27.589  42.235  51.070  1.00  0.00     0.041 A 
HETATM    7  C   UNL     1      27.573  42.088  52.405  1.00  0.00     0.056 A 
HETATM    8  C   UNL     1      28.247  40.819  52.709  1.00  0.00     0.251 A 
HETATM    9  O   UNL     1      28.386  40.321  53.808  1.00  0.00    -0.268 OA
HETATM   10  N   UNL     1      28.672  40.286  51.521  1.00  0.00    -0.351 N 
HETATM   11  C   UNL     1      28.295  41.084  50.403  1.00  0.00     0.180 A 
HETATM   12  C   UNL     1      26.963  42.909  53.478  1.00  0.00     0.134 C 
HETATM   13  N   UNL     1      25.824  43.705  52.973  1.00  0.00    -0.278 NA
HETATM   14  C   UNL     1      26.844  45.642  49.932  1.00  0.00     0.031 A 
HETATM   15  C   UNL     1      26.497  46.931  50.341  1.00  0.00     0.002 A 
HETATM   16  H   UNL     1      27.389  43.269  49.336  1.00  0.00     0.166 HD
HETATM   17  H   UNL     1      29.145  39.394  51.488  1.00  0.00     0.163 HD
HETATM   18  H   UNL     1      25.214  43.068  52.459  1.00  0.00     0.128 HD
ENDROOT
BRANCH  12  19
HETATM   19  C   UNL     1      27.922  43.761  54.304  1.00  0.00    -0.035 A 
HETATM   20  C   UNL     1      27.494  44.862  55.067  1.00  0.00     0.012 A 
HETATM   21  C   UNL     1      28.404  45.612  55.819  1.00  0.00     0.037 A 
HETATM   22  C   UNL     1      29.748  45.260  55.819  1.00  0.00     0.065 A 
HETATM   23  C   UNL     1      30.196  44.168  55.089  1.00  0.00     0.037 A 
HETATM   24  C   UNL     1      29.287  43.419  54.339  1.00  0.00     0.012 A 
BRANCH  22  25
HETATM   25  O   UNL     1      30.667  45.966  56.538  1.00  0.00    -0.361 OA
HETATM   26  H   UNL     1      30.994  45.401  57.256  1.00  0.00     0.217 HD
ENDBRANCH  22  25
ENDBRANCH  12  19
TORSDOF 2
ENDMDL
MODEL 5
REMARK VINA RESULT:      -7.6     25.826     27.180
REMARK  2 active torsions:
REMARK  status: ('A' for Active; 'I' for Inactive)
REMARK    1  A    between atoms: C_12  and  C_13 
REMARK    2  A    between atoms: C_16  and  O_17 
ROOT
HETATM    1  C   UNL     1      42.578  44.306  64.608  1.00  0.00     0.002 A 
HETATM    2  C   UNL     1      41.701  43.539  65.373  1.00  0.00     0.026 A 
HETATM    3  C   UNL     1      40.367  43.933  65.557  1.00  0.00     0.036 A 
HETATM    4  C   UNL     1      39.901  45.124  64.956  1.00  0.00     0.053 A 
HETATM    5  N   UNL     1      38.568  45.587  65.052  1.00  0.00    -0.356 N 
HETATM    6  C   UNL     1      37.443  44.802  65.172  1.00  0.00     0.041 A 
HETATM    7  C   UNL     1      37.355  43.494  65.460  1.00  0.00     0.056 A 
HETATM    8  C   UNL     1      35.928  43.143  65.449  1.00  0.00     0.251 A 
HETATM    9  O   UNL     1      35.448  42.058  65.711  1.00  0.00    -0.268 OA
HETATM   10  N   UNL     1      35.232  44.274  65.109  1.00  0.00    -0.351 N 
HETATM   11  C   UNL     1      36.084  45.401  64.928  1.00  0.00     0.180 A 
HETATM   12  C   UNL     1      38.387  42.493  65.823  1.00  0.00     0.134 C 
HETATM   13  N   UNL     1      39.579  43.133  66.419  1.00  0.00    -0.278 NA
HETATM   14  C   UNL     1      40.809  45.893  64.203  1.00  0.00     0.031 A 
HETATM   15  C   UNL     1      42.134  45.488  64.028  1.00  0.00     0.002 A 
HETATM   16  H   UNL     1      38.416  46.500  64.635  1.00  0.00     0.166 HD
HETATM   17  H   UNL     1      34.223  44.272  65.063  1.00  0.00     0.163 HD
HETATM   18  H   UNL     1      39.250  43.762  67.152  1.00  0.00     0.128 HD
ENDROOT
BRANCH  12  19
HETATM   19  C   UNL     1      38.769  41.493  64.736  1.00  0.00    -0.035 A 
HETATM   20  C   UNL     1      38.657  41.785  63.365  1.00  0.00     0.012 A 
HETATM   21  C   UNL     1      39.028  40.845  62.398  1.00  0.00     0.037 A 
HETATM   22  C   UNL     1      39.522  39.609  62.797  1.00  0.00     0.065 A 
HETATM   23  C   UNL     1      39.660  39.301  64.144  1.00  0.00     0.037 A 
HETATM   24  C   UNL     1      39.290  40.239  65.108  1.00  0.00     0.012 A 
BRANCH  22  25
HETATM   25  O   UNL     1      39.893  38.664  61.886  1.00  0.00    -0.361 OA
HETATM   26  H   UNL     1      40.828  38.447  62.034  1.00  0.00     0.217 HD
ENDBRANCH  22  25
ENDBRANCH  12  19
TORSDOF 2
ENDMDL
MODEL 6
REMARK VINA RESULT:      -7.6     11.012     13.230
REMARK  2 active torsions:
REMARK  status: ('A' for Active; 'I' for Inactive)
REMARK    1  A    between atoms: C_12  and  C_13 
REMARK    2  A    between atoms: C_16  and  O_17 
ROOT
HETATM    1  C   UNL     1      17.005  46.609  48.466  1.00  0.00     0.002 A 
HETATM    2  C   UNL     1      17.595  47.590  49.260  1.00  0.00     0.026 A 
HETATM    3  C   UNL     1      18.989  47.668  49.400  1.00  0.00     0.036 A 
HETATM    4  C   UNL     1      19.811  46.738  48.723  1.00  0.00     0.053 A 
HETATM    5  N   UNL     1      21.224  46.755  48.772  1.00  0.00    -0.356 N 
HETATM    6  C   UNL     1      22.018  47.870  48.920  1.00  0.00     0.041 A 
HETATM    7  C   UNL     1      21.666  49.114  49.281  1.00  0.00     0.056 A 
HETATM    8  C   UNL     1      22.887  49.930  49.269  1.00  0.00     0.251 A 
HETATM    9  O   UNL     1      22.978  51.100  49.586  1.00  0.00    -0.268 OA
HETATM   10  N   UNL     1      23.914  49.124  48.853  1.00  0.00    -0.351 N 
HETATM   11  C   UNL     1      23.491  47.784  48.620  1.00  0.00     0.180 A 
HETATM   12  C   UNL     1      20.368  49.683  49.719  1.00  0.00     0.134 C 
HETATM   13  N   UNL     1      19.487  48.645  50.294  1.00  0.00    -0.278 NA
HETATM   14  C   UNL     1      19.193  45.743  47.941  1.00  0.00     0.031 A 
HETATM   15  C   UNL     1      17.804  45.680  47.811  1.00  0.00     0.002 A 
HETATM   16  H   UNL     1      21.664  45.970  48.300  1.00  0.00     0.166 HD
HETATM   17  H   UNL     1      24.861  49.473  48.791  1.00  0.00     0.163 HD
HETATM   18  H   UNL     1      20.035  48.131  50.984  1.00  0.00     0.128 HD
ENDROOT
BRANCH  12  19
HETATM   19  C   UNL     1      19.632  50.544  48.698  1.00  0.00    -0.035 A 
HETATM   20  C   UNL     1      19.445  50.144  47.362  1.00  0.00     0.012 A 
HETATM   21  C   UNL     1      18.754  50.957  46.459  1.00  0.00     0.037 A 
HETATM   22  C   UNL     1      18.237  52.174  46.888  1.00  0.00     0.065 A 
HETATM   23  C   UNL     1      18.391  52.586  48.205  1.00  0.00     0.037 A 
HETATM   24  C   UNL     1      19.080  51.773  49.106  1.00  0.00     0.012 A 
BRANCH  22  25
HETATM   25  O   UNL     1      17.559  52.997  46.038  1.00  0.00    -0.361 OA
HETATM   26  H   UNL     1      16.635  53.045  46.331  1.00  0.00     0.217 HD
ENDBRANCH  22  25
ENDBRANCH  12  19
TORSDOF 2
ENDMDL
MODEL 7
REMARK VINA RESULT:      -7.5     11.562     12.912
REMARK  2 active torsions:
REMARK  status: ('A' for Active; 'I' for Inactive)
REMARK    1  A    between atoms: C_12  and  C_13 
REMARK    2  A    between atoms: C_16  and  O_17 
ROOT
HETATM    1  C   UNL     1      25.880  46.786  51.990  1.00  0.00     0.002 A 
HETATM    2  C   UNL     1      25.727  45.458  52.384  1.00  0.00     0.026 A 
HETATM    3  C   UNL     1      25.862  44.409  51.463  1.00  0.00     0.036 A 
HETATM    4  C   UNL     1      26.161  44.700  50.112  1.00  0.00     0.053 A 
HETATM    5  N   UNL     1      26.352  43.714  49.117  1.00  0.00    -0.356 N 
HETATM    6  C   UNL     1      26.858  42.449  49.315  1.00  0.00     0.041 A 
HETATM    7  C   UNL     1      27.053  41.789  50.468  1.00  0.00     0.056 A 
HETATM    8  C   UNL     1      27.631  40.482  50.127  1.00  0.00     0.251 A 
HETATM    9  O   UNL     1      27.902  39.587  50.902  1.00  0.00    -0.268 OA
HETATM   10  N   UNL     1      27.792  40.449  48.766  1.00  0.00    -0.351 N 
HETATM   11  C   UNL     1      27.317  41.634  48.135  1.00  0.00     0.180 A 
HETATM   12  C   UNL     1      26.723  42.138  51.871  1.00  0.00     0.134 C 
HETATM   13  N   UNL     1      25.604  43.102  51.941  1.00  0.00    -0.278 NA
HETATM   14  C   UNL     1      26.293  46.049  49.732  1.00  0.00     0.031 A 
HETATM   15  C   UNL     1      26.156  47.083  50.661  1.00  0.00     0.002 A 
HETATM   16  H   UNL     1      26.477  44.088  48.182  1.00  0.00     0.166 HD
HETATM   17  H   UNL     1      28.156  39.628  48.303  1.00  0.00     0.163 HD
HETATM   18  H   UNL     1      24.853  42.738  51.355  1.00  0.00     0.128 HD
ENDROOT
BRANCH  12  19
HETATM   19  C   UNL     1      27.892  42.566  52.752  1.00  0.00    -0.035 A 
HETATM   20  C   UNL     1      29.215  42.627  52.279  1.00  0.00     0.012 A 
HETATM   21  C   UNL     1      30.258  43.035  53.116  1.00  0.00     0.037 A 
HETATM   22  C   UNL     1      29.984  43.394  54.429  1.00  0.00     0.065 A 
HETATM   23  C   UNL     1      28.685  43.360  54.918  1.00  0.00     0.037 A 
HETATM   24  C   UNL     1      27.643  42.953  54.082  1.00  0.00     0.012 A 
BRANCH  22  25
HETATM   25  O   UNL     1      30.973  43.796  55.278  1.00  0.00    -0.361 OA
HETATM   26  H   UNL     1      30.709  44.639  55.679  1.00  0.00     0.217 HD
ENDBRANCH  22  25
ENDBRANCH  12  19
TORSDOF 2
ENDMDL
MODEL 8
REMARK VINA RESULT:      -7.5      2.343      3.920
REMARK  2 active torsions:
REMARK  status: ('A' for Active; 'I' for Inactive)
REMARK    1  A    between atoms: C_12  and  C_13 
REMARK    2  A    between atoms: C_16  and  O_17 
ROOT
HETATM    1  C   UNL     1      31.758  48.824  42.670  1.00  0.00     0.002 A 
HETATM    2  C   UNL     1      30.373  48.681  42.716  1.00  0.00     0.026 A 
HETATM    3  C   UNL     1      29.538  49.442  41.885  1.00  0.00     0.036 A 
HETATM    4  C   UNL     1      30.109  50.368  40.982  1.00  0.00     0.053 A 
HETATM    5  N   UNL     1      29.355  51.154  40.079  1.00  0.00    -0.356 N 
HETATM    6  C   UNL     1      28.160  50.800  39.496  1.00  0.00     0.041 A 
HETATM    7  C   UNL     1      27.336  49.787  39.809  1.00  0.00     0.056 A 
HETATM    8  C   UNL     1      26.208  49.839  38.870  1.00  0.00     0.251 A 
HETATM    9  O   UNL     1      25.234  49.113  38.868  1.00  0.00    -0.268 OA
HETATM   10  N   UNL     1      26.445  50.875  38.004  1.00  0.00    -0.351 N 
HETATM   11  C   UNL     1      27.645  51.576  38.313  1.00  0.00     0.180 A 
HETATM   12  C   UNL     1      27.375  48.789  40.905  1.00  0.00     0.134 C 
HETATM   13  N   UNL     1      28.143  49.286  42.066  1.00  0.00    -0.278 NA
HETATM   14  C   UNL     1      31.509  50.510  40.965  1.00  0.00     0.031 A 
HETATM   15  C   UNL     1      32.327  49.745  41.799  1.00  0.00     0.002 A 
HETATM   16  H   UNL     1      29.907  51.829  39.559  1.00  0.00     0.166 HD
HETATM   17  H   UNL     1      25.781  51.114  37.280  1.00  0.00     0.163 HD
HETATM   18  H   UNL     1      27.789  50.217  42.286  1.00  0.00     0.128 HD
ENDROOT
BRANCH  12  19
HETATM   19  C   UNL     1      27.797  47.375  40.515  1.00  0.00    -0.035 A 
HETATM   20  C   UNL     1      28.867  47.118  39.640  1.00  0.00     0.012 A 
HETATM   21  C   UNL     1      29.230  45.807  39.315  1.00  0.00     0.037 A 
HETATM   22  C   UNL     1      28.530  44.744  39.871  1.00  0.00     0.065 A 
HETATM   23  C   UNL     1      27.480  44.968  40.751  1.00  0.00     0.037 A 
HETATM   24  C   UNL     1      27.118  46.277  41.075  1.00  0.00     0.012 A 
BRANCH  22  25
HETATM   25  O   UNL     1      28.850  43.451  39.578  1.00  0.00    -0.361 OA
HETATM   26  H   UNL     1      28.032  42.931  39.554  1.00  0.00     0.217 HD
ENDBRANCH  22  25
ENDBRANCH  12  19
TORSDOF 2
ENDMDL
MODEL 9
REMARK VINA RESULT:      -7.4      3.076      6.107
REMARK  2 active torsions:
REMARK  status: ('A' for Active; 'I' for Inactive)
REMARK    1  A    between atoms: C_12  and  C_13 
REMARK    2  A    between atoms: C_16  and  O_17 
ROOT
HETATM    1  C   UNL     1      28.240  47.135  39.371  1.00  0.00     0.002 A 
HETATM    2  C   UNL     1      28.457  48.009  40.434  1.00  0.00     0.026 A 
HETATM    3  C   UNL     1      29.745  48.215  40.952  1.00  0.00     0.036 A 
HETATM    4  C   UNL     1      30.842  47.527  40.386  1.00  0.00     0.053 A 
HETATM    5  N   UNL     1      32.181  47.693  40.813  1.00  0.00    -0.356 N 
HETATM    6  C   UNL     1      32.730  48.842  41.336  1.00  0.00     0.041 A 
HETATM    7  C   UNL     1      32.109  49.948  41.777  1.00  0.00     0.056 A 
HETATM    8  C   UNL     1      33.153  50.884  42.216  1.00  0.00     0.251 A 
HETATM    9  O   UNL     1      32.979  51.975  42.721  1.00  0.00    -0.268 OA
HETATM   10  N   UNL     1      34.363  50.291  41.971  1.00  0.00    -0.351 N 
HETATM   11  C   UNL     1      34.226  48.980  41.432  1.00  0.00     0.180 A 
HETATM   12  C   UNL     1      30.671  50.275  41.933  1.00  0.00     0.134 C 
HETATM   13  N   UNL     1      29.850  49.055  42.086  1.00  0.00    -0.278 NA
HETATM   14  C   UNL     1      30.598  46.635  39.325  1.00  0.00     0.031 A 
HETATM   15  C   UNL     1      29.311  46.442  38.820  1.00  0.00     0.002 A 
HETATM   16  H   UNL     1      32.839  47.066  40.362  1.00  0.00     0.166 HD
HETATM   17  H   UNL     1      35.230  50.749  42.219  1.00  0.00     0.163 HD
HETATM   18  H   UNL     1      30.288  48.486  42.811  1.00  0.00     0.128 HD
ENDROOT
BRANCH  12  19
HETATM   19  C   UNL     1      30.080  51.226  40.896  1.00  0.00    -0.035 A 
HETATM   20  C   UNL     1      29.124  52.204  41.222  1.00  0.00     0.012 A 
HETATM   21  C   UNL     1      28.614  53.064  40.245  1.00  0.00     0.037 A 
HETATM   22  C   UNL     1      29.063  52.956  38.935  1.00  0.00     0.065 A 
HETATM   23  C   UNL     1      30.018  52.011  38.587  1.00  0.00     0.037 A 
HETATM   24  C   UNL     1      30.528  51.153  39.564  1.00  0.00     0.012 A 
BRANCH  22  25
HETATM   25  O   UNL     1      28.589  53.774  37.951  1.00  0.00    -0.361 OA
HETATM   26  H   UNL     1      28.778  53.361  37.093  1.00  0.00     0.217 HD
ENDBRANCH  22  25
ENDBRANCH  12  19
TORSDOF 2
ENDMDL
MODEL 10
REMARK VINA RESULT:      -7.2     11.215     13.415
REMARK  2 active torsions:
REMARK  status: ('A' for Active; 'I' for Inactive)
REMARK    1  A    between atoms: C_12  and  C_13 
REMARK    2  A    between atoms: C_16  and  O_17 
ROOT
HETATM    1  C   UNL     1      26.306  45.288  54.065  1.00  0.00     0.002 A 
HETATM    2  C   UNL     1      26.600  45.324  52.704  1.00  0.00     0.026 A 
HETATM    3  C   UNL     1      27.192  44.227  52.061  1.00  0.00     0.036 A 
HETATM    4  C   UNL     1      27.493  43.063  52.804  1.00  0.00     0.053 A 
HETATM    5  N   UNL     1      28.057  41.893  52.241  1.00  0.00    -0.356 N 
HETATM    6  C   UNL     1      27.870  41.441  50.955  1.00  0.00     0.041 A 
HETATM    7  C   UNL     1      27.341  42.084  49.902  1.00  0.00     0.056 A 
HETATM    8  C   UNL     1      27.355  41.149  48.770  1.00  0.00     0.251 A 
HETATM    9  O   UNL     1      27.000  41.385  47.632  1.00  0.00    -0.268 OA
HETATM   10  N   UNL     1      27.864  39.962  49.227  1.00  0.00    -0.351 N 
HETATM   11  C   UNL     1      28.248  40.028  50.597  1.00  0.00     0.180 A 
HETATM   12  C   UNL     1      26.873  43.482  49.736  1.00  0.00     0.134 C 
HETATM   13  N   UNL     1      27.530  44.393  50.697  1.00  0.00    -0.278 NA
HETATM   14  C   UNL     1      27.205  43.054  54.182  1.00  0.00     0.031 A 
HETATM   15  C   UNL     1      26.614  44.154  54.807  1.00  0.00     0.002 A 
HETATM   16  H   UNL     1      28.289  41.177  52.923  1.00  0.00     0.166 HD
HETATM   17  H   UNL     1      27.989  39.173  48.607  1.00  0.00     0.163 HD
HETATM   18  H   UNL     1      28.534  44.220  50.640  1.00  0.00     0.128 HD
ENDROOT
BRANCH  12  19
HETATM   19  C   UNL     1      25.361  43.688  49.708  1.00  0.00    -0.035 A 
HETATM   20  C   UNL     1      24.457  42.733  50.205  1.00  0.00     0.012 A 
HETATM   21  C   UNL     1      23.078  42.963  50.172  1.00  0.00     0.037 A 
HETATM   22  C   UNL     1      22.595  44.156  49.649  1.00  0.00     0.065 A 
HETATM   23  C   UNL     1      23.466  45.124  49.167  1.00  0.00     0.037 A 
HETATM   24  C   UNL     1      24.842  44.894  49.201  1.00  0.00     0.012 A 
BRANCH  22  25
HETATM   25  O   UNL     1      21.258  44.420  49.596  1.00  0.00    -0.361 OA
HETATM   26  H   UNL     1      20.969  44.713  50.475  1.00  0.00     0.217 HD
ENDBRANCH  22  25
ENDBRANCH  12  19
TORSDOF 2
ENDMDL
