MODEL 1
REMARK VINA RESULT:      -8.7      0.000      0.000
REMARK  5 active torsions:
REMARK  status: ('A' for Active; 'I' for Inactive)
REMARK    1  A    between atoms: C_2  and  O_3 
REMARK    2  A    between atoms: O_3  and  C_4 
REMARK    3  A    between atoms: C_5  and  C_6 
REMARK       I    between atoms: C_6  and  N_7 
REMARK    4  A    between atoms: N_7  and  N_8 
REMARK    5  A    between atoms: C_9  and  C_10 
ROOT
HETATM    1  C   UNL     1      27.804  45.759  54.303  1.00  0.00     0.274 C 
HETATM    2  N   UNL     1      26.968  45.071  53.439  1.00  0.00    -0.243 N 
HETATM    3  O   UNL     1      27.720  46.961  54.546  1.00  0.00    -0.266 OA
HETATM    4  H   UNL     1      27.092  44.071  53.306  1.00  0.00     0.192 HD
ENDROOT
BRANCH   2   5
HETATM    5  N   UNL     1      26.070  45.765  52.683  1.00  0.00    -0.183 NA
HETATM    6  C   UNL     1      26.401  45.981  51.451  1.00  0.00     0.152 C 
BRANCH   6   7
HETATM    7  C   UNL     1      25.517  46.767  50.615  1.00  0.00     0.011 A 
HETATM    8  C   UNL     1      25.850  47.893  49.794  1.00  0.00     0.004 A 
HETATM    9  C   UNL     1      24.666  48.342  49.203  1.00  0.00     0.043 A 
HETATM   10  C   UNL     1      27.045  48.584  49.502  1.00  0.00     0.014 A 
HETATM   11  C   UNL     1      24.616  49.444  48.342  1.00  0.00     0.030 A 
HETATM   12  N   UNL     1      23.655  47.517  49.636  1.00  0.00    -0.364 N 
HETATM   13  C   UNL     1      25.814  50.111  48.073  1.00  0.00     0.002 A 
HETATM   14  C   UNL     1      27.012  49.688  48.641  1.00  0.00     0.001 A 
HETATM   15  H   UNL     1      22.684  47.605  49.372  1.00  0.00     0.165 HD
HETATM   16  C   UNL     1      24.155  46.568  50.483  1.00  0.00     0.102 A 
ENDBRANCH   6   7
ENDBRANCH   2   5
BRANCH   1  17
HETATM   17  C   UNL     1      28.917  44.973  54.922  1.00  0.00     0.068 A 
HETATM   18  C   UNL     1      29.533  43.856  54.326  1.00  0.00     0.084 A 
HETATM   19  C   UNL     1      30.613  43.240  54.975  1.00  0.00     0.039 A 
HETATM   20  C   UNL     1      31.053  43.698  56.220  1.00  0.00     0.022 A 
HETATM   21  C   UNL     1      30.418  44.779  56.822  1.00  0.00     0.012 A 
HETATM   22  C   UNL     1      29.359  45.415  56.183  1.00  0.00     0.039 A 
HETATM   23 BR   UNL     1      31.013  45.398  58.505  1.00  0.00    -0.051 Br
BRANCH  18  24
HETATM   24  O   UNL     1      29.074  43.430  53.103  1.00  0.00    -0.350 OA
BRANCH  24  25
HETATM   25  C   UNL     1      29.290  42.045  52.807  1.00  0.00     0.171 C 
HETATM   26  C   UNL     1      28.034  41.280  53.184  1.00  0.00     0.034 C 
ENDBRANCH  24  25
ENDBRANCH  18  24
ENDBRANCH   1  17
TORSDOF 5
ENDMDL
MODEL 2
REMARK VINA RESULT:      -8.5      3.701      8.220
REMARK  5 active torsions:
REMARK  status: ('A' for Active; 'I' for Inactive)
REMARK    1  A    between atoms: C_2  and  O_3 
REMARK    2  A    between atoms: O_3  and  C_4 
REMARK    3  A    between atoms: C_5  and  C_6 
REMARK       I    between atoms: C_6  and  N_7 
REMARK    4  A    between atoms: N_7  and  N_8 
REMARK    5  A    between atoms: C_9  and  C_10 
ROOT
HETATM    1  C   UNL     1      25.432  47.176  50.970  1.00  0.00     0.274 C 
HETATM    2  N   UNL     1      25.284  46.399  52.107  1.00  0.00    -0.243 N 
HETATM    3  O   UNL     1      26.365  47.951  50.772  1.00  0.00    -0.266 OA
HETATM    4  H   UNL     1      24.491  45.768  52.186  1.00  0.00     0.192 HD
ENDROOT
BRANCH   2   5
HETATM    5  N   UNL     1      26.133  46.582  53.158  1.00  0.00    -0.183 NA
HETATM    6  C   UNL     1      26.952  45.613  53.410  1.00  0.00     0.152 C 
BRANCH   6   7
HETATM    7  C   UNL     1      27.835  45.721  54.554  1.00  0.00     0.011 A 
HETATM    8  C   UNL     1      28.933  44.870  54.904  1.00  0.00     0.004 A 
HETATM    9  C   UNL     1      29.463  45.346  56.106  1.00  0.00     0.043 A 
HETATM   10  C   UNL     1      29.523  43.729  54.320  1.00  0.00     0.014 A 
HETATM   11  C   UNL     1      30.546  44.740  56.752  1.00  0.00     0.030 A 
HETATM   12  N   UNL     1      28.727  46.449  56.467  1.00  0.00    -0.364 N 
HETATM   13  C   UNL     1      31.110  43.610  56.152  1.00  0.00     0.002 A 
HETATM   14  C   UNL     1      30.609  43.111  54.953  1.00  0.00     0.001 A 
HETATM   15  H   UNL     1      28.883  47.000  57.300  1.00  0.00     0.165 HD
HETATM   16  C   UNL     1      27.748  46.684  55.543  1.00  0.00     0.102 A 
ENDBRANCH   6   7
ENDBRANCH   2   5
BRANCH   1  17
HETATM   17  C   UNL     1      24.335  47.094  49.956  1.00  0.00     0.068 A 
HETATM   18  C   UNL     1      23.779  45.891  49.478  1.00  0.00     0.084 A 
HETATM   19  C   UNL     1      22.706  45.943  48.575  1.00  0.00     0.039 A 
HETATM   20  C   UNL     1      22.215  47.169  48.119  1.00  0.00     0.022 A 
HETATM   21  C   UNL     1      22.791  48.353  48.567  1.00  0.00     0.012 A 
HETATM   22  C   UNL     1      23.841  48.321  49.478  1.00  0.00     0.039 A 
HETATM   23 BR   UNL     1      22.126  50.011  47.950  1.00  0.00    -0.051 Br
BRANCH  18  24
HETATM   24  O   UNL     1      24.287  44.703  49.945  1.00  0.00    -0.350 OA
BRANCH  24  25
HETATM   25  C   UNL     1      25.126  43.986  49.030  1.00  0.00     0.171 C 
HETATM   26  C   UNL     1      26.500  43.847  49.661  1.00  0.00     0.034 C 
ENDBRANCH  24  25
ENDBRANCH  18  24
ENDBRANCH   1  17
TORSDOF 5
ENDMDL
MODEL 3
REMARK VINA RESULT:      -8.5      3.716      8.592
REMARK  5 active torsions:
REMARK  status: ('A' for Active; 'I' for Inactive)
REMARK    1  A    between atoms: C_2  and  O_3 
REMARK    2  A    between atoms: O_3  and  C_4 
REMARK    3  A    between atoms: C_5  and  C_6 
REMARK       I    between atoms: C_6  and  N_7 
REMARK    4  A    between atoms: N_7  and  N_8 
REMARK    5  A    between atoms: C_9  and  C_10 
ROOT
HETATM    1  C   UNL     1      25.325  46.579  50.411  1.00  0.00     0.274 C 
HETATM    2  N   UNL     1      25.301  47.021  51.723  1.00  0.00    -0.243 N 
HETATM    3  O   UNL     1      26.246  45.940  49.907  1.00  0.00    -0.266 OA
HETATM    4  H   UNL     1      24.492  47.530  52.069  1.00  0.00     0.192 HD
ENDROOT
BRANCH   2   5
HETATM    5  N   UNL     1      26.414  46.879  52.498  1.00  0.00    -0.183 NA
HETATM    6  C   UNL     1      26.292  46.136  53.549  1.00  0.00     0.152 C 
BRANCH   6   7
HETATM    7  C   UNL     1      27.421  45.998  54.446  1.00  0.00     0.011 A 
HETATM    8  C   UNL     1      28.408  44.960  54.467  1.00  0.00     0.004 A 
HETATM    9  C   UNL     1      29.276  45.231  55.529  1.00  0.00     0.043 A 
HETATM   10  C   UNL     1      28.645  43.805  53.692  1.00  0.00     0.014 A 
HETATM   11  C   UNL     1      30.360  44.409  55.854  1.00  0.00     0.030 A 
HETATM   12  N   UNL     1      28.842  46.393  56.123  1.00  0.00    -0.364 N 
HETATM   13  C   UNL     1      30.569  43.271  55.070  1.00  0.00     0.002 A 
HETATM   14  C   UNL     1      29.727  42.972  54.003  1.00  0.00     0.001 A 
HETATM   15  H   UNL     1      29.278  46.830  56.922  1.00  0.00     0.165 HD
HETATM   16  C   UNL     1      27.730  46.862  55.481  1.00  0.00     0.102 A 
ENDBRANCH   6   7
ENDBRANCH   2   5
BRANCH   1  17
HETATM   17  C   UNL     1      24.166  46.974  49.551  1.00  0.00     0.068 A 
HETATM   18  C   UNL     1      23.929  48.281  49.082  1.00  0.00     0.084 A 
HETATM   19  C   UNL     1      22.842  48.516  48.227  1.00  0.00     0.039 A 
HETATM   20  C   UNL     1      21.975  47.479  47.872  1.00  0.00     0.022 A 
HETATM   21  C   UNL     1      22.191  46.198  48.368  1.00  0.00     0.012 A 
HETATM   22  C   UNL     1      23.276  45.942  49.199  1.00  0.00     0.039 A 
HETATM   23 BR   UNL     1      21.018  44.796  47.888  1.00  0.00    -0.051 Br
BRANCH  18  24
HETATM   24  O   UNL     1      24.800  49.277  49.452  1.00  0.00    -0.350 OA
BRANCH  24  25
HETATM   25  C   UNL     1      25.676  49.750  48.421  1.00  0.00     0.171 C 
HETATM   26  C   UNL     1      27.099  49.398  48.813  1.00  0.00     0.034 C 
ENDBRANCH  24  25
ENDBRANCH  18  24
ENDBRANCH   1  17
TORSDOF 5
ENDMDL
MODEL 4
REMARK VINA RESULT:      -8.3      4.064      7.990
REMARK  5 active torsions:
REMARK  status: ('A' for Active; 'I' for Inactive)
REMARK    1  A    between atoms: C_2  and  O_3 
REMARK    2  A    between atoms: O_3  and  C_4 
REMARK    3  A    between atoms: C_5  and  C_6 
REMARK       I    between atoms: C_6  and  N_7 
REMARK    4  A    between atoms: N_7  and  N_8 
REMARK    5  A    between atoms: C_9  and  C_10 
ROOT
HETATM    1  C   UNL     1      27.707  41.513  51.780  1.00  0.00     0.274 C 
HETATM    2  N   UNL     1      26.912  42.494  52.348  1.00  0.00    -0.243 N 
HETATM    3  O   UNL     1      28.721  41.050  52.298  1.00  0.00    -0.266 OA
HETATM    4  H   UNL     1      26.078  42.811  51.862  1.00  0.00     0.192 HD
ENDROOT
BRANCH   2   5
HETATM    5  N   UNL     1      27.325  43.111  53.492  1.00  0.00    -0.183 NA
HETATM    6  C   UNL     1      27.992  44.210  53.344  1.00  0.00     0.152 C 
BRANCH   6   7
HETATM    7  C   UNL     1      28.511  44.878  54.520  1.00  0.00     0.011 A 
HETATM    8  C   UNL     1      29.556  44.437  55.396  1.00  0.00     0.004 A 
HETATM    9  C   UNL     1      29.683  45.393  56.407  1.00  0.00     0.043 A 
HETATM   10  C   UNL     1      30.403  43.309  55.434  1.00  0.00     0.014 A 
HETATM   11  C   UNL     1      30.606  45.276  57.452  1.00  0.00     0.030 A 
HETATM   12  N   UNL     1      28.762  46.381  56.152  1.00  0.00    -0.364 N 
HETATM   13  C   UNL     1      31.431  44.147  57.466  1.00  0.00     0.002 A 
HETATM   14  C   UNL     1      31.334  43.178  56.472  1.00  0.00     0.001 A 
HETATM   15  H   UNL     1      28.624  47.203  56.723  1.00  0.00     0.165 HD
HETATM   16  C   UNL     1      28.054  46.083  55.022  1.00  0.00     0.102 A 
ENDBRANCH   6   7
ENDBRANCH   2   5
BRANCH   1  17
HETATM   17  C   UNL     1      27.318  41.047  50.412  1.00  0.00     0.068 A 
HETATM   18  C   UNL     1      27.076  41.900  49.317  1.00  0.00     0.084 A 
HETATM   19  C   UNL     1      26.782  41.341  48.065  1.00  0.00     0.039 A 
HETATM   20  C   UNL     1      26.687  39.956  47.905  1.00  0.00     0.022 A 
HETATM   21  C   UNL     1      26.892  39.119  48.997  1.00  0.00     0.012 A 
HETATM   22  C   UNL     1      27.206  39.655  50.242  1.00  0.00     0.039 A 
HETATM   23 BR   UNL     1      26.765  37.246  48.780  1.00  0.00    -0.051 Br
BRANCH  18  24
HETATM   24  O   UNL     1      27.174  43.256  49.510  1.00  0.00    -0.350 OA
BRANCH  24  25
HETATM   25  C   UNL     1      25.957  43.996  49.343  1.00  0.00     0.171 C 
HETATM   26  C   UNL     1      26.239  45.449  49.678  1.00  0.00     0.034 C 
ENDBRANCH  24  25
ENDBRANCH  18  24
ENDBRANCH   1  17
TORSDOF 5
ENDMDL
MODEL 5
REMARK VINA RESULT:      -8.3      4.646      7.981
REMARK  5 active torsions:
REMARK  status: ('A' for Active; 'I' for Inactive)
REMARK    1  A    between atoms: C_2  and  O_3 
REMARK    2  A    between atoms: O_3  and  C_4 
REMARK    3  A    between atoms: C_5  and  C_6 
REMARK       I    between atoms: C_6  and  N_7 
REMARK    4  A    between atoms: N_7  and  N_8 
REMARK    5  A    between atoms: C_9  and  C_10 
ROOT
HETATM    1  C   UNL     1      25.572  43.683  51.635  1.00  0.00     0.274 C 
HETATM    2  N   UNL     1      26.882  44.082  51.838  1.00  0.00    -0.243 N 
HETATM    3  O   UNL     1      24.632  43.971  52.374  1.00  0.00    -0.266 OA
HETATM    4  H   UNL     1      27.600  43.816  51.169  1.00  0.00     0.192 HD
ENDROOT
BRANCH   2   5
HETATM    5  N   UNL     1      27.216  44.719  52.997  1.00  0.00    -0.183 NA
HETATM    6  C   UNL     1      28.356  44.401  53.519  1.00  0.00     0.152 C 
BRANCH   6   7
HETATM    7  C   UNL     1      28.739  44.997  54.783  1.00  0.00     0.011 A 
HETATM    8  C   UNL     1      29.761  44.565  55.688  1.00  0.00     0.004 A 
HETATM    9  C   UNL     1      29.738  45.428  56.787  1.00  0.00     0.043 A 
HETATM   10  C   UNL     1      30.701  43.512  55.687  1.00  0.00     0.014 A 
HETATM   11  C   UNL     1      30.601  45.291  57.880  1.00  0.00     0.030 A 
HETATM   12  N   UNL     1      28.750  46.356  56.555  1.00  0.00    -0.364 N 
HETATM   13  C   UNL     1      31.521  44.239  57.853  1.00  0.00     0.002 A 
HETATM   14  C   UNL     1      31.574  43.362  56.773  1.00  0.00     0.001 A 
HETATM   15  H   UNL     1      28.504  47.106  57.185  1.00  0.00     0.165 HD
HETATM   16  C   UNL     1      28.145  46.107  55.356  1.00  0.00     0.102 A 
ENDBRANCH   6   7
ENDBRANCH   2   5
BRANCH   1  17
HETATM   17  C   UNL     1      25.320  42.788  50.463  1.00  0.00     0.068 A 
HETATM   18  C   UNL     1      25.798  41.469  50.349  1.00  0.00     0.084 A 
HETATM   19  C   UNL     1      25.440  40.703  49.229  1.00  0.00     0.039 A 
HETATM   20  C   UNL     1      24.652  41.250  48.213  1.00  0.00     0.022 A 
HETATM   21  C   UNL     1      24.212  42.565  48.313  1.00  0.00     0.012 A 
HETATM   22  C   UNL     1      24.539  43.332  49.426  1.00  0.00     0.039 A 
HETATM   23 BR   UNL     1      23.145  43.304  46.939  1.00  0.00    -0.051 Br
BRANCH  18  24
HETATM   24  O   UNL     1      26.573  40.963  51.364  1.00  0.00    -0.350 OA
BRANCH  24  25
HETATM   25  C   UNL     1      27.961  40.782  51.054  1.00  0.00     0.171 C 
HETATM   26  C   UNL     1      28.752  40.892  52.345  1.00  0.00     0.034 C 
ENDBRANCH  24  25
ENDBRANCH  18  24
ENDBRANCH   1  17
TORSDOF 5
ENDMDL
MODEL 6
REMARK VINA RESULT:      -8.3      4.283      8.913
REMARK  5 active torsions:
REMARK  status: ('A' for Active; 'I' for Inactive)
REMARK    1  A    between atoms: C_2  and  O_3 
REMARK    2  A    between atoms: O_3  and  C_4 
REMARK    3  A    between atoms: C_5  and  C_6 
REMARK       I    between atoms: C_6  and  N_7 
REMARK    4  A    between atoms: N_7  and  N_8 
REMARK    5  A    between atoms: C_9  and  C_10 
ROOT
HETATM    1  C   UNL     1      23.490  46.907  49.397  1.00  0.00     0.274 C 
HETATM    2  N   UNL     1      24.318  46.763  50.497  1.00  0.00    -0.243 N 
HETATM    3  O   UNL     1      23.090  45.977  48.699  1.00  0.00    -0.266 OA
HETATM    4  H   UNL     1      24.591  47.582  51.034  1.00  0.00     0.192 HD
ENDROOT
BRANCH   2   5
HETATM    5  N   UNL     1      24.859  45.542  50.774  1.00  0.00    -0.183 NA
HETATM    6  C   UNL     1      25.640  45.479  51.803  1.00  0.00     0.152 C 
BRANCH   6   7
HETATM    7  C   UNL     1      26.295  44.224  52.111  1.00  0.00     0.011 A 
HETATM    8  C   UNL     1      27.372  43.992  53.027  1.00  0.00     0.004 A 
HETATM    9  C   UNL     1      27.690  42.634  52.960  1.00  0.00     0.043 A 
HETATM   10  C   UNL     1      28.117  44.810  53.903  1.00  0.00     0.014 A 
HETATM   11  C   UNL     1      28.715  42.055  53.719  1.00  0.00     0.030 A 
HETATM   12  N   UNL     1      26.836  42.058  52.050  1.00  0.00    -0.364 N 
HETATM   13  C   UNL     1      29.438  42.889  54.576  1.00  0.00     0.002 A 
HETATM   14  C   UNL     1      29.144  44.246  54.670  1.00  0.00     0.001 A 
HETATM   15  H   UNL     1      26.838  41.081  51.794  1.00  0.00     0.165 HD
HETATM   16  C   UNL     1      25.994  43.003  51.534  1.00  0.00     0.102 A 
ENDBRANCH   6   7
ENDBRANCH   2   5
BRANCH   1  17
HETATM   17  C   UNL     1      23.124  48.306  49.015  1.00  0.00     0.068 A 
HETATM   18  C   UNL     1      24.032  49.382  48.959  1.00  0.00     0.084 A 
HETATM   19  C   UNL     1      23.582  50.637  48.521  1.00  0.00     0.039 A 
HETATM   20  C   UNL     1      22.241  50.837  48.183  1.00  0.00     0.022 A 
HETATM   21  C   UNL     1      21.341  49.781  48.274  1.00  0.00     0.012 A 
HETATM   22  C   UNL     1      21.773  48.524  48.685  1.00  0.00     0.039 A 
HETATM   23 BR   UNL     1      19.528  50.051  47.815  1.00  0.00    -0.051 Br
BRANCH  18  24
HETATM   24  O   UNL     1      25.342  49.151  49.302  1.00  0.00    -0.350 OA
BRANCH  24  25
HETATM   25  C   UNL     1      26.322  49.740  48.438  1.00  0.00     0.171 C 
HETATM   26  C   UNL     1      27.696  49.436  49.007  1.00  0.00     0.034 C 
ENDBRANCH  24  25
ENDBRANCH  18  24
ENDBRANCH   1  17
TORSDOF 5
ENDMDL
MODEL 7
REMARK VINA RESULT:      -8.2      3.774      8.557
REMARK  5 active torsions:
REMARK  status: ('A' for Active; 'I' for Inactive)
REMARK    1  A    between atoms: C_2  and  O_3 
REMARK    2  A    between atoms: O_3  and  C_4 
REMARK    3  A    between atoms: C_5  and  C_6 
REMARK       I    between atoms: C_6  and  N_7 
REMARK    4  A    between atoms: N_7  and  N_8 
REMARK    5  A    between atoms: C_9  and  C_10 
ROOT
HETATM    1  C   UNL     1      25.274  45.654  50.013  1.00  0.00     0.274 C 
HETATM    2  N   UNL     1      25.576  45.811  51.356  1.00  0.00    -0.243 N 
HETATM    3  O   UNL     1      25.863  44.892  49.250  1.00  0.00    -0.266 OA
HETATM    4  H   UNL     1      25.029  46.451  51.925  1.00  0.00     0.192 HD
ENDROOT
BRANCH   2   5
HETATM    5  N   UNL     1      26.683  45.201  51.869  1.00  0.00    -0.183 NA
HETATM    6  C   UNL     1      26.472  44.221  52.687  1.00  0.00     0.152 C 
BRANCH   6   7
HETATM    7  C   UNL     1      27.606  43.574  53.314  1.00  0.00     0.011 A 
HETATM    8  C   UNL     1      28.519  44.127  54.270  1.00  0.00     0.004 A 
HETATM    9  C   UNL     1      29.467  43.142  54.558  1.00  0.00     0.043 A 
HETATM   10  C   UNL     1      28.640  45.378  54.912  1.00  0.00     0.014 A 
HETATM   11  C   UNL     1      30.527  43.344  55.450  1.00  0.00     0.030 A 
HETATM   12  N   UNL     1      29.139  42.031  53.819  1.00  0.00    -0.364 N 
HETATM   13  C   UNL     1      30.623  44.593  56.071  1.00  0.00     0.002 A 
HETATM   14  C   UNL     1      29.693  45.596  55.809  1.00  0.00     0.001 A 
HETATM   15  H   UNL     1      29.653  41.161  53.824  1.00  0.00     0.165 HD
HETATM   16  C   UNL     1      28.023  42.279  53.069  1.00  0.00     0.102 A 
ENDBRANCH   6   7
ENDBRANCH   2   5
BRANCH   1  17
HETATM   17  C   UNL     1      24.194  46.532  49.465  1.00  0.00     0.068 A 
HETATM   18  C   UNL     1      24.266  47.936  49.393  1.00  0.00     0.084 A 
HETATM   19  C   UNL     1      23.215  48.648  48.796  1.00  0.00     0.039 A 
HETATM   20  C   UNL     1      22.085  47.982  48.313  1.00  0.00     0.022 A 
HETATM   21  C   UNL     1      22.002  46.598  48.419  1.00  0.00     0.012 A 
HETATM   22  C   UNL     1      23.045  45.874  48.988  1.00  0.00     0.039 A 
HETATM   23 BR   UNL     1      20.475  45.697  47.765  1.00  0.00    -0.051 Br
BRANCH  18  24
HETATM   24  O   UNL     1      25.389  48.560  49.880  1.00  0.00    -0.350 OA
BRANCH  24  25
HETATM   25  C   UNL     1      26.234  49.173  48.898  1.00  0.00     0.171 C 
HETATM   26  C   UNL     1      27.644  48.645  49.091  1.00  0.00     0.034 C 
ENDBRANCH  24  25
ENDBRANCH  18  24
ENDBRANCH   1  17
TORSDOF 5
ENDMDL
MODEL 8
REMARK VINA RESULT:      -7.9      2.733      4.234
REMARK  5 active torsions:
REMARK  status: ('A' for Active; 'I' for Inactive)
REMARK    1  A    between atoms: C_2  and  O_3 
REMARK    2  A    between atoms: O_3  and  C_4 
REMARK    3  A    between atoms: C_5  and  C_6 
REMARK       I    between atoms: C_6  and  N_7 
REMARK    4  A    between atoms: N_7  and  N_8 
REMARK    5  A    between atoms: C_9  and  C_10 
ROOT
HETATM    1  C   UNL     1      25.498  45.270  52.364  1.00  0.00     0.274 C 
HETATM    2  N   UNL     1      25.442  46.409  51.579  1.00  0.00    -0.243 N 
HETATM    3  O   UNL     1      24.630  44.400  52.393  1.00  0.00    -0.266 OA
HETATM    4  H   UNL     1      26.211  47.073  51.598  1.00  0.00     0.192 HD
ENDROOT
BRANCH   2   5
HETATM    5  N   UNL     1      24.302  46.688  50.884  1.00  0.00    -0.183 NA
HETATM    6  C   UNL     1      24.457  47.098  49.667  1.00  0.00     0.152 C 
BRANCH   6   7
HETATM    7  C   UNL     1      23.287  47.471  48.899  1.00  0.00     0.011 A 
HETATM    8  C   UNL     1      22.702  48.772  48.759  1.00  0.00     0.004 A 
HETATM    9  C   UNL     1      21.569  48.634  47.952  1.00  0.00     0.043 A 
HETATM   10  C   UNL     1      23.018  50.056  49.251  1.00  0.00     0.014 A 
HETATM   11  C   UNL     1      20.740  49.710  47.616  1.00  0.00     0.030 A 
HETATM   12  N   UNL     1      21.475  47.307  47.604  1.00  0.00    -0.364 N 
HETATM   13  C   UNL     1      21.076  50.970  48.118  1.00  0.00     0.002 A 
HETATM   14  C   UNL     1      22.200  51.144  48.922  1.00  0.00     0.001 A 
HETATM   15  H   UNL     1      20.748  46.913  47.024  1.00  0.00     0.165 HD
HETATM   16  C   UNL     1      22.501  46.601  48.166  1.00  0.00     0.102 A 
ENDBRANCH   6   7
ENDBRANCH   2   5
BRANCH   1  17
HETATM   17  C   UNL     1      26.676  45.145  53.277  1.00  0.00     0.068 A 
HETATM   18  C   UNL     1      26.836  45.865  54.477  1.00  0.00     0.084 A 
HETATM   19  C   UNL     1      27.955  45.614  55.285  1.00  0.00     0.039 A 
HETATM   20  C   UNL     1      28.927  44.691  54.891  1.00  0.00     0.022 A 
HETATM   21  C   UNL     1      28.784  44.008  53.688  1.00  0.00     0.012 A 
HETATM   22  C   UNL     1      27.670  44.229  52.885  1.00  0.00     0.039 A 
HETATM   23 BR   UNL     1      30.098  42.759  53.155  1.00  0.00    -0.051 Br
BRANCH  18  24
HETATM   24  O   UNL     1      25.863  46.768  54.833  1.00  0.00    -0.350 OA
BRANCH  24  25
HETATM   25  C   UNL     1      26.231  48.149  54.729  1.00  0.00     0.171 C 
HETATM   26  C   UNL     1      26.241  48.741  56.126  1.00  0.00     0.034 C 
ENDBRANCH  24  25
ENDBRANCH  18  24
ENDBRANCH   1  17
TORSDOF 5
ENDMDL
MODEL 9
REMARK VINA RESULT:      -7.9      1.924      2.818
REMARK  5 active torsions:
REMARK  status: ('A' for Active; 'I' for Inactive)
REMARK    1  A    between atoms: C_2  and  O_3 
REMARK    2  A    between atoms: O_3  and  C_4 
REMARK    3  A    between atoms: C_5  and  C_6 
REMARK       I    between atoms: C_6  and  N_7 
REMARK    4  A    between atoms: N_7  and  N_8 
REMARK    5  A    between atoms: C_9  and  C_10 
ROOT
HETATM    1  C   UNL     1      26.426  45.801  52.770  1.00  0.00     0.274 C 
HETATM    2  N   UNL     1      26.488  45.852  51.388  1.00  0.00    -0.243 N 
HETATM    3  O   UNL     1      25.698  46.510  53.462  1.00  0.00    -0.266 OA
HETATM    4  H   UNL     1      27.105  45.218  50.887  1.00  0.00     0.192 HD
ENDROOT
BRANCH   2   5
HETATM    5  N   UNL     1      25.817  46.835  50.722  1.00  0.00    -0.183 NA
HETATM    6  C   UNL     1      26.479  47.466  49.809  1.00  0.00     0.152 C 
BRANCH   6   7
HETATM    7  C   UNL     1      25.840  48.563  49.111  1.00  0.00     0.011 A 
HETATM    8  C   UNL     1      24.438  48.797  48.932  1.00  0.00     0.004 A 
HETATM    9  C   UNL     1      24.303  49.957  48.164  1.00  0.00     0.043 A 
HETATM   10  C   UNL     1      23.264  48.128  49.340  1.00  0.00     0.014 A 
HETATM   11  C   UNL     1      23.061  50.477  47.782  1.00  0.00     0.030 A 
HETATM   12  N   UNL     1      25.571  50.418  47.896  1.00  0.00    -0.364 N 
HETATM   13  C   UNL     1      21.916  49.792  48.199  1.00  0.00     0.002 A 
HETATM   14  C   UNL     1      22.013  48.636  48.968  1.00  0.00     0.001 A 
HETATM   15  H   UNL     1      25.782  51.243  47.354  1.00  0.00     0.165 HD
HETATM   16  C   UNL     1      26.500  49.590  48.460  1.00  0.00     0.102 A 
ENDBRANCH   6   7
ENDBRANCH   2   5
BRANCH   1  17
HETATM   17  C   UNL     1      27.366  44.854  53.447  1.00  0.00     0.068 A 
HETATM   18  C   UNL     1      27.472  43.483  53.144  1.00  0.00     0.084 A 
HETATM   19  C   UNL     1      28.439  42.708  53.802  1.00  0.00     0.039 A 
HETATM   20  C   UNL     1      29.264  43.273  54.778  1.00  0.00     0.022 A 
HETATM   21  C   UNL     1      29.131  44.620  55.099  1.00  0.00     0.012 A 
HETATM   22  C   UNL     1      28.193  45.408  54.441  1.00  0.00     0.039 A 
HETATM   23 BR   UNL     1      30.248  45.384  56.418  1.00  0.00    -0.051 Br
BRANCH  18  24
HETATM   24  O   UNL     1      26.643  42.958  52.183  1.00  0.00    -0.350 OA
BRANCH  24  25
HETATM   25  C   UNL     1      27.267  42.081  51.237  1.00  0.00     0.171 C 
HETATM   26  C   UNL     1      26.210  41.129  50.707  1.00  0.00     0.034 C 
ENDBRANCH  24  25
ENDBRANCH  18  24
ENDBRANCH   1  17
TORSDOF 5
ENDMDL
MODEL 10
REMARK VINA RESULT:      -7.8      3.802      8.122
REMARK  5 active torsions:
REMARK  status: ('A' for Active; 'I' for Inactive)
REMARK    1  A    between atoms: C_2  and  O_3 
REMARK    2  A    between atoms: O_3  and  C_4 
REMARK    3  A    between atoms: C_5  and  C_6 
REMARK       I    between atoms: C_6  and  N_7 
REMARK    4  A    between atoms: N_7  and  N_8 
REMARK    5  A    between atoms: C_9  and  C_10 
ROOT
HETATM    1  C   UNL     1      25.598  46.505  50.285  1.00  0.00     0.274 C 
HETATM    2  N   UNL     1      26.268  45.445  49.699  1.00  0.00    -0.243 N 
HETATM    3  O   UNL     1      25.927  47.040  51.342  1.00  0.00    -0.266 OA
HETATM    4  H   UNL     1      25.941  45.070  48.813  1.00  0.00     0.192 HD
ENDROOT
BRANCH   2   5
HETATM    5  N   UNL     1      27.283  44.836  50.377  1.00  0.00    -0.183 NA
HETATM    6  C   UNL     1      26.938  43.949  51.253  1.00  0.00     0.152 C 
BRANCH   6   7
HETATM    7  C   UNL     1      27.967  43.314  52.050  1.00  0.00     0.011 A 
HETATM    8  C   UNL     1      28.561  43.788  53.264  1.00  0.00     0.004 A 
HETATM    9  C   UNL     1      29.529  42.856  53.646  1.00  0.00     0.043 A 
HETATM   10  C   UNL     1      28.377  44.929  54.074  1.00  0.00     0.014 A 
HETATM   11  C   UNL     1      30.322  43.008  54.790  1.00  0.00     0.030 A 
HETATM   12  N   UNL     1      29.519  41.849  52.710  1.00  0.00    -0.364 N 
HETATM   13  C   UNL     1      30.119  44.148  55.572  1.00  0.00     0.002 A 
HETATM   14  C   UNL     1      29.160  45.095  55.223  1.00  0.00     0.001 A 
HETATM   15  H   UNL     1      30.120  41.038  52.728  1.00  0.00     0.165 HD
HETATM   16  C   UNL     1      28.585  42.113  51.748  1.00  0.00     0.102 A 
ENDBRANCH   6   7
ENDBRANCH   2   5
BRANCH   1  17
HETATM   17  C   UNL     1      24.353  46.971  49.598  1.00  0.00     0.068 A 
HETATM   18  C   UNL     1      23.400  46.118  49.008  1.00  0.00     0.084 A 
HETATM   19  C   UNL     1      22.238  46.670  48.450  1.00  0.00     0.039 A 
HETATM   20  C   UNL     1      22.038  48.053  48.438  1.00  0.00     0.022 A 
HETATM   21  C   UNL     1      22.999  48.894  48.990  1.00  0.00     0.012 A 
HETATM   22  C   UNL     1      24.147  48.363  49.567  1.00  0.00     0.039 A 
HETATM   23 BR   UNL     1      22.729  50.764  48.975  1.00  0.00    -0.051 Br
BRANCH  18  24
HETATM   24  O   UNL     1      23.629  44.764  49.034  1.00  0.00    -0.350 OA
BRANCH  24  25
HETATM   25  C   UNL     1      22.791  44.010  49.919  1.00  0.00     0.171 C 
HETATM   26  C   UNL     1      23.535  42.746  50.310  1.00  0.00     0.034 C 
ENDBRANCH  24  25
ENDBRANCH  18  24
ENDBRANCH   1  17
TORSDOF 5
ENDMDL
