MODEL 1
REMARK VINA RESULT:      -9.3      0.000      0.000
REMARK  4 active torsions:
REMARK  status: ('A' for Active; 'I' for Inactive)
REMARK    1  A    between atoms: C_7  and  C_8 
REMARK    2  A    between atoms: C_8  and  N_9 
REMARK    3  A    between atoms: N_15  and  C_17 
REMARK    4  A    between atoms: C_21  and  C_22 
ROOT
HETATM    1  N   UNL     1      24.829  45.644  49.754  1.00  0.00    -0.067 N 
HETATM    2  H   UNL     1      24.246  45.509  48.914  1.00  0.00     0.280 HD
HETATM    3  C   UNL     1      26.177  45.084  49.403  1.00  0.00     0.236 C 
HETATM    4  C   UNL     1      27.083  45.015  50.635  1.00  0.00     0.039 C 
HETATM    5  C   UNL     1      26.464  44.251  51.840  1.00  0.00    -0.013 C 
HETATM    6  C   UNL     1      26.389  42.718  51.596  1.00  0.00     0.245 C 
HETATM    7  N   UNL     1      27.762  42.091  51.556  1.00  0.00    -0.065 N 
HETATM    8  H   UNL     1      28.336  42.509  50.811  1.00  0.00     0.280 HD
HETATM    9  C   UNL     1      28.528  42.294  52.857  1.00  0.00     0.244 C 
HETATM   10  C   UNL     1      28.673  43.797  53.129  1.00  0.00     0.045 C 
HETATM   11  C   UNL     1      27.302  44.498  53.129  1.00  0.00     0.022 C 
HETATM   12  C   UNL     1      25.038  44.827  52.094  1.00  0.00     0.039 C 
HETATM   13  C   UNL     1      24.145  44.897  50.858  1.00  0.00     0.236 C 
ENDROOT
BRANCH   7  14
HETATM   14  C   UNL     1      27.682  40.624  51.236  1.00  0.00     0.188 A 
HETATM   15  C   UNL     1      28.269  40.185  49.924  1.00  0.00     0.035 A 
HETATM   16  C   UNL     1      28.977  39.864  51.210  1.00  0.00     0.035 A 
ENDBRANCH   7  14
BRANCH  10  17
HETATM   17  C   UNL     1      29.428  44.039  54.421  1.00  0.00    -0.052 A 
HETATM   18  C   UNL     1      29.167  45.197  55.172  1.00  0.00     0.007 A 
HETATM   19  C   UNL     1      29.863  45.449  56.355  1.00  0.00     0.001 A 
HETATM   20  C   UNL     1      30.826  44.551  56.806  1.00  0.00     0.000 A 
HETATM   21  C   UNL     1      31.095  43.398  56.075  1.00  0.00     0.001 A 
HETATM   22  C   UNL     1      30.401  43.140  54.891  1.00  0.00     0.007 A 
ENDBRANCH  10  17
BRANCH   1  23
HETATM   23  C   UNL     1      24.787  47.164  49.919  1.00  0.00     0.277 C 
BRANCH  23  24
HETATM   24  C   UNL     1      23.622  47.751  49.216  1.00  0.00     0.011 A 
HETATM   25  C   UNL     1      23.456  49.033  48.706  1.00  0.00     0.035 A 
HETATM   26  C   UNL     1      24.382  50.194  48.624  1.00  0.00     0.070 C 
HETATM   27  N   UNL     1      22.174  49.070  48.200  1.00  0.00    -0.278 N 
HETATM   28  C   UNL     1      21.489  50.163  47.543  1.00  0.00     0.179 C 
HETATM   29  N   UNL     1      21.516  47.913  48.372  1.00  0.00    -0.185 NA
HETATM   30  C   UNL     1      22.404  47.098  48.927  1.00  0.00     0.149 A 
ENDBRANCH  23  24
ENDBRANCH   1  23
TORSDOF 4
ENDMDL
MODEL 2
REMARK VINA RESULT:      -8.6      2.059      8.696
REMARK  4 active torsions:
REMARK  status: ('A' for Active; 'I' for Inactive)
REMARK    1  A    between atoms: C_7  and  C_8 
REMARK    2  A    between atoms: C_8  and  N_9 
REMARK    3  A    between atoms: N_15  and  C_17 
REMARK    4  A    between atoms: C_21  and  C_22 
ROOT
HETATM    1  N   UNL     1      26.606  44.049  52.077  1.00  0.00    -0.067 N 
HETATM    2  H   UNL     1      27.007  43.122  52.284  1.00  0.00     0.280 HD
HETATM    3  C   UNL     1      25.134  43.818  51.888  1.00  0.00     0.236 C 
HETATM    4  C   UNL     1      24.443  45.075  51.354  1.00  0.00     0.039 C 
HETATM    5  C   UNL     1      25.082  45.653  50.059  1.00  0.00    -0.013 C 
HETATM    6  C   UNL     1      24.809  44.764  48.814  1.00  0.00     0.245 C 
HETATM    7  N   UNL     1      23.350  44.781  48.425  1.00  0.00    -0.065 N 
HETATM    8  H   UNL     1      22.759  44.446  49.198  1.00  0.00     0.280 HD
HETATM    9  C   UNL     1      22.859  46.183  48.084  1.00  0.00     0.244 C 
HETATM   10  C   UNL     1      23.064  47.099  49.298  1.00  0.00     0.045 C 
HETATM   11  C   UNL     1      24.529  47.079  49.770  1.00  0.00     0.022 C 
HETATM   12  C   UNL     1      26.616  45.788  50.299  1.00  0.00     0.039 C 
HETATM   13  C   UNL     1      27.295  44.531  50.837  1.00  0.00     0.236 C 
ENDROOT
BRANCH   7  14
HETATM   14  C   UNL     1      23.082  43.854  47.272  1.00  0.00     0.188 A 
HETATM   15  C   UNL     1      22.453  42.530  47.602  1.00  0.00     0.035 A 
HETATM   16  C   UNL     1      21.643  43.600  46.926  1.00  0.00     0.035 A 
ENDBRANCH   7  14
BRANCH  10  17
HETATM   17  C   UNL     1      22.590  48.507  48.994  1.00  0.00    -0.052 A 
HETATM   18  C   UNL     1      23.531  49.535  48.821  1.00  0.00     0.007 A 
HETATM   19  C   UNL     1      23.117  50.842  48.559  1.00  0.00     0.001 A 
HETATM   20  C   UNL     1      21.761  51.141  48.465  1.00  0.00     0.000 A 
HETATM   21  C   UNL     1      20.816  50.133  48.630  1.00  0.00     0.001 A 
HETATM   22  C   UNL     1      21.225  48.824  48.892  1.00  0.00     0.007 A 
ENDBRANCH  10  17
BRANCH   1  23
HETATM   23  C   UNL     1      26.977  44.835  53.335  1.00  0.00     0.277 C 
BRANCH  23  24
HETATM   24  C   UNL     1      28.133  44.224  54.032  1.00  0.00     0.011 A 
HETATM   25  C   UNL     1      29.028  44.801  54.925  1.00  0.00     0.035 A 
HETATM   26  C   UNL     1      29.089  46.160  55.527  1.00  0.00     0.070 C 
HETATM   27  N   UNL     1      29.936  43.812  55.235  1.00  0.00    -0.278 N 
HETATM   28  C   UNL     1      31.073  43.871  56.129  1.00  0.00     0.179 C 
HETATM   29  N   UNL     1      29.691  42.662  54.587  1.00  0.00    -0.185 NA
HETATM   30  C   UNL     1      28.571  42.888  53.911  1.00  0.00     0.149 A 
ENDBRANCH  23  24
ENDBRANCH   1  23
TORSDOF 4
ENDMDL
MODEL 3
REMARK VINA RESULT:      -8.3      1.321      1.815
REMARK  4 active torsions:
REMARK  status: ('A' for Active; 'I' for Inactive)
REMARK    1  A    between atoms: C_7  and  C_8 
REMARK    2  A    between atoms: C_8  and  N_9 
REMARK    3  A    between atoms: N_15  and  C_17 
REMARK    4  A    between atoms: C_21  and  C_22 
ROOT
HETATM    1  N   UNL     1      23.678  44.791  49.069  1.00  0.00    -0.067 N 
HETATM    2  H   UNL     1      23.047  44.591  48.278  1.00  0.00     0.280 HD
HETATM    3  C   UNL     1      25.044  44.368  48.610  1.00  0.00     0.236 C 
HETATM    4  C   UNL     1      26.048  44.401  49.766  1.00  0.00     0.039 C 
HETATM    5  C   UNL     1      25.608  43.586  51.015  1.00  0.00    -0.013 C 
HETATM    6  C   UNL     1      25.670  42.052  50.777  1.00  0.00     0.245 C 
HETATM    7  N   UNL     1      27.092  41.568  50.626  1.00  0.00    -0.065 N 
HETATM    8  H   UNL     1      27.559  42.037  49.838  1.00  0.00     0.280 HD
HETATM    9  C   UNL     1      27.935  41.857  51.863  1.00  0.00     0.244 C 
HETATM   10  C   UNL     1      27.947  43.369  52.123  1.00  0.00     0.045 C 
HETATM   11  C   UNL     1      26.516  43.927  52.233  1.00  0.00     0.022 C 
HETATM   12  C   UNL     1      24.156  44.017  51.384  1.00  0.00     0.039 C 
HETATM   13  C   UNL     1      23.164  43.986  50.223  1.00  0.00     0.236 C 
ENDROOT
BRANCH   7  14
HETATM   14  C   UNL     1      27.137  40.098  50.313  1.00  0.00     0.188 A 
HETATM   15  C   UNL     1      27.596  39.714  48.934  1.00  0.00     0.035 A 
HETATM   16  C   UNL     1      28.495  39.487  50.116  1.00  0.00     0.035 A 
ENDBRANCH   7  14
BRANCH  10  17
HETATM   17  C   UNL     1      28.774  43.696  53.351  1.00  0.00    -0.052 A 
HETATM   18  C   UNL     1      29.913  42.929  53.646  1.00  0.00     0.007 A 
HETATM   19  C   UNL     1      30.679  43.201  54.781  1.00  0.00     0.001 A 
HETATM   20  C   UNL     1      30.320  44.241  55.635  1.00  0.00     0.000 A 
HETATM   21  C   UNL     1      29.196  45.012  55.355  1.00  0.00     0.001 A 
HETATM   22  C   UNL     1      28.427  44.744  54.220  1.00  0.00     0.007 A 
ENDBRANCH  10  17
BRANCH   1  23
HETATM   23  C   UNL     1      23.495  46.300  49.237  1.00  0.00     0.277 C 
BRANCH  23  24
HETATM   24  C   UNL     1      22.382  46.805  48.400  1.00  0.00     0.011 A 
HETATM   25  C   UNL     1      21.751  48.044  48.428  1.00  0.00     0.035 A 
HETATM   26  C   UNL     1      22.015  49.272  49.226  1.00  0.00     0.070 C 
HETATM   27  N   UNL     1      20.753  47.976  47.480  1.00  0.00    -0.278 N 
HETATM   28  C   UNL     1      19.802  48.994  47.089  1.00  0.00     0.179 C 
HETATM   29  N   UNL     1      20.696  46.780  46.873  1.00  0.00    -0.185 NA
HETATM   30  C   UNL     1      21.713  46.095  47.380  1.00  0.00     0.149 A 
ENDBRANCH  23  24
ENDBRANCH   1  23
TORSDOF 4
ENDMDL
MODEL 4
REMARK VINA RESULT:      -8.1      3.099      7.970
REMARK  4 active torsions:
REMARK  status: ('A' for Active; 'I' for Inactive)
REMARK    1  A    between atoms: C_7  and  C_8 
REMARK    2  A    between atoms: C_8  and  N_9 
REMARK    3  A    between atoms: N_15  and  C_17 
REMARK    4  A    between atoms: C_21  and  C_22 
ROOT
HETATM    1  N   UNL     1      25.260  41.493  50.378  1.00  0.00    -0.067 N 
HETATM    2  H   UNL     1      25.242  40.599  50.890  1.00  0.00     0.280 HD
HETATM    3  C   UNL     1      26.454  42.236  50.907  1.00  0.00     0.236 C 
HETATM    4  C   UNL     1      26.477  43.678  50.395  1.00  0.00     0.039 C 
HETATM    5  C   UNL     1      25.168  44.472  50.666  1.00  0.00    -0.013 C 
HETATM    6  C   UNL     1      24.989  44.826  52.169  1.00  0.00     0.245 C 
HETATM    7  N   UNL     1      26.015  45.832  52.632  1.00  0.00    -0.065 N 
HETATM    8  H   UNL     1      26.970  45.473  52.496  1.00  0.00     0.280 HD
HETATM    9  C   UNL     1      25.932  47.141  51.856  1.00  0.00     0.244 C 
HETATM   10  C   UNL     1      26.147  46.859  50.364  1.00  0.00     0.045 C 
HETATM   11  C   UNL     1      25.157  45.798  49.849  1.00  0.00     0.022 C 
HETATM   12  C   UNL     1      23.970  43.609  50.169  1.00  0.00     0.039 C 
HETATM   13  C   UNL     1      23.959  42.171  50.680  1.00  0.00     0.236 C 
ENDROOT
BRANCH   7  14
HETATM   14  C   UNL     1      25.886  46.104  54.105  1.00  0.00     0.188 A 
HETATM   15  C   UNL     1      27.163  46.171  54.895  1.00  0.00     0.035 A 
HETATM   16  C   UNL     1      26.395  47.428  54.597  1.00  0.00     0.035 A 
ENDBRANCH   7  14
BRANCH  10  17
HETATM   17  C   UNL     1      26.067  48.141  49.558  1.00  0.00    -0.052 A 
HETATM   18  C   UNL     1      24.817  48.611  49.124  1.00  0.00     0.007 A 
HETATM   19  C   UNL     1      24.722  49.779  48.364  1.00  0.00     0.001 A 
HETATM   20  C   UNL     1      25.869  50.492  48.030  1.00  0.00     0.000 A 
HETATM   21  C   UNL     1      27.115  50.041  48.456  1.00  0.00     0.001 A 
HETATM   22  C   UNL     1      27.216  48.874  49.215  1.00  0.00     0.007 A 
ENDBRANCH  10  17
BRANCH   1  23
HETATM   23  C   UNL     1      25.388  41.019  48.930  1.00  0.00     0.277 C 
BRANCH  23  24
HETATM   24  C   UNL     1      26.721  40.425  48.672  1.00  0.00     0.011 A 
HETATM   25  C   UNL     1      27.209  39.172  49.023  1.00  0.00     0.035 A 
HETATM   26  C   UNL     1      26.563  38.007  49.686  1.00  0.00     0.070 C 
HETATM   27  N   UNL     1      28.517  39.146  48.589  1.00  0.00    -0.278 N 
HETATM   28  C   UNL     1      29.485  38.075  48.689  1.00  0.00     0.179 C 
HETATM   29  N   UNL     1      28.894  40.298  48.011  1.00  0.00    -0.185 NA
HETATM   30  C   UNL     1      27.798  41.046  48.004  1.00  0.00     0.149 A 
ENDBRANCH  23  24
ENDBRANCH   1  23
TORSDOF 4
ENDMDL
MODEL 5
REMARK VINA RESULT:      -8.1      3.229      8.585
REMARK  4 active torsions:
REMARK  status: ('A' for Active; 'I' for Inactive)
REMARK    1  A    between atoms: C_7  and  C_8 
REMARK    2  A    between atoms: C_8  and  N_9 
REMARK    3  A    between atoms: N_15  and  C_17 
REMARK    4  A    between atoms: C_21  and  C_22 
ROOT
HETATM    1  N   UNL     1      28.754  43.497  54.006  1.00  0.00    -0.067 N 
HETATM    2  H   UNL     1      28.533  44.241  54.686  1.00  0.00     0.280 HD
HETATM    3  C   UNL     1      28.589  44.126  52.653  1.00  0.00     0.236 C 
HETATM    4  C   UNL     1      28.668  43.076  51.543  1.00  0.00     0.039 C 
HETATM    5  C   UNL     1      27.686  41.884  51.721  1.00  0.00    -0.013 C 
HETATM    6  C   UNL     1      26.208  42.289  51.469  1.00  0.00     0.245 C 
HETATM    7  N   UNL     1      25.962  42.626  50.017  1.00  0.00    -0.065 N 
HETATM    8  H   UNL     1      26.567  43.400  49.711  1.00  0.00     0.280 HD
HETATM    9  C   UNL     1      26.263  41.452  49.093  1.00  0.00     0.244 C 
HETATM   10  C   UNL     1      27.728  41.035  49.267  1.00  0.00     0.045 C 
HETATM   11  C   UNL     1      28.049  40.729  50.742  1.00  0.00     0.022 C 
HETATM   12  C   UNL     1      27.854  41.334  53.170  1.00  0.00     0.039 C 
HETATM   13  C   UNL     1      27.779  42.391  54.270  1.00  0.00     0.236 C 
ENDROOT
BRANCH   7  14
HETATM   14  C   UNL     1      24.550  43.097  49.798  1.00  0.00     0.188 A 
HETATM   15  C   UNL     1      24.379  44.481  49.238  1.00  0.00     0.035 A 
HETATM   16  C   UNL     1      24.110  43.281  48.374  1.00  0.00     0.035 A 
ENDBRANCH   7  14
BRANCH  10  17
HETATM   17  C   UNL     1      28.065  39.864  48.365  1.00  0.00    -0.052 A 
HETATM   18  C   UNL     1      28.842  38.805  48.861  1.00  0.00     0.007 A 
HETATM   19  C   UNL     1      29.179  37.725  48.042  1.00  0.00     0.001 A 
HETATM   20  C   UNL     1      28.745  37.687  46.720  1.00  0.00     0.000 A 
HETATM   21  C   UNL     1      27.971  38.728  46.214  1.00  0.00     0.001 A 
HETATM   22  C   UNL     1      27.631  39.809  47.029  1.00  0.00     0.007 A 
ENDBRANCH  10  17
BRANCH   1  23
HETATM   23  C   UNL     1      30.196  43.152  54.383  1.00  0.00     0.277 C 
BRANCH  23  24
HETATM   24  C   UNL     1      30.559  43.718  55.703  1.00  0.00     0.011 A 
HETATM   25  C   UNL     1      30.233  44.954  56.251  1.00  0.00     0.035 A 
HETATM   26  C   UNL     1      29.376  46.063  55.753  1.00  0.00     0.070 C 
HETATM   27  N   UNL     1      30.861  44.996  57.477  1.00  0.00    -0.278 N 
HETATM   28  C   UNL     1      30.847  46.050  58.468  1.00  0.00     0.179 C 
HETATM   29  N   UNL     1      31.575  43.888  57.731  1.00  0.00    -0.185 NA
HETATM   30  C   UNL     1      31.345  43.092  56.694  1.00  0.00     0.149 A 
ENDBRANCH  23  24
ENDBRANCH   1  23
TORSDOF 4
ENDMDL
MODEL 6
REMARK VINA RESULT:      -7.9      3.038      7.369
REMARK  4 active torsions:
REMARK  status: ('A' for Active; 'I' for Inactive)
REMARK    1  A    between atoms: C_7  and  C_8 
REMARK    2  A    between atoms: C_8  and  N_9 
REMARK    3  A    between atoms: N_15  and  C_17 
REMARK    4  A    between atoms: C_21  and  C_22 
ROOT
HETATM    1  N   UNL     1      25.867  40.317  48.596  1.00  0.00    -0.067 N 
HETATM    2  H   UNL     1      25.264  40.141  47.777  1.00  0.00     0.280 HD
HETATM    3  C   UNL     1      25.032  41.129  49.544  1.00  0.00     0.236 C 
HETATM    4  C   UNL     1      25.874  41.653  50.709  1.00  0.00     0.039 C 
HETATM    5  C   UNL     1      27.143  42.442  50.275  1.00  0.00    -0.013 C 
HETATM    6  C   UNL     1      26.800  43.832  49.672  1.00  0.00     0.245 C 
HETATM    7  N   UNL     1      26.242  44.771  50.714  1.00  0.00    -0.065 N 
HETATM    8  H   UNL     1      25.389  44.384  51.139  1.00  0.00     0.280 HD
HETATM    9  C   UNL     1      27.221  45.014  51.856  1.00  0.00     0.244 C 
HETATM   10  C   UNL     1      27.563  43.675  52.522  1.00  0.00     0.045 C 
HETATM   11  C   UNL     1      28.090  42.659  51.492  1.00  0.00     0.022 C 
HETATM   12  C   UNL     1      27.914  41.577  49.234  1.00  0.00     0.039 C 
HETATM   13  C   UNL     1      27.064  41.054  48.078  1.00  0.00     0.236 C 
ENDROOT
BRANCH   7  14
HETATM   14  C   UNL     1      25.837  46.085  50.104  1.00  0.00     0.188 A 
HETATM   15  C   UNL     1      24.534  46.672  50.569  1.00  0.00     0.035 A 
HETATM   16  C   UNL     1      25.835  47.282  51.010  1.00  0.00     0.035 A 
ENDBRANCH   7  14
BRANCH  10  17
HETATM   17  C   UNL     1      28.541  43.877  53.663  1.00  0.00    -0.052 A 
HETATM   18  C   UNL     1      28.402  44.989  54.509  1.00  0.00     0.007 A 
HETATM   19  C   UNL     1      29.302  45.204  55.555  1.00  0.00     0.001 A 
HETATM   20  C   UNL     1      30.350  44.313  55.771  1.00  0.00     0.000 A 
HETATM   21  C   UNL     1      30.499  43.204  54.944  1.00  0.00     0.001 A 
HETATM   22  C   UNL     1      29.602  42.985  53.897  1.00  0.00     0.007 A 
ENDBRANCH  10  17
BRANCH   1  23
HETATM   23  C   UNL     1      26.173  38.894  49.066  1.00  0.00     0.277 C 
BRANCH  23  24
HETATM   24  C   UNL     1      26.699  38.062  47.958  1.00  0.00     0.011 A 
HETATM   25  C   UNL     1      28.013  37.707  47.672  1.00  0.00     0.035 A 
HETATM   26  C   UNL     1      29.288  37.965  48.392  1.00  0.00     0.070 C 
HETATM   27  N   UNL     1      27.954  36.968  46.510  1.00  0.00    -0.278 N 
HETATM   28  C   UNL     1      29.034  36.342  45.776  1.00  0.00     0.179 C 
HETATM   29  N   UNL     1      26.704  36.850  46.034  1.00  0.00    -0.185 NA
HETATM   30  C   UNL     1      25.941  37.454  46.936  1.00  0.00     0.149 A 
ENDBRANCH  23  24
ENDBRANCH   1  23
TORSDOF 4
ENDMDL
MODEL 7
REMARK VINA RESULT:      -7.7      5.121     13.112
REMARK  4 active torsions:
REMARK  status: ('A' for Active; 'I' for Inactive)
REMARK    1  A    between atoms: C_7  and  C_8 
REMARK    2  A    between atoms: C_8  and  N_9 
REMARK    3  A    between atoms: N_15  and  C_17 
REMARK    4  A    between atoms: C_21  and  C_22 
ROOT
HETATM    1  N   UNL     1      21.321  49.270  49.535  1.00  0.00    -0.067 N 
HETATM    2  H   UNL     1      21.616  49.026  50.493  1.00  0.00     0.280 HD
HETATM    3  C   UNL     1      20.904  50.711  49.596  1.00  0.00     0.236 C 
HETATM    4  C   UNL     1      20.230  51.146  48.292  1.00  0.00     0.039 C 
HETATM    5  C   UNL     1      19.039  50.245  47.858  1.00  0.00    -0.013 C 
HETATM    6  C   UNL     1      17.792  50.431  48.766  1.00  0.00     0.245 C 
HETATM    7  N   UNL     1      17.173  51.797  48.593  1.00  0.00    -0.065 N 
HETATM    8  H   UNL     1      17.851  52.539  48.817  1.00  0.00     0.280 HD
HETATM    9  C   UNL     1      16.719  52.048  47.160  1.00  0.00     0.244 C 
HETATM   10  C   UNL     1      17.923  51.921  46.218  1.00  0.00     0.045 C 
HETATM   11  C   UNL     1      18.625  50.562  46.391  1.00  0.00     0.022 C 
HETATM   12  C   UNL     1      19.519  48.763  47.897  1.00  0.00     0.039 C 
HETATM   13  C   UNL     1      20.194  48.340  49.199  1.00  0.00     0.236 C 
ENDROOT
BRANCH   7  14
HETATM   14  C   UNL     1      16.019  51.997  49.535  1.00  0.00     0.188 A 
HETATM   15  C   UNL     1      15.991  53.286  50.306  1.00  0.00     0.035 A 
HETATM   16  C   UNL     1      15.027  53.065  49.176  1.00  0.00     0.035 A 
ENDBRANCH   7  14
BRANCH  10  17
HETATM   17  C   UNL     1      17.507  52.160  44.779  1.00  0.00    -0.052 A 
HETATM   18  C   UNL     1      17.866  51.231  43.789  1.00  0.00     0.007 A 
HETATM   19  C   UNL     1      17.510  51.440  42.456  1.00  0.00     0.001 A 
HETATM   20  C   UNL     1      16.791  52.575  42.093  1.00  0.00     0.000 A 
HETATM   21  C   UNL     1      16.424  53.503  43.063  1.00  0.00     0.001 A 
HETATM   22  C   UNL     1      16.778  53.299  44.398  1.00  0.00     0.007 A 
ENDBRANCH  10  17
BRANCH   1  23
HETATM   23  C   UNL     1      22.599  49.003  48.740  1.00  0.00     0.277 C 
BRANCH  23  24
HETATM   24  C   UNL     1      23.269  47.763  49.195  1.00  0.00     0.011 A 
HETATM   25  C   UNL     1      23.096  46.456  48.753  1.00  0.00     0.035 A 
HETATM   26  C   UNL     1      22.267  45.882  47.660  1.00  0.00     0.070 C 
HETATM   27  N   UNL     1      23.923  45.684  49.541  1.00  0.00    -0.278 N 
HETATM   28  C   UNL     1      24.140  44.254  49.499  1.00  0.00     0.179 C 
HETATM   29  N   UNL     1      24.586  46.405  50.459  1.00  0.00    -0.185 NA
HETATM   30  C   UNL     1      24.242  47.663  50.212  1.00  0.00     0.149 A 
ENDBRANCH  23  24
ENDBRANCH   1  23
TORSDOF 4
ENDMDL
MODEL 8
REMARK VINA RESULT:      -7.5     12.020     15.287
REMARK  4 active torsions:
REMARK  status: ('A' for Active; 'I' for Inactive)
REMARK    1  A    between atoms: C_7  and  C_8 
REMARK    2  A    between atoms: C_8  and  N_9 
REMARK    3  A    between atoms: N_15  and  C_17 
REMARK    4  A    between atoms: C_21  and  C_22 
ROOT
HETATM    1  N   UNL     1      33.902  51.505  42.046  1.00  0.00    -0.067 N 
HETATM    2  H   UNL     1      34.332  52.433  42.178  1.00  0.00     0.280 HD
HETATM    3  C   UNL     1      33.425  51.482  40.622  1.00  0.00     0.236 C 
HETATM    4  C   UNL     1      32.565  50.246  40.349  1.00  0.00     0.039 C 
HETATM    5  C   UNL     1      31.374  50.067  41.332  1.00  0.00    -0.013 C 
HETATM    6  C   UNL     1      30.250  51.114  41.099  1.00  0.00     0.245 C 
HETATM    7  N   UNL     1      29.546  50.894  39.781  1.00  0.00    -0.065 N 
HETATM    8  H   UNL     1      30.209  50.951  38.996  1.00  0.00     0.280 HD
HETATM    9  C   UNL     1      28.894  49.519  39.697  1.00  0.00     0.244 C 
HETATM   10  C   UNL     1      29.969  48.439  39.877  1.00  0.00     0.045 C 
HETATM   11  C   UNL     1      30.755  48.646  41.184  1.00  0.00     0.022 C 
HETATM   12  C   UNL     1      31.927  50.185  42.785  1.00  0.00     0.039 C 
HETATM   13  C   UNL     1      32.789  51.418  43.045  1.00  0.00     0.236 C 
ENDROOT
BRANCH   7  14
HETATM   14  C   UNL     1      28.517  51.961  39.527  1.00  0.00     0.188 A 
HETATM   15  C   UNL     1      28.743  52.847  38.335  1.00  0.00     0.035 A 
HETATM   16  C   UNL     1      27.664  51.802  38.302  1.00  0.00     0.035 A 
ENDBRANCH   7  14
BRANCH  10  17
HETATM   17  C   UNL     1      29.356  47.054  39.803  1.00  0.00    -0.052 A 
HETATM   18  C   UNL     1      28.220  46.755  40.571  1.00  0.00     0.007 A 
HETATM   19  C   UNL     1      27.650  45.481  40.533  1.00  0.00     0.001 A 
HETATM   20  C   UNL     1      28.205  44.490  39.728  1.00  0.00     0.000 A 
HETATM   21  C   UNL     1      29.329  44.771  38.958  1.00  0.00     0.001 A 
HETATM   22  C   UNL     1      29.902  46.044  38.992  1.00  0.00     0.007 A 
ENDBRANCH  10  17
BRANCH   1  23
HETATM   23  C   UNL     1      35.076  50.573  42.347  1.00  0.00     0.277 C 
BRANCH  23  24
HETATM   24  C   UNL     1      36.373  51.276  42.203  1.00  0.00     0.011 A 
HETATM   25  C   UNL     1      36.903  52.309  42.967  1.00  0.00     0.035 A 
HETATM   26  C   UNL     1      36.407  52.990  44.193  1.00  0.00     0.070 C 
HETATM   27  N   UNL     1      38.109  52.626  42.380  1.00  0.00    -0.278 N 
HETATM   28  C   UNL     1      39.077  53.625  42.778  1.00  0.00     0.179 C 
HETATM   29  N   UNL     1      38.365  51.884  41.291  1.00  0.00    -0.185 NA
HETATM   30  C   UNL     1      37.353  51.029  41.219  1.00  0.00     0.149 A 
ENDBRANCH  23  24
ENDBRANCH   1  23
TORSDOF 4
ENDMDL
MODEL 9
REMARK VINA RESULT:      -7.3      3.327      8.334
REMARK  4 active torsions:
REMARK  status: ('A' for Active; 'I' for Inactive)
REMARK    1  A    between atoms: C_7  and  C_8 
REMARK    2  A    between atoms: C_8  and  N_9 
REMARK    3  A    between atoms: N_15  and  C_17 
REMARK    4  A    between atoms: C_21  and  C_22 
ROOT
HETATM    1  N   UNL     1      27.443  43.880  53.100  1.00  0.00    -0.067 N 
HETATM    2  H   UNL     1      27.064  44.477  53.850  1.00  0.00     0.280 HD
HETATM    3  C   UNL     1      26.986  44.508  51.815  1.00  0.00     0.236 C 
HETATM    4  C   UNL     1      27.289  43.601  50.620  1.00  0.00     0.039 C 
HETATM    5  C   UNL     1      26.731  42.156  50.757  1.00  0.00    -0.013 C 
HETATM    6  C   UNL     1      25.184  42.102  50.626  1.00  0.00     0.245 C 
HETATM    7  N   UNL     1      24.730  42.433  49.224  1.00  0.00    -0.065 N 
HETATM    8  H   UNL     1      25.046  43.373  48.948  1.00  0.00     0.280 HD
HETATM    9  C   UNL     1      25.296  41.466  48.191  1.00  0.00     0.244 C 
HETATM   10  C   UNL     1      26.829  41.510  48.244  1.00  0.00     0.045 C 
HETATM   11  C   UNL     1      27.345  41.230  49.667  1.00  0.00     0.022 C 
HETATM   12  C   UNL     1      27.175  41.599  52.144  1.00  0.00     0.039 C 
HETATM   13  C   UNL     1      26.873  42.514  53.329  1.00  0.00     0.236 C 
ENDROOT
BRANCH   7  14
HETATM   14  C   UNL     1      23.230  42.459  49.128  1.00  0.00     0.188 A 
HETATM   15  C   UNL     1      22.595  43.789  48.834  1.00  0.00     0.035 A 
HETATM   16  C   UNL     1      22.642  42.727  47.773  1.00  0.00     0.035 A 
ENDBRANCH   7  14
BRANCH  10  17
HETATM   17  C   UNL     1      27.429  40.556  47.230  1.00  0.00    -0.052 A 
HETATM   18  C   UNL     1      27.665  39.219  47.589  1.00  0.00     0.007 A 
HETATM   19  C   UNL     1      28.234  38.328  46.677  1.00  0.00     0.001 A 
HETATM   20  C   UNL     1      28.573  38.757  45.397  1.00  0.00     0.000 A 
HETATM   21  C   UNL     1      28.341  40.078  45.024  1.00  0.00     0.001 A 
HETATM   22  C   UNL     1      27.773  40.973  45.932  1.00  0.00     0.007 A 
ENDBRANCH  10  17
BRANCH   1  23
HETATM   23  C   UNL     1      28.947  43.973  53.361  1.00  0.00     0.277 C 
BRANCH  23  24
HETATM   24  C   UNL     1      29.232  44.705  54.617  1.00  0.00     0.011 A 
HETATM   25  C   UNL     1      30.083  44.363  55.662  1.00  0.00     0.035 A 
HETATM   26  C   UNL     1      31.023  43.224  55.841  1.00  0.00     0.070 C 
HETATM   27  N   UNL     1      29.939  45.360  56.602  1.00  0.00    -0.278 N 
HETATM   28  C   UNL     1      30.602  45.505  57.880  1.00  0.00     0.179 C 
HETATM   29  N   UNL     1      29.046  46.293  56.235  1.00  0.00    -0.185 NA
HETATM   30  C   UNL     1      28.666  45.935  55.015  1.00  0.00     0.149 A 
ENDBRANCH  23  24
ENDBRANCH   1  23
TORSDOF 4
ENDMDL
MODEL 10
REMARK VINA RESULT:      -7.1      3.798      8.944
REMARK  4 active torsions:
REMARK  status: ('A' for Active; 'I' for Inactive)
REMARK    1  A    between atoms: C_7  and  C_8 
REMARK    2  A    between atoms: C_8  and  N_9 
REMARK    3  A    between atoms: N_15  and  C_17 
REMARK    4  A    between atoms: C_21  and  C_22 
ROOT
HETATM    1  N   UNL     1      27.804  38.692  48.431  1.00  0.00    -0.067 N 
HETATM    2  H   UNL     1      28.321  37.806  48.542  1.00  0.00     0.280 HD
HETATM    3  C   UNL     1      28.810  39.778  48.683  1.00  0.00     0.236 C 
HETATM    4  C   UNL     1      28.133  41.148  48.772  1.00  0.00     0.039 C 
HETATM    5  C   UNL     1      26.973  41.219  49.806  1.00  0.00    -0.013 C 
HETATM    6  C   UNL     1      27.482  41.183  51.273  1.00  0.00     0.245 C 
HETATM    7  N   UNL     1      28.240  42.439  51.632  1.00  0.00    -0.065 N 
HETATM    8  H   UNL     1      29.051  42.570  51.011  1.00  0.00     0.280 HD
HETATM    9  C   UNL     1      27.383  43.692  51.491  1.00  0.00     0.244 C 
HETATM   10  C   UNL     1      26.886  43.804  50.045  1.00  0.00     0.045 C 
HETATM   11  C   UNL     1      26.148  42.525  49.608  1.00  0.00     0.022 C 
HETATM   12  C   UNL     1      26.015  40.019  49.538  1.00  0.00     0.039 C 
HETATM   13  C   UNL     1      26.702  38.658  49.445  1.00  0.00     0.236 C 
ENDROOT
BRANCH   7  14
HETATM   14  C   UNL     1      28.799  42.359  53.026  1.00  0.00     0.188 A 
HETATM   15  C   UNL     1      30.249  42.718  53.193  1.00  0.00     0.035 A 
HETATM   16  C   UNL     1      29.181  43.657  53.678  1.00  0.00     0.035 A 
ENDBRANCH   7  14
BRANCH  10  17
HETATM   17  C   UNL     1      26.024  45.039  49.867  1.00  0.00    -0.052 A 
HETATM   18  C   UNL     1      26.604  46.312  49.978  1.00  0.00     0.007 A 
HETATM   19  C   UNL     1      25.825  47.463  49.836  1.00  0.00     0.001 A 
HETATM   20  C   UNL     1      24.461  47.358  49.581  1.00  0.00     0.000 A 
HETATM   21  C   UNL     1      23.872  46.103  49.464  1.00  0.00     0.001 A 
HETATM   22  C   UNL     1      24.646  44.949  49.605  1.00  0.00     0.007 A 
ENDBRANCH  10  17
BRANCH   1  23
HETATM   23  C   UNL     1      27.318  38.589  46.985  1.00  0.00     0.277 C 
BRANCH  23  24
HETATM   24  C   UNL     1      27.861  37.383  46.318  1.00  0.00     0.011 A 
HETATM   25  C   UNL     1      27.508  36.049  46.489  1.00  0.00     0.035 A 
HETATM   26  C   UNL     1      26.452  35.401  47.312  1.00  0.00     0.070 C 
HETATM   27  N   UNL     1      28.351  35.332  45.667  1.00  0.00    -0.278 N 
HETATM   28  C   UNL     1      28.408  33.902  45.450  1.00  0.00     0.179 C 
HETATM   29  N   UNL     1      29.221  36.115  45.009  1.00  0.00    -0.185 NA
HETATM   30  C   UNL     1      28.888  37.353  45.351  1.00  0.00     0.149 A 
ENDBRANCH  23  24
ENDBRANCH   1  23
TORSDOF 4
ENDMDL
