MODEL 1
REMARK VINA RESULT:      -9.9      0.000      0.000
REMARK  7 active torsions:
REMARK  status: ('A' for Active; 'I' for Inactive)
REMARK    1  A    between atoms: C_3  and  C_4 
REMARK       I    between atoms: C_4  and  N_5 
REMARK    2  A    between atoms: N_8  and  C_9 
REMARK    3  A    between atoms: C_12  and  N_13 
REMARK    4  A    between atoms: N_13  and  C_14 
REMARK    5  A    between atoms: C_14  and  N_15 
REMARK       I    between atoms: N_15  and  C_16 
REMARK    6  A    between atoms: C_16  and  C_17 
REMARK    7  A    between atoms: C_19  and  O_20 
ROOT
HETATM    1  C   UNL     1      23.775  46.107  49.174  1.00  0.00     0.030 A 
HETATM    2  C   UNL     1      24.812  46.904  49.679  1.00  0.00     0.031 A 
HETATM    3  C   UNL     1      26.068  46.366  49.986  1.00  0.00     0.026 A 
HETATM    4  C   UNL     1      26.318  45.006  49.790  1.00  0.00     0.014 A 
HETATM    5  C   UNL     1      25.330  44.216  49.204  1.00  0.00     0.026 A 
HETATM    6  C   UNL     1      24.069  44.763  48.913  1.00  0.00     0.031 A 
ENDROOT
BRANCH   4   7
HETATM    7  N   UNL     1      27.543  44.478  50.305  1.00  0.00    -0.236 NA
HETATM    8  H   UNL     1      28.231  45.226  50.338  1.00  0.00     0.136 HD
BRANCH   7   9
HETATM    9  C   UNL     1      27.551  43.739  51.454  1.00  0.00     0.157 C 
HETATM   10  S   UNL     1      28.041  42.142  51.460  1.00  0.00    -0.047 SA
BRANCH   9  11
HETATM   11  N   UNL     1      27.067  44.302  52.610  1.00  0.00    -0.304 N 
HETATM   12  C   UNL     1      27.134  43.841  53.912  1.00  0.00     0.257 C 
HETATM   13  O   UNL     1      26.103  43.574  54.526  1.00  0.00    -0.267 OA
HETATM   14  H   UNL     1      26.194  44.778  52.423  1.00  0.00     0.171 HD
BRANCH  12  15
HETATM   15  C   UNL     1      28.461  43.878  54.613  1.00  0.00     0.035 A 
HETATM   16  C   UNL     1      28.733  44.997  55.421  1.00  0.00     0.053 A 
HETATM   17  C   UNL     1      29.991  45.162  56.008  1.00  0.00     0.069 A 
HETATM   18  C   UNL     1      30.964  44.176  55.844  1.00  0.00     0.037 A 
HETATM   19  C   UNL     1      30.707  43.063  55.046  1.00  0.00     0.004 A 
HETATM   20  C   UNL     1      29.470  42.927  54.414  1.00  0.00     0.017 A 
BRANCH  17  21
HETATM   21  O   UNL     1      30.376  46.235  56.764  1.00  0.00    -0.356 OA
HETATM   22  C   UNL     1      30.524  45.979  58.157  1.00  0.00     0.210 C 
ENDBRANCH  17  21
ENDBRANCH  12  15
ENDBRANCH   9  11
ENDBRANCH   7   9
ENDBRANCH   4   7
BRANCH   1  23
HETATM   23  N   UNL     1      22.506  46.672  49.026  1.00  0.00    -0.378 N 
HETATM   24  C   UNL     1      21.546  46.012  48.118  1.00  0.00     0.143 C 
HETATM   25  C   UNL     1      20.123  46.511  48.417  1.00  0.00     0.146 C 
HETATM   26  N   UNL     1      20.012  47.975  48.421  1.00  0.00    -0.345 N 
HETATM   27  C   UNL     1      18.747  48.509  48.177  1.00  0.00     0.254 C 
HETATM   28  C   UNL     1      21.072  48.688  49.156  1.00  0.00     0.146 C 
HETATM   29  O   UNL     1      17.790  47.849  47.781  1.00  0.00    -0.267 OA
HETATM   30  C   UNL     1      22.491  48.142  48.887  1.00  0.00     0.143 C 
BRANCH  27  31
HETATM   31  C   UNL     1      18.543  49.961  48.366  1.00  0.00     0.038 A 
HETATM   32  C   UNL     1      18.659  50.876  47.307  1.00  0.00    -0.046 A 
HETATM   33  C   UNL     1      18.960  50.455  45.897  1.00  0.00     0.049 C 
HETATM   34  C   UNL     1      18.448  52.237  47.580  1.00  0.00     0.007 A 
HETATM   35  C   UNL     1      18.173  52.671  48.880  1.00  0.00     0.001 A 
HETATM   36  C   UNL     1      18.100  51.755  49.927  1.00  0.00     0.001 A 
HETATM   37  C   UNL     1      18.284  50.397  49.672  1.00  0.00     0.017 A 
ENDBRANCH  27  31
ENDBRANCH   1  23
TORSDOF 7
ENDMDL
MODEL 2
REMARK VINA RESULT:      -9.7      2.948     10.543
REMARK  7 active torsions:
REMARK  status: ('A' for Active; 'I' for Inactive)
REMARK    1  A    between atoms: C_3  and  C_4 
REMARK       I    between atoms: C_4  and  N_5 
REMARK    2  A    between atoms: N_8  and  C_9 
REMARK    3  A    between atoms: C_12  and  N_13 
REMARK    4  A    between atoms: N_13  and  C_14 
REMARK    5  A    between atoms: C_14  and  N_15 
REMARK       I    between atoms: N_15  and  C_16 
REMARK    6  A    between atoms: C_16  and  C_17 
REMARK    7  A    between atoms: C_19  and  O_20 
ROOT
HETATM    1  C   UNL     1      23.376  44.947  49.546  1.00  0.00     0.030 A 
HETATM    2  C   UNL     1      23.372  46.318  49.251  1.00  0.00     0.031 A 
HETATM    3  C   UNL     1      22.432  46.877  48.377  1.00  0.00     0.026 A 
HETATM    4  C   UNL     1      21.463  46.072  47.776  1.00  0.00     0.014 A 
HETATM    5  C   UNL     1      21.393  44.725  48.127  1.00  0.00     0.026 A 
HETATM    6  C   UNL     1      22.350  44.170  48.994  1.00  0.00     0.031 A 
ENDROOT
BRANCH   4   7
HETATM    7  N   UNL     1      20.661  46.657  46.746  1.00  0.00    -0.236 NA
HETATM    8  H   UNL     1      20.445  45.942  46.056  1.00  0.00     0.136 HD
BRANCH   7   9
HETATM    9  C   UNL     1      19.556  47.397  47.063  1.00  0.00     0.157 C 
HETATM   10  S   UNL     1      18.253  46.720  47.860  1.00  0.00    -0.047 SA
BRANCH   9  11
HETATM   11  N   UNL     1      19.487  48.702  46.640  1.00  0.00    -0.304 N 
HETATM   12  C   UNL     1      19.467  49.870  47.380  1.00  0.00     0.257 C 
HETATM   13  O   UNL     1      18.490  50.614  47.333  1.00  0.00    -0.267 OA
HETATM   14  H   UNL     1      18.903  48.768  45.816  1.00  0.00     0.171 HD
BRANCH  12  15
HETATM   15  C   UNL     1      20.733  50.303  48.061  1.00  0.00     0.035 A 
HETATM   16  C   UNL     1      21.924  50.235  47.316  1.00  0.00     0.053 A 
HETATM   17  C   UNL     1      23.156  50.505  47.917  1.00  0.00     0.069 A 
HETATM   18  C   UNL     1      23.200  50.908  49.251  1.00  0.00     0.037 A 
HETATM   19  C   UNL     1      22.028  50.978  50.001  1.00  0.00     0.004 A 
HETATM   20  C   UNL     1      20.804  50.654  49.416  1.00  0.00     0.017 A 
BRANCH  17  21
HETATM   21  O   UNL     1      24.373  50.416  47.298  1.00  0.00    -0.356 OA
HETATM   22  C   UNL     1      25.414  49.836  48.078  1.00  0.00     0.210 C 
ENDBRANCH  17  21
ENDBRANCH  12  15
ENDBRANCH   9  11
ENDBRANCH   7   9
ENDBRANCH   4   7
BRANCH   1  23
HETATM   23  N   UNL     1      24.425  44.428  50.307  1.00  0.00    -0.378 N 
HETATM   24  C   UNL     1      24.409  42.987  50.633  1.00  0.00     0.143 C 
HETATM   25  C   UNL     1      25.811  42.542  51.080  1.00  0.00     0.146 C 
HETATM   26  N   UNL     1      26.369  43.377  52.151  1.00  0.00    -0.345 N 
HETATM   27  C   UNL     1      27.351  42.796  52.954  1.00  0.00     0.254 C 
HETATM   28  C   UNL     1      26.227  44.831  51.959  1.00  0.00     0.146 C 
HETATM   29  O   UNL     1      27.628  41.599  52.938  1.00  0.00    -0.267 OA
HETATM   30  C   UNL     1      24.831  45.260  51.459  1.00  0.00     0.143 C 
BRANCH  27  31
HETATM   31  C   UNL     1      28.082  43.652  53.911  1.00  0.00     0.038 A 
HETATM   32  C   UNL     1      29.476  43.573  54.071  1.00  0.00    -0.046 A 
HETATM   33  C   UNL     1      30.336  42.646  53.261  1.00  0.00     0.049 C 
HETATM   34  C   UNL     1      30.085  44.427  55.004  1.00  0.00     0.007 A 
HETATM   35  C   UNL     1      29.320  45.299  55.783  1.00  0.00     0.001 A 
HETATM   36  C   UNL     1      27.934  45.337  55.640  1.00  0.00     0.001 A 
HETATM   37  C   UNL     1      27.312  44.514  54.703  1.00  0.00     0.017 A 
ENDBRANCH  27  31
ENDBRANCH   1  23
TORSDOF 7
ENDMDL
MODEL 3
REMARK VINA RESULT:      -9.7     12.933     16.577
REMARK  7 active torsions:
REMARK  status: ('A' for Active; 'I' for Inactive)
REMARK    1  A    between atoms: C_3  and  C_4 
REMARK       I    between atoms: C_4  and  N_5 
REMARK    2  A    between atoms: N_8  and  C_9 
REMARK    3  A    between atoms: C_12  and  N_13 
REMARK    4  A    between atoms: N_13  and  C_14 
REMARK    5  A    between atoms: C_14  and  N_15 
REMARK       I    between atoms: N_15  and  C_16 
REMARK    6  A    between atoms: C_16  and  C_17 
REMARK    7  A    between atoms: C_19  and  O_20 
ROOT
HETATM    1  C   UNL     1      31.951  48.995  41.761  1.00  0.00     0.030 A 
HETATM    2  C   UNL     1      30.694  49.170  42.357  1.00  0.00     0.031 A 
HETATM    3  C   UNL     1      29.551  48.533  41.860  1.00  0.00     0.026 A 
HETATM    4  C   UNL     1      29.641  47.695  40.747  1.00  0.00     0.014 A 
HETATM    5  C   UNL     1      30.895  47.436  40.197  1.00  0.00     0.026 A 
HETATM    6  C   UNL     1      32.034  48.091  40.695  1.00  0.00     0.031 A 
ENDROOT
BRANCH   4   7
HETATM    7  N   UNL     1      28.418  47.234  40.166  1.00  0.00    -0.236 NA
HETATM    8  H   UNL     1      28.019  46.521  40.772  1.00  0.00     0.136 HD
BRANCH   7   9
HETATM    9  C   UNL     1      27.469  48.124  39.747  1.00  0.00     0.157 C 
HETATM   10  S   UNL     1      25.925  48.115  40.384  1.00  0.00    -0.047 SA
BRANCH   9  11
HETATM   11  N   UNL     1      27.773  48.985  38.722  1.00  0.00    -0.304 N 
HETATM   12  C   UNL     1      27.565  50.349  38.623  1.00  0.00     0.257 C 
HETATM   13  O   UNL     1      26.826  50.799  37.750  1.00  0.00    -0.267 OA
HETATM   14  H   UNL     1      27.650  48.520  37.830  1.00  0.00     0.171 HD
BRANCH  12  15
HETATM   15  C   UNL     1      28.417  51.261  39.457  1.00  0.00     0.035 A 
HETATM   16  C   UNL     1      29.758  51.429  39.068  1.00  0.00     0.053 A 
HETATM   17  C   UNL     1      30.643  52.164  39.862  1.00  0.00     0.069 A 
HETATM   18  C   UNL     1      30.176  52.791  41.016  1.00  0.00     0.037 A 
HETATM   19  C   UNL     1      28.851  52.633  41.413  1.00  0.00     0.004 A 
HETATM   20  C   UNL     1      27.981  51.851  40.651  1.00  0.00     0.017 A 
BRANCH  17  21
HETATM   21  O   UNL     1      31.974  52.342  39.602  1.00  0.00    -0.356 OA
HETATM   22  C   UNL     1      32.509  51.527  38.565  1.00  0.00     0.210 C 
ENDBRANCH  17  21
ENDBRANCH  12  15
ENDBRANCH   9  11
ENDBRANCH   7   9
ENDBRANCH   4   7
BRANCH   1  23
HETATM   23  N   UNL     1      33.022  49.769  42.213  1.00  0.00    -0.378 N 
HETATM   24  C   UNL     1      32.732  51.097  42.792  1.00  0.00     0.143 C 
HETATM   25  C   UNL     1      33.946  51.586  43.599  1.00  0.00     0.146 C 
HETATM   26  N   UNL     1      35.202  51.540  42.841  1.00  0.00    -0.345 N 
HETATM   27  C   UNL     1      36.221  52.395  43.262  1.00  0.00     0.254 C 
HETATM   28  C   UNL     1      35.439  50.299  42.083  1.00  0.00     0.146 C 
HETATM   29  O   UNL     1      36.064  53.293  44.085  1.00  0.00    -0.267 OA
HETATM   30  C   UNL     1      34.197  49.790  41.319  1.00  0.00     0.143 C 
BRANCH  27  31
HETATM   31  C   UNL     1      37.563  52.246  42.662  1.00  0.00     0.038 A 
HETATM   32  C   UNL     1      37.908  52.850  41.440  1.00  0.00    -0.046 A 
HETATM   33  C   UNL     1      36.960  53.722  40.669  1.00  0.00     0.049 C 
HETATM   34  C   UNL     1      39.207  52.653  40.947  1.00  0.00     0.007 A 
HETATM   35  C   UNL     1      40.117  51.842  41.630  1.00  0.00     0.001 A 
HETATM   36  C   UNL     1      39.747  51.218  42.820  1.00  0.00     0.001 A 
HETATM   37  C   UNL     1      38.470  51.419  43.339  1.00  0.00     0.017 A 
ENDBRANCH  27  31
ENDBRANCH   1  23
TORSDOF 7
ENDMDL
MODEL 4
REMARK VINA RESULT:      -9.7     11.592     13.730
REMARK  7 active torsions:
REMARK  status: ('A' for Active; 'I' for Inactive)
REMARK    1  A    between atoms: C_3  and  C_4 
REMARK       I    between atoms: C_4  and  N_5 
REMARK    2  A    between atoms: N_8  and  C_9 
REMARK    3  A    between atoms: C_12  and  N_13 
REMARK    4  A    between atoms: N_13  and  C_14 
REMARK    5  A    between atoms: C_14  and  N_15 
REMARK       I    between atoms: N_15  and  C_16 
REMARK    6  A    between atoms: C_16  and  C_17 
REMARK    7  A    between atoms: C_19  and  O_20 
ROOT
HETATM    1  C   UNL     1      30.115  48.581  41.100  1.00  0.00     0.030 A 
HETATM    2  C   UNL     1      31.250  47.961  40.559  1.00  0.00     0.031 A 
HETATM    3  C   UNL     1      32.544  48.340  40.937  1.00  0.00     0.026 A 
HETATM    4  C   UNL     1      32.733  49.355  41.877  1.00  0.00     0.014 A 
HETATM    5  C   UNL     1      31.617  49.919  42.494  1.00  0.00     0.026 A 
HETATM    6  C   UNL     1      30.323  49.542  42.097  1.00  0.00     0.031 A 
ENDROOT
BRANCH   4   7
HETATM    7  N   UNL     1      34.066  49.833  42.075  1.00  0.00    -0.236 NA
HETATM    8  H   UNL     1      34.678  49.036  42.227  1.00  0.00     0.136 HD
BRANCH   7   9
HETATM    9  C   UNL     1      34.618  50.730  41.204  1.00  0.00     0.157 C 
HETATM   10  S   UNL     1      36.008  50.371  40.349  1.00  0.00    -0.047 SA
BRANCH   9  11
HETATM   11  N   UNL     1      34.062  51.981  41.096  1.00  0.00    -0.304 N 
HETATM   12  C   UNL     1      33.567  52.635  39.983  1.00  0.00     0.257 C 
HETATM   13  O   UNL     1      34.089  53.680  39.599  1.00  0.00    -0.267 OA
HETATM   14  H   UNL     1      34.519  52.619  41.736  1.00  0.00     0.171 HD
BRANCH  12  15
HETATM   15  C   UNL     1      32.271  52.159  39.395  1.00  0.00     0.035 A 
HETATM   16  C   UNL     1      31.084  52.698  39.925  1.00  0.00     0.053 A 
HETATM   17  C   UNL     1      29.838  52.216  39.515  1.00  0.00     0.069 A 
HETATM   18  C   UNL     1      29.768  51.238  38.524  1.00  0.00     0.037 A 
HETATM   19  C   UNL     1      30.935  50.695  37.991  1.00  0.00     0.004 A 
HETATM   20  C   UNL     1      32.180  51.136  38.442  1.00  0.00     0.017 A 
BRANCH  17  21
HETATM   21  O   UNL     1      28.630  52.633  40.004  1.00  0.00    -0.356 OA
HETATM   22  C   UNL     1      28.548  52.735  41.423  1.00  0.00     0.210 C 
ENDBRANCH  17  21
ENDBRANCH  12  15
ENDBRANCH   9  11
ENDBRANCH   7   9
ENDBRANCH   4   7
BRANCH   1  23
HETATM   23  N   UNL     1      28.861  48.259  40.575  1.00  0.00    -0.378 N 
HETATM   24  C   UNL     1      28.793  47.713  39.205  1.00  0.00     0.143 C 
HETATM   25  C   UNL     1      27.429  47.038  38.983  1.00  0.00     0.146 C 
HETATM   26  N   UNL     1      26.294  47.904  39.324  1.00  0.00    -0.345 N 
HETATM   27  C   UNL     1      25.075  47.612  38.710  1.00  0.00     0.254 C 
HETATM   28  C   UNL     1      26.411  48.628  40.601  1.00  0.00     0.146 C 
HETATM   29  O   UNL     1      24.950  46.816  37.783  1.00  0.00    -0.267 OA
HETATM   30  C   UNL     1      27.802  49.256  40.835  1.00  0.00     0.143 C 
BRANCH  27  31
HETATM   31  C   UNL     1      23.864  48.324  39.168  1.00  0.00     0.038 A 
HETATM   32  C   UNL     1      23.003  47.785  40.140  1.00  0.00    -0.046 A 
HETATM   33  C   UNL     1      23.263  46.469  40.816  1.00  0.00     0.049 C 
HETATM   34  C   UNL     1      21.875  48.532  40.513  1.00  0.00     0.007 A 
HETATM   35  C   UNL     1      21.594  49.757  39.902  1.00  0.00     0.001 A 
HETATM   36  C   UNL     1      22.435  50.259  38.912  1.00  0.00     0.001 A 
HETATM   37  C   UNL     1      23.573  49.543  38.543  1.00  0.00     0.017 A 
ENDBRANCH  27  31
ENDBRANCH   1  23
TORSDOF 7
ENDMDL
MODEL 5
REMARK VINA RESULT:      -9.6      3.306     11.306
REMARK  7 active torsions:
REMARK  status: ('A' for Active; 'I' for Inactive)
REMARK    1  A    between atoms: C_3  and  C_4 
REMARK       I    between atoms: C_4  and  N_5 
REMARK    2  A    between atoms: N_8  and  C_9 
REMARK    3  A    between atoms: C_12  and  N_13 
REMARK    4  A    between atoms: N_13  and  C_14 
REMARK    5  A    between atoms: C_14  and  N_15 
REMARK       I    between atoms: N_15  and  C_16 
REMARK    6  A    between atoms: C_16  and  C_17 
REMARK    7  A    between atoms: C_19  and  O_20 
ROOT
HETATM    1  C   UNL     1      24.259  47.361  49.255  1.00  0.00     0.030 A 
HETATM    2  C   UNL     1      22.962  47.202  48.747  1.00  0.00     0.031 A 
HETATM    3  C   UNL     1      22.193  48.299  48.343  1.00  0.00     0.026 A 
HETATM    4  C   UNL     1      22.710  49.593  48.434  1.00  0.00     0.014 A 
HETATM    5  C   UNL     1      24.030  49.764  48.849  1.00  0.00     0.026 A 
HETATM    6  C   UNL     1      24.789  48.657  49.266  1.00  0.00     0.031 A 
ENDROOT
BRANCH   4   7
HETATM    7  N   UNL     1      21.814  50.682  48.197  1.00  0.00    -0.236 NA
HETATM    8  H   UNL     1      21.672  50.773  47.194  1.00  0.00     0.136 HD
BRANCH   7   9
HETATM    9  C   UNL     1      20.634  50.772  48.880  1.00  0.00     0.157 C 
HETATM   10  S   UNL     1      19.567  52.029  48.615  1.00  0.00    -0.047 SA
BRANCH   9  11
HETATM   11  N   UNL     1      20.364  49.852  49.863  1.00  0.00    -0.304 N 
HETATM   12  C   UNL     1      19.156  49.295  50.244  1.00  0.00     0.257 C 
HETATM   13  O   UNL     1      18.721  49.484  51.378  1.00  0.00    -0.267 OA
HETATM   14  H   UNL     1      20.977  50.001  50.656  1.00  0.00     0.171 HD
BRANCH  12  15
HETATM   15  C   UNL     1      18.511  48.298  49.326  1.00  0.00     0.035 A 
HETATM   16  C   UNL     1      17.243  48.622  48.809  1.00  0.00     0.053 A 
HETATM   17  C   UNL     1      16.528  47.695  48.047  1.00  0.00     0.069 A 
HETATM   18  C   UNL     1      17.103  46.462  47.740  1.00  0.00     0.037 A 
HETATM   19  C   UNL     1      18.357  46.129  48.246  1.00  0.00     0.004 A 
HETATM   20  C   UNL     1      19.047  47.033  49.055  1.00  0.00     0.017 A 
BRANCH  17  21
HETATM   21  O   UNL     1      15.270  47.889  47.544  1.00  0.00    -0.356 OA
HETATM   22  C   UNL     1      15.027  49.177  46.988  1.00  0.00     0.210 C 
ENDBRANCH  17  21
ENDBRANCH  12  15
ENDBRANCH   9  11
ENDBRANCH   7   9
ENDBRANCH   4   7
BRANCH   1  23
HETATM   23  N   UNL     1      24.917  46.244  49.775  1.00  0.00    -0.378 N 
HETATM   24  C   UNL     1      24.173  44.972  49.869  1.00  0.00     0.143 C 
HETATM   25  C   UNL     1      25.160  43.806  50.047  1.00  0.00     0.146 C 
HETATM   26  N   UNL     1      26.107  44.013  51.150  1.00  0.00    -0.345 N 
HETATM   27  C   UNL     1      26.676  42.869  51.711  1.00  0.00     0.254 C 
HETATM   28  C   UNL     1      26.727  45.347  51.210  1.00  0.00     0.146 C 
HETATM   29  O   UNL     1      26.296  41.726  51.469  1.00  0.00    -0.267 OA
HETATM   30  C   UNL     1      25.735  46.506  50.977  1.00  0.00     0.143 C 
BRANCH  27  31
HETATM   31  C   UNL     1      27.778  43.031  52.682  1.00  0.00     0.038 A 
HETATM   32  C   UNL     1      27.559  43.498  53.990  1.00  0.00    -0.046 A 
HETATM   33  C   UNL     1      26.192  43.833  54.515  1.00  0.00     0.049 C 
HETATM   34  C   UNL     1      28.665  43.620  54.844  1.00  0.00     0.007 A 
HETATM   35  C   UNL     1      29.955  43.326  54.391  1.00  0.00     0.001 A 
HETATM   36  C   UNL     1      30.160  42.901  53.080  1.00  0.00     0.001 A 
HETATM   37  C   UNL     1      29.072  42.752  52.223  1.00  0.00     0.017 A 
ENDBRANCH  27  31
ENDBRANCH   1  23
TORSDOF 7
ENDMDL
MODEL 6
REMARK VINA RESULT:      -9.5      1.362      1.890
REMARK  7 active torsions:
REMARK  status: ('A' for Active; 'I' for Inactive)
REMARK    1  A    between atoms: C_3  and  C_4 
REMARK       I    between atoms: C_4  and  N_5 
REMARK    2  A    between atoms: N_8  and  C_9 
REMARK    3  A    between atoms: C_12  and  N_13 
REMARK    4  A    between atoms: N_13  and  C_14 
REMARK    5  A    between atoms: C_14  and  N_15 
REMARK       I    between atoms: N_15  and  C_16 
REMARK    6  A    between atoms: C_16  and  C_17 
REMARK    7  A    between atoms: C_19  and  O_20 
ROOT
HETATM    1  C   UNL     1      23.536  45.638  49.070  1.00  0.00     0.030 A 
HETATM    2  C   UNL     1      24.638  46.312  49.616  1.00  0.00     0.031 A 
HETATM    3  C   UNL     1      25.857  45.663  49.841  1.00  0.00     0.026 A 
HETATM    4  C   UNL     1      26.005  44.312  49.519  1.00  0.00     0.014 A 
HETATM    5  C   UNL     1      24.952  43.650  48.890  1.00  0.00     0.026 A 
HETATM    6  C   UNL     1      23.728  44.307  48.681  1.00  0.00     0.031 A 
ENDROOT
BRANCH   4   7
HETATM    7  N   UNL     1      27.199  43.656  49.952  1.00  0.00    -0.236 NA
HETATM    8  H   UNL     1      27.616  44.201  50.702  1.00  0.00     0.136 HD
BRANCH   7   9
HETATM    9  C   UNL     1      27.189  42.322  50.249  1.00  0.00     0.157 C 
HETATM   10  S   UNL     1      27.543  41.168  49.094  1.00  0.00    -0.047 SA
BRANCH   9  11
HETATM   11  N   UNL     1      26.797  41.924  51.504  1.00  0.00    -0.304 N 
HETATM   12  C   UNL     1      27.347  42.223  52.737  1.00  0.00     0.257 C 
HETATM   13  O   UNL     1      27.809  41.326  53.440  1.00  0.00    -0.267 OA
HETATM   14  H   UNL     1      26.438  40.977  51.471  1.00  0.00     0.171 HD
BRANCH  12  15
HETATM   15  C   UNL     1      27.175  43.613  53.275  1.00  0.00     0.035 A 
HETATM   16  C   UNL     1      28.276  44.194  53.931  1.00  0.00     0.053 A 
HETATM   17  C   UNL     1      28.155  45.435  54.563  1.00  0.00     0.069 A 
HETATM   18  C   UNL     1      26.950  46.133  54.486  1.00  0.00     0.037 A 
HETATM   19  C   UNL     1      25.853  45.570  53.841  1.00  0.00     0.004 A 
HETATM   20  C   UNL     1      25.957  44.306  53.259  1.00  0.00     0.017 A 
BRANCH  17  21
HETATM   21  O   UNL     1      29.144  46.060  55.271  1.00  0.00    -0.356 OA
HETATM   22  C   UNL     1      28.953  46.101  56.682  1.00  0.00     0.210 C 
ENDBRANCH  17  21
ENDBRANCH  12  15
ENDBRANCH   9  11
ENDBRANCH   7   9
ENDBRANCH   4   7
BRANCH   1  23
HETATM   23  N   UNL     1      22.308  46.301  49.006  1.00  0.00    -0.378 N 
HETATM   24  C   UNL     1      21.209  45.670  48.247  1.00  0.00     0.143 C 
HETATM   25  C   UNL     1      19.870  46.310  48.647  1.00  0.00     0.146 C 
HETATM   26  N   UNL     1      19.878  47.775  48.554  1.00  0.00    -0.345 N 
HETATM   27  C   UNL     1      18.641  48.401  48.397  1.00  0.00     0.254 C 
HETATM   28  C   UNL     1      21.061  48.439  49.127  1.00  0.00     0.146 C 
HETATM   29  O   UNL     1      17.598  47.802  48.146  1.00  0.00    -0.267 OA
HETATM   30  C   UNL     1      22.396  47.755  48.761  1.00  0.00     0.143 C 
BRANCH  27  31
HETATM   31  C   UNL     1      18.575  49.874  48.498  1.00  0.00     0.038 A 
HETATM   32  C   UNL     1      18.732  50.708  47.378  1.00  0.00    -0.046 A 
HETATM   33  C   UNL     1      18.940  50.175  45.990  1.00  0.00     0.049 C 
HETATM   34  C   UNL     1      18.654  52.096  47.569  1.00  0.00     0.007 A 
HETATM   35  C   UNL     1      18.469  52.633  48.847  1.00  0.00     0.001 A 
HETATM   36  C   UNL     1      18.354  51.794  49.953  1.00  0.00     0.001 A 
HETATM   37  C   UNL     1      18.406  50.412  49.781  1.00  0.00     0.017 A 
ENDBRANCH  27  31
ENDBRANCH   1  23
TORSDOF 7
ENDMDL
MODEL 7
REMARK VINA RESULT:      -9.5      2.090      3.019
REMARK  7 active torsions:
REMARK  status: ('A' for Active; 'I' for Inactive)
REMARK    1  A    between atoms: C_3  and  C_4 
REMARK       I    between atoms: C_4  and  N_5 
REMARK    2  A    between atoms: N_8  and  C_9 
REMARK    3  A    between atoms: C_12  and  N_13 
REMARK    4  A    between atoms: N_13  and  C_14 
REMARK    5  A    between atoms: C_14  and  N_15 
REMARK       I    between atoms: N_15  and  C_16 
REMARK    6  A    between atoms: C_16  and  C_17 
REMARK    7  A    between atoms: C_19  and  O_20 
ROOT
HETATM    1  C   UNL     1      25.003  45.498  49.294  1.00  0.00     0.030 A 
HETATM    2  C   UNL     1      26.309  45.728  49.749  1.00  0.00     0.031 A 
HETATM    3  C   UNL     1      27.179  44.672  50.046  1.00  0.00     0.026 A 
HETATM    4  C   UNL     1      26.759  43.349  49.888  1.00  0.00     0.014 A 
HETATM    5  C   UNL     1      25.498  43.102  49.349  1.00  0.00     0.026 A 
HETATM    6  C   UNL     1      24.627  44.168  49.068  1.00  0.00     0.031 A 
ENDROOT
BRANCH   4   7
HETATM    7  N   UNL     1      27.614  42.319  50.392  1.00  0.00    -0.236 NA
HETATM    8  H   UNL     1      28.343  42.749  50.956  1.00  0.00     0.136 HD
BRANCH   7   9
HETATM    9  C   UNL     1      27.086  41.219  51.008  1.00  0.00     0.157 C 
HETATM   10  S   UNL     1      26.245  40.059  50.150  1.00  0.00    -0.047 SA
BRANCH   9  11
HETATM   11  N   UNL     1      27.181  41.114  52.374  1.00  0.00    -0.304 N 
HETATM   12  C   UNL     1      27.915  41.871  53.270  1.00  0.00     0.257 C 
HETATM   13  O   UNL     1      28.799  41.344  53.942  1.00  0.00    -0.267 OA
HETATM   14  H   UNL     1      27.137  40.141  52.651  1.00  0.00     0.171 HD
BRANCH  12  15
HETATM   15  C   UNL     1      27.470  43.277  53.547  1.00  0.00     0.035 A 
HETATM   16  C   UNL     1      28.421  44.162  54.084  1.00  0.00     0.053 A 
HETATM   17  C   UNL     1      28.050  45.450  54.481  1.00  0.00     0.069 A 
HETATM   18  C   UNL     1      26.740  45.883  54.282  1.00  0.00     0.037 A 
HETATM   19  C   UNL     1      25.788  45.016  53.752  1.00  0.00     0.004 A 
HETATM   20  C   UNL     1      26.145  43.711  53.409  1.00  0.00     0.017 A 
BRANCH  17  21
HETATM   21  O   UNL     1      28.882  46.368  55.062  1.00  0.00    -0.356 OA
HETATM   22  C   UNL     1      29.368  46.019  56.355  1.00  0.00     0.210 C 
ENDBRANCH  17  21
ENDBRANCH  12  15
ENDBRANCH   9  11
ENDBRANCH   7   9
ENDBRANCH   4   7
BRANCH   1  23
HETATM   23  N   UNL     1      24.139  46.587  49.156  1.00  0.00    -0.378 N 
HETATM   24  C   UNL     1      24.205  47.666  50.162  1.00  0.00     0.143 C 
HETATM   25  C   UNL     1      23.517  48.928  49.615  1.00  0.00     0.146 C 
HETATM   26  N   UNL     1      22.160  48.676  49.116  1.00  0.00    -0.345 N 
HETATM   27  C   UNL     1      21.292  49.768  49.078  1.00  0.00     0.254 C 
HETATM   28  C   UNL     1      22.011  47.486  48.262  1.00  0.00     0.146 C 
HETATM   29  O   UNL     1      21.533  50.852  49.604  1.00  0.00    -0.267 OA
HETATM   30  C   UNL     1      22.750  46.240  48.795  1.00  0.00     0.143 C 
BRANCH  27  31
HETATM   31  C   UNL     1      19.987  49.613  48.402  1.00  0.00     0.038 A 
HETATM   32  C   UNL     1      18.877  49.039  49.044  1.00  0.00    -0.046 A 
HETATM   33  C   UNL     1      18.912  48.575  50.472  1.00  0.00     0.049 C 
HETATM   34  C   UNL     1      17.677  48.932  48.324  1.00  0.00     0.007 A 
HETATM   35  C   UNL     1      17.604  49.345  46.990  1.00  0.00     0.001 A 
HETATM   36  C   UNL     1      18.725  49.876  46.356  1.00  0.00     0.001 A 
HETATM   37  C   UNL     1      19.920  50.011  47.061  1.00  0.00     0.017 A 
ENDBRANCH  27  31
ENDBRANCH   1  23
TORSDOF 7
ENDMDL
MODEL 8
REMARK VINA RESULT:      -9.5      2.777     11.956
REMARK  7 active torsions:
REMARK  status: ('A' for Active; 'I' for Inactive)
REMARK    1  A    between atoms: C_3  and  C_4 
REMARK       I    between atoms: C_4  and  N_5 
REMARK    2  A    between atoms: N_8  and  C_9 
REMARK    3  A    between atoms: C_12  and  N_13 
REMARK    4  A    between atoms: N_13  and  C_14 
REMARK    5  A    between atoms: C_14  and  N_15 
REMARK       I    between atoms: N_15  and  C_16 
REMARK    6  A    between atoms: C_16  and  C_17 
REMARK    7  A    between atoms: C_19  and  O_20 
ROOT
HETATM    1  C   UNL     1      24.278  46.192  50.043  1.00  0.00     0.030 A 
HETATM    2  C   UNL     1      23.350  45.448  49.300  1.00  0.00     0.031 A 
HETATM    3  C   UNL     1      22.369  46.069  48.519  1.00  0.00     0.026 A 
HETATM    4  C   UNL     1      22.294  47.462  48.459  1.00  0.00     0.014 A 
HETATM    5  C   UNL     1      23.264  48.218  49.116  1.00  0.00     0.026 A 
HETATM    6  C   UNL     1      24.236  47.586  49.909  1.00  0.00     0.031 A 
ENDROOT
BRANCH   4   7
HETATM    7  N   UNL     1      21.157  48.037  47.810  1.00  0.00    -0.236 NA
HETATM    8  H   UNL     1      20.829  47.391  47.097  1.00  0.00     0.136 HD
BRANCH   7   9
HETATM    9  C   UNL     1      20.120  48.541  48.544  1.00  0.00     0.157 C 
HETATM   10  S   UNL     1      18.628  47.791  48.575  1.00  0.00    -0.047 SA
BRANCH   9  11
HETATM   11  N   UNL     1      20.290  49.735  49.201  1.00  0.00    -0.304 N 
HETATM   12  C   UNL     1      20.131  51.029  48.738  1.00  0.00     0.257 C 
HETATM   13  O   UNL     1      21.092  51.795  48.707  1.00  0.00    -0.267 OA
HETATM   14  H   UNL     1      21.056  49.663  49.859  1.00  0.00     0.171 HD
BRANCH  12  15
HETATM   15  C   UNL     1      18.739  51.527  48.480  1.00  0.00     0.035 A 
HETATM   16  C   UNL     1      18.014  52.017  49.582  1.00  0.00     0.053 A 
HETATM   17  C   UNL     1      16.672  52.384  49.445  1.00  0.00     0.069 A 
HETATM   18  C   UNL     1      16.066  52.326  48.190  1.00  0.00     0.037 A 
HETATM   19  C   UNL     1      16.772  51.841  47.092  1.00  0.00     0.004 A 
HETATM   20  C   UNL     1      18.094  51.421  47.241  1.00  0.00     0.017 A 
BRANCH  17  21
HETATM   21  O   UNL     1      15.865  52.821  50.460  1.00  0.00    -0.356 OA
HETATM   22  C   UNL     1      14.511  53.074  50.097  1.00  0.00     0.210 C 
ENDBRANCH  17  21
ENDBRANCH  12  15
ENDBRANCH   9  11
ENDBRANCH   7   9
ENDBRANCH   4   7
BRANCH   1  23
HETATM   23  N   UNL     1      25.136  45.517  50.914  1.00  0.00    -0.378 N 
HETATM   24  C   UNL     1      24.725  44.189  51.414  1.00  0.00     0.143 C 
HETATM   25  C   UNL     1      25.947  43.449  51.982  1.00  0.00     0.146 C 
HETATM   26  N   UNL     1      26.695  44.239  52.969  1.00  0.00    -0.345 N 
HETATM   27  C   UNL     1      27.470  43.529  53.885  1.00  0.00     0.254 C 
HETATM   28  C   UNL     1      26.955  45.639  52.591  1.00  0.00     0.146 C 
HETATM   29  O   UNL     1      27.413  42.310  54.030  1.00  0.00    -0.267 OA
HETATM   30  C   UNL     1      25.735  46.355  51.973  1.00  0.00     0.143 C 
BRANCH  27  31
HETATM   31  C   UNL     1      28.392  44.278  54.764  1.00  0.00     0.038 A 
HETATM   32  C   UNL     1      29.764  43.981  54.836  1.00  0.00    -0.046 A 
HETATM   33  C   UNL     1      30.409  42.911  54.002  1.00  0.00     0.049 C 
HETATM   34  C   UNL     1      30.563  44.746  55.699  1.00  0.00     0.007 A 
HETATM   35  C   UNL     1      30.001  45.745  56.497  1.00  0.00     0.001 A 
HETATM   36  C   UNL     1      28.632  46.002  56.444  1.00  0.00     0.001 A 
HETATM   37  C   UNL     1      27.825  45.268  55.576  1.00  0.00     0.017 A 
ENDBRANCH  27  31
ENDBRANCH   1  23
TORSDOF 7
ENDMDL
MODEL 9
REMARK VINA RESULT:      -9.4     13.493     16.923
REMARK  7 active torsions:
REMARK  status: ('A' for Active; 'I' for Inactive)
REMARK    1  A    between atoms: C_3  and  C_4 
REMARK       I    between atoms: C_4  and  N_5 
REMARK    2  A    between atoms: N_8  and  C_9 
REMARK    3  A    between atoms: C_12  and  N_13 
REMARK    4  A    between atoms: N_13  and  C_14 
REMARK    5  A    between atoms: C_14  and  N_15 
REMARK       I    between atoms: N_15  and  C_16 
REMARK    6  A    between atoms: C_16  and  C_17 
REMARK    7  A    between atoms: C_19  and  O_20 
ROOT
HETATM    1  C   UNL     1      32.859  49.497  42.062  1.00  0.00     0.030 A 
HETATM    2  C   UNL     1      31.638  49.557  42.750  1.00  0.00     0.031 A 
HETATM    3  C   UNL     1      30.504  48.875  42.293  1.00  0.00     0.026 A 
HETATM    4  C   UNL     1      30.567  48.108  41.128  1.00  0.00     0.014 A 
HETATM    5  C   UNL     1      31.793  47.962  40.481  1.00  0.00     0.026 A 
HETATM    6  C   UNL     1      32.922  48.662  40.940  1.00  0.00     0.031 A 
ENDROOT
BRANCH   4   7
HETATM    7  N   UNL     1      29.337  47.601  40.603  1.00  0.00    -0.236 NA
HETATM    8  H   UNL     1      28.905  47.004  41.305  1.00  0.00     0.136 HD
BRANCH   7   9
HETATM    9  C   UNL     1      28.424  48.444  40.034  1.00  0.00     0.157 C 
HETATM   10  S   UNL     1      26.936  48.721  40.738  1.00  0.00    -0.047 SA
BRANCH   9  11
HETATM   11  N   UNL     1      28.711  49.007  38.814  1.00  0.00    -0.304 N 
HETATM   12  C   UNL     1      28.908  50.334  38.478  1.00  0.00     0.257 C 
HETATM   13  O   UNL     1      28.148  50.890  37.689  1.00  0.00    -0.267 OA
HETATM   14  H   UNL     1      28.236  48.498  38.078  1.00  0.00     0.171 HD
BRANCH  12  15
HETATM   15  C   UNL     1      30.175  51.001  38.928  1.00  0.00     0.035 A 
HETATM   16  C   UNL     1      30.110  51.798  40.085  1.00  0.00     0.053 A 
HETATM   17  C   UNL     1      31.216  52.547  40.497  1.00  0.00     0.069 A 
HETATM   18  C   UNL     1      32.415  52.451  39.792  1.00  0.00     0.037 A 
HETATM   19  C   UNL     1      32.493  51.666  38.644  1.00  0.00     0.004 A 
HETATM   20  C   UNL     1      31.372  50.964  38.201  1.00  0.00     0.017 A 
BRANCH  17  21
HETATM   21  O   UNL     1      31.241  53.392  41.573  1.00  0.00    -0.356 OA
HETATM   22  C   UNL     1      30.397  53.024  42.659  1.00  0.00     0.210 C 
ENDBRANCH  17  21
ENDBRANCH  12  15
ENDBRANCH   9  11
ENDBRANCH   7   9
ENDBRANCH   4   7
BRANCH   1  23
HETATM   23  N   UNL     1      33.909  50.314  42.487  1.00  0.00    -0.378 N 
HETATM   24  C   UNL     1      33.584  51.525  43.268  1.00  0.00     0.143 C 
HETATM   25  C   UNL     1      34.845  52.030  43.989  1.00  0.00     0.146 C 
HETATM   26  N   UNL     1      35.994  52.204  43.091  1.00  0.00    -0.345 N 
HETATM   27  C   UNL     1      36.982  53.099  43.502  1.00  0.00     0.254 C 
HETATM   28  C   UNL     1      36.236  51.096  42.151  1.00  0.00     0.146 C 
HETATM   29  O   UNL     1      36.856  53.869  44.451  1.00  0.00    -0.267 OA
HETATM   30  C   UNL     1      34.955  50.563  41.474  1.00  0.00     0.143 C 
BRANCH  27  31
HETATM   31  C   UNL     1      38.245  53.160  42.737  1.00  0.00     0.038 A 
HETATM   32  C   UNL     1      38.379  53.942  41.577  1.00  0.00    -0.046 A 
HETATM   33  C   UNL     1      37.271  54.804  41.045  1.00  0.00     0.049 C 
HETATM   34  C   UNL     1      39.616  53.938  40.915  1.00  0.00     0.007 A 
HETATM   35  C   UNL     1      40.671  53.143  41.373  1.00  0.00     0.001 A 
HETATM   36  C   UNL     1      40.510  52.343  42.502  1.00  0.00     0.001 A 
HETATM   37  C   UNL     1      39.296  52.350  43.187  1.00  0.00     0.017 A 
ENDBRANCH  27  31
ENDBRANCH   1  23
TORSDOF 7
ENDMDL
MODEL 10
REMARK VINA RESULT:      -9.3     14.179     17.648
REMARK  7 active torsions:
REMARK  status: ('A' for Active; 'I' for Inactive)
REMARK    1  A    between atoms: C_3  and  C_4 
REMARK       I    between atoms: C_4  and  N_5 
REMARK    2  A    between atoms: N_8  and  C_9 
REMARK    3  A    between atoms: C_12  and  N_13 
REMARK    4  A    between atoms: N_13  and  C_14 
REMARK    5  A    between atoms: C_14  and  N_15 
REMARK       I    between atoms: N_15  and  C_16 
REMARK    6  A    between atoms: C_16  and  C_17 
REMARK    7  A    between atoms: C_19  and  O_20 
ROOT
HETATM    1  C   UNL     1      34.463  50.797  42.392  1.00  0.00     0.030 A 
HETATM    2  C   UNL     1      34.419  49.687  41.537  1.00  0.00     0.031 A 
HETATM    3  C   UNL     1      33.254  48.926  41.383  1.00  0.00     0.026 A 
HETATM    4  C   UNL     1      32.095  49.264  42.084  1.00  0.00     0.014 A 
HETATM    5  C   UNL     1      32.092  50.417  42.867  1.00  0.00     0.026 A 
HETATM    6  C   UNL     1      33.271  51.165  43.027  1.00  0.00     0.031 A 
ENDROOT
BRANCH   4   7
HETATM    7  N   UNL     1      31.003  48.341  42.042  1.00  0.00    -0.236 NA
HETATM    8  H   UNL     1      30.670  48.188  42.991  1.00  0.00     0.136 HD
BRANCH   7   9
HETATM    9  C   UNL     1      29.966  48.531  41.173  1.00  0.00     0.157 C 
HETATM   10  S   UNL     1      28.377  48.379  41.665  1.00  0.00    -0.047 SA
BRANCH   9  11
HETATM   11  N   UNL     1      30.244  48.771  39.849  1.00  0.00    -0.304 N 
HETATM   12  C   UNL     1      30.030  49.909  39.093  1.00  0.00     0.257 C 
HETATM   13  O   UNL     1      29.270  49.875  38.128  1.00  0.00    -0.267 OA
HETATM   14  H   UNL     1      30.103  47.927  39.307  1.00  0.00     0.171 HD
BRANCH  12  15
HETATM   15  C   UNL     1      30.897  51.107  39.350  1.00  0.00     0.035 A 
HETATM   16  C   UNL     1      32.200  51.087  38.819  1.00  0.00     0.053 A 
HETATM   17  C   UNL     1      33.106  52.109  39.117  1.00  0.00     0.069 A 
HETATM   18  C   UNL     1      32.694  53.192  39.894  1.00  0.00     0.037 A 
HETATM   19  C   UNL     1      31.407  53.224  40.425  1.00  0.00     0.004 A 
HETATM   20  C   UNL     1      30.521  52.175  40.175  1.00  0.00     0.017 A 
BRANCH  17  21
HETATM   21  O   UNL     1      34.407  52.158  38.698  1.00  0.00    -0.356 OA
HETATM   22  C   UNL     1      35.258  53.020  39.447  1.00  0.00     0.210 C 
ENDBRANCH  17  21
ENDBRANCH  12  15
ENDBRANCH   9  11
ENDBRANCH   7   9
ENDBRANCH   4   7
BRANCH   1  23
HETATM   23  N   UNL     1      35.691  51.425  42.613  1.00  0.00    -0.378 N 
HETATM   24  C   UNL     1      36.923  50.620  42.485  1.00  0.00     0.143 C 
HETATM   25  C   UNL     1      38.138  51.552  42.338  1.00  0.00     0.146 C 
HETATM   26  N   UNL     1      38.213  52.574  43.389  1.00  0.00    -0.345 N 
HETATM   27  C   UNL     1      39.473  53.115  43.649  1.00  0.00     0.254 C 
HETATM   28  C   UNL     1      36.949  53.269  43.688  1.00  0.00     0.146 C 
HETATM   29  O   UNL     1      40.520  52.659  43.196  1.00  0.00    -0.267 OA
HETATM   30  C   UNL     1      35.729  52.328  43.781  1.00  0.00     0.143 C 
BRANCH  27  31
HETATM   31  C   UNL     1      39.570  54.282  44.551  1.00  0.00     0.038 A 
HETATM   32  C   UNL     1      39.596  54.145  45.949  1.00  0.00    -0.046 A 
HETATM   33  C   UNL     1      39.566  52.810  46.637  1.00  0.00     0.049 C 
HETATM   34  C   UNL     1      39.690  55.309  46.727  1.00  0.00     0.007 A 
HETATM   35  C   UNL     1      39.712  56.571  46.127  1.00  0.00     0.001 A 
HETATM   36  C   UNL     1      39.646  56.692  44.740  1.00  0.00     0.001 A 
HETATM   37  C   UNL     1      39.575  55.547  43.949  1.00  0.00     0.017 A 
ENDBRANCH  27  31
ENDBRANCH   1  23
TORSDOF 7
ENDMDL
