MODEL 1
REMARK VINA RESULT:      -8.7      0.000      0.000
REMARK  3 active torsions:
REMARK  status: ('A' for Active; 'I' for Inactive)
REMARK    1  A    between atoms: N_7  and  C_9 
REMARK    2  A    between atoms: C_9  and  C_10 
REMARK    3  A    between atoms: C_13  and  C_14 
ROOT
HETATM    1  C   UNL     1      28.047  41.369  53.320  1.00  0.00     0.269 C 
HETATM    2  N   UNL     1      27.183  42.597  53.110  1.00  0.00    -0.074 N 
HETATM    3  H   UNL     1      26.219  42.235  53.081  1.00  0.00     0.279 HD
HETATM    4  C   UNL     1      27.507  43.292  51.809  1.00  0.00     0.245 C 
HETATM    5  C   UNL     1      26.536  44.481  51.527  1.00  0.00     0.008 C 
HETATM    6  C   UNL     1      27.069  45.215  50.256  1.00  0.00     0.246 C 
HETATM    7  N   UNL     1      26.089  46.173  49.617  1.00  0.00    -0.063 N 
HETATM    8  H   UNL     1      26.478  46.332  48.669  1.00  0.00     0.280 HD
HETATM    9  C   UNL     1      24.725  45.590  49.371  1.00  0.00     0.235 C 
HETATM   10  C   UNL     1      24.171  44.999  50.656  1.00  0.00     0.029 C 
HETATM   11  C   UNL     1      25.110  43.944  51.240  1.00  0.00     0.014 C 
HETATM   12  C   UNL     1      26.553  45.412  52.767  1.00  0.00     0.014 C 
HETATM   13  C   UNL     1      26.325  44.686  54.097  1.00  0.00     0.029 C 
HETATM   14  C   UNL     1      27.280  43.522  54.300  1.00  0.00     0.234 C 
ENDROOT
BRANCH   7  15
HETATM   15  C   UNL     1      26.066  47.618  50.146  1.00  0.00     0.323 C 
BRANCH  15  16
HETATM   16  C   UNL     1      25.071  48.469  49.448  1.00  0.00     0.199 A 
HETATM   17  O   UNL     1      25.455  49.062  48.291  1.00  0.00    -0.194 OA
HETATM   18  N   UNL     1      24.350  49.767  47.834  1.00  0.00    -0.106 NA
HETATM   19  C   UNL     1      23.408  49.557  48.770  1.00  0.00     0.189 A 
HETATM   20  N   UNL     1      23.817  48.692  49.774  1.00  0.00    -0.202 NA
BRANCH  19  21
HETATM   21  C   UNL     1      22.079  50.159  48.745  1.00  0.00     0.016 A 
HETATM   22  C   UNL     1      21.303  50.106  47.579  1.00  0.00     0.039 A 
HETATM   23  C   UNL     1      20.025  50.667  47.556  1.00  0.00     0.035 A 
HETATM   24 CL   UNL     1      19.095  50.590  46.111  1.00  0.00    -0.084 Cl
HETATM   25  C   UNL     1      19.502  51.285  48.688  1.00  0.00     0.024 A 
HETATM   26  C   UNL     1      20.263  51.343  49.854  1.00  0.00     0.003 A 
HETATM   27  C   UNL     1      21.544  50.784  49.884  1.00  0.00     0.015 A 
ENDBRANCH  19  21
ENDBRANCH  15  16
ENDBRANCH   7  15
TORSDOF 3
ENDMDL
MODEL 2
REMARK VINA RESULT:      -8.4      5.708      8.473
REMARK  3 active torsions:
REMARK  status: ('A' for Active; 'I' for Inactive)
REMARK    1  A    between atoms: N_7  and  C_9 
REMARK    2  A    between atoms: C_9  and  C_10 
REMARK    3  A    between atoms: C_13  and  C_14 
ROOT
HETATM    1  C   UNL     1      28.540  39.682  47.463  1.00  0.00     0.269 C 
HETATM    2  N   UNL     1      27.380  40.106  48.342  1.00  0.00    -0.074 N 
HETATM    3  H   UNL     1      26.540  39.870  47.795  1.00  0.00     0.279 HD
HETATM    4  C   UNL     1      27.407  41.589  48.623  1.00  0.00     0.245 C 
HETATM    5  C   UNL     1      26.147  42.053  49.419  1.00  0.00     0.008 C 
HETATM    6  C   UNL     1      26.367  43.553  49.791  1.00  0.00     0.246 C 
HETATM    7  N   UNL     1      25.127  44.283  50.256  1.00  0.00    -0.063 N 
HETATM    8  H   UNL     1      25.381  45.285  50.173  1.00  0.00     0.280 HD
HETATM    9  C   UNL     1      23.938  44.120  49.349  1.00  0.00     0.235 C 
HETATM   10  C   UNL     1      23.662  42.646  49.110  1.00  0.00     0.029 C 
HETATM   11  C   UNL     1      24.884  41.933  48.529  1.00  0.00     0.014 C 
HETATM   12  C   UNL     1      26.034  41.167  50.687  1.00  0.00     0.014 C 
HETATM   13  C   UNL     1      26.111  39.662  50.407  1.00  0.00     0.029 C 
HETATM   14  C   UNL     1      27.342  39.278  49.605  1.00  0.00     0.234 C 
ENDROOT
BRANCH   7  15
HETATM   15  C   UNL     1      24.785  44.213  51.754  1.00  0.00     0.323 C 
BRANCH  15  16
HETATM   16  C   UNL     1      25.889  44.698  52.619  1.00  0.00     0.199 A 
HETATM   17  O   UNL     1      25.993  46.036  52.811  1.00  0.00    -0.194 OA
HETATM   18  N   UNL     1      27.071  46.220  53.665  1.00  0.00    -0.106 NA
HETATM   19  C   UNL     1      27.537  44.980  53.890  1.00  0.00     0.189 A 
HETATM   20  N   UNL     1      26.773  43.991  53.287  1.00  0.00    -0.202 NA
BRANCH  19  21
HETATM   21  C   UNL     1      28.717  44.679  54.693  1.00  0.00     0.016 A 
HETATM   22  C   UNL     1      29.029  45.468  55.809  1.00  0.00     0.039 A 
HETATM   23  C   UNL     1      30.149  45.175  56.589  1.00  0.00     0.035 A 
HETATM   24 CL   UNL     1      30.511  46.161  57.951  1.00  0.00    -0.084 Cl
HETATM   25  C   UNL     1      30.971  44.097  56.273  1.00  0.00     0.024 A 
HETATM   26  C   UNL     1      30.670  43.304  55.166  1.00  0.00     0.003 A 
HETATM   27  C   UNL     1      29.550  43.593  54.380  1.00  0.00     0.015 A 
ENDBRANCH  19  21
ENDBRANCH  15  16
ENDBRANCH   7  15
TORSDOF 3
ENDMDL
MODEL 3
REMARK VINA RESULT:      -8.0      7.027      9.685
REMARK  3 active torsions:
REMARK  status: ('A' for Active; 'I' for Inactive)
REMARK    1  A    between atoms: N_7  and  C_9 
REMARK    2  A    between atoms: C_9  and  C_10 
REMARK    3  A    between atoms: C_13  and  C_14 
ROOT
HETATM    1  C   UNL     1      27.905  39.359  44.318  1.00  0.00     0.269 C 
HETATM    2  N   UNL     1      27.070  39.401  45.582  1.00  0.00    -0.074 N 
HETATM    3  H   UNL     1      26.107  39.564  45.252  1.00  0.00     0.279 HD
HETATM    4  C   UNL     1      27.495  40.525  46.496  1.00  0.00     0.245 C 
HETATM    5  C   UNL     1      26.557  40.653  47.736  1.00  0.00     0.008 C 
HETATM    6  C   UNL     1      27.189  41.726  48.679  1.00  0.00     0.246 C 
HETATM    7  N   UNL     1      26.267  42.247  49.759  1.00  0.00    -0.063 N 
HETATM    8  H   UNL     1      26.726  43.119  50.079  1.00  0.00     0.280 HD
HETATM    9  C   UNL     1      24.920  42.691  49.260  1.00  0.00     0.235 C 
HETATM   10  C   UNL     1      24.267  41.579  48.457  1.00  0.00     0.029 C 
HETATM   11  C   UNL     1      25.152  41.134  47.292  1.00  0.00     0.014 C 
HETATM   12  C   UNL     1      26.490  39.264  48.425  1.00  0.00     0.014 C 
HETATM   13  C   UNL     1      26.159  38.110  47.474  1.00  0.00     0.029 C 
HETATM   14  C   UNL     1      27.086  38.057  46.272  1.00  0.00     0.234 C 
ENDROOT
BRANCH   7  15
HETATM   15  C   UNL     1      26.217  41.464  51.083  1.00  0.00     0.323 C 
BRANCH  15  16
HETATM   16  C   UNL     1      27.330  41.814  51.999  1.00  0.00     0.199 A 
HETATM   17  O   UNL     1      28.392  40.973  52.045  1.00  0.00    -0.194 OA
HETATM   18  N   UNL     1      29.289  41.533  52.943  1.00  0.00    -0.106 NA
HETATM   19  C   UNL     1      28.677  42.648  53.378  1.00  0.00     0.189 A 
HETATM   20  N   UNL     1      27.459  42.882  52.754  1.00  0.00    -0.202 NA
BRANCH  19  21
HETATM   21  C   UNL     1      29.223  43.541  54.393  1.00  0.00     0.016 A 
HETATM   22  C   UNL     1      30.308  43.132  55.182  1.00  0.00     0.039 A 
HETATM   23  C   UNL     1      30.843  43.990  56.144  1.00  0.00     0.035 A 
HETATM   24 CL   UNL     1      32.172  43.461  57.100  1.00  0.00    -0.084 Cl
HETATM   25  C   UNL     1      30.312  45.263  56.333  1.00  0.00     0.024 A 
HETATM   26  C   UNL     1      29.235  45.682  55.554  1.00  0.00     0.003 A 
HETATM   27  C   UNL     1      28.693  44.827  54.590  1.00  0.00     0.015 A 
ENDBRANCH  19  21
ENDBRANCH  15  16
ENDBRANCH   7  15
TORSDOF 3
ENDMDL
MODEL 4
REMARK VINA RESULT:      -7.8      3.576      9.138
REMARK  3 active torsions:
REMARK  status: ('A' for Active; 'I' for Inactive)
REMARK    1  A    between atoms: N_7  and  C_9 
REMARK    2  A    between atoms: C_9  and  C_10 
REMARK    3  A    between atoms: C_13  and  C_14 
ROOT
HETATM    1  C   UNL     1      15.906  51.289  48.508  1.00  0.00     0.269 C 
HETATM    2  N   UNL     1      17.098  50.579  47.896  1.00  0.00    -0.074 N 
HETATM    3  H   UNL     1      16.694  49.770  47.403  1.00  0.00     0.279 HD
HETATM    4  C   UNL     1      18.067  50.103  48.952  1.00  0.00     0.245 C 
HETATM    5  C   UNL     1      19.229  49.261  48.338  1.00  0.00     0.008 C 
HETATM    6  C   UNL     1      20.242  48.972  49.490  1.00  0.00     0.246 C 
HETATM    7  N   UNL     1      21.253  47.888  49.192  1.00  0.00    -0.063 N 
HETATM    8  H   UNL     1      21.628  47.633  50.124  1.00  0.00     0.280 HD
HETATM    9  C   UNL     1      20.655  46.613  48.665  1.00  0.00     0.235 C 
HETATM   10  C   UNL     1      19.778  46.906  47.460  1.00  0.00     0.029 C 
HETATM   11  C   UNL     1      18.681  47.916  47.797  1.00  0.00     0.014 C 
HETATM   12  C   UNL     1      19.880  50.105  47.211  1.00  0.00     0.014 C 
HETATM   13  C   UNL     1      18.881  50.672  46.197  1.00  0.00     0.029 C 
HETATM   14  C   UNL     1      17.759  51.454  46.857  1.00  0.00     0.234 C 
ENDROOT
BRANCH   7  15
HETATM   15  C   UNL     1      22.552  48.310  48.482  1.00  0.00     0.323 C 
BRANCH  15  16
HETATM   16  C   UNL     1      23.770  47.931  49.240  1.00  0.00     0.199 A 
HETATM   17  O   UNL     1      24.692  48.898  49.468  1.00  0.00    -0.194 OA
HETATM   18  N   UNL     1      25.702  48.300  50.208  1.00  0.00    -0.106 NA
HETATM   19  C   UNL     1      25.312  47.020  50.337  1.00  0.00     0.189 A 
HETATM   20  N   UNL     1      24.064  46.771  49.784  1.00  0.00    -0.202 NA
BRANCH  19  21
HETATM   21  C   UNL     1      26.099  45.985  50.998  1.00  0.00     0.016 A 
HETATM   22  C   UNL     1      26.175  45.943  52.397  1.00  0.00     0.039 A 
HETATM   23  C   UNL     1      26.915  44.945  53.033  1.00  0.00     0.035 A 
HETATM   24 CL   UNL     1      26.994  44.919  54.752  1.00  0.00    -0.084 Cl
HETATM   25  C   UNL     1      27.584  43.976  52.291  1.00  0.00     0.024 A 
HETATM   26  C   UNL     1      27.514  44.006  50.899  1.00  0.00     0.003 A 
HETATM   27  C   UNL     1      26.777  45.004  50.255  1.00  0.00     0.015 A 
ENDBRANCH  19  21
ENDBRANCH  15  16
ENDBRANCH   7  15
TORSDOF 3
ENDMDL
MODEL 5
REMARK VINA RESULT:      -7.8      4.571      8.748
REMARK  3 active torsions:
REMARK  status: ('A' for Active; 'I' for Inactive)
REMARK    1  A    between atoms: N_7  and  C_9 
REMARK    2  A    between atoms: C_9  and  C_10 
REMARK    3  A    between atoms: C_13  and  C_14 
ROOT
HETATM    1  C   UNL     1      17.711  46.129  47.906  1.00  0.00     0.269 C 
HETATM    2  N   UNL     1      19.208  46.141  47.670  1.00  0.00    -0.074 N 
HETATM    3  H   UNL     1      19.325  45.755  46.721  1.00  0.00     0.279 HD
HETATM    4  C   UNL     1      19.937  45.273  48.667  1.00  0.00     0.245 C 
HETATM    5  C   UNL     1      21.463  45.179  48.351  1.00  0.00     0.008 C 
HETATM    6  C   UNL     1      22.128  44.404  49.532  1.00  0.00     0.246 C 
HETATM    7  N   UNL     1      23.529  43.905  49.258  1.00  0.00    -0.063 N 
HETATM    8  H   UNL     1      23.689  43.193  49.994  1.00  0.00     0.280 HD
HETATM    9  C   UNL     1      23.674  43.150  47.966  1.00  0.00     0.235 C 
HETATM   10  C   UNL     1      23.141  43.982  46.812  1.00  0.00     0.029 C 
HETATM   11  C   UNL     1      21.684  44.387  47.038  1.00  0.00     0.014 C 
HETATM   12  C   UNL     1      22.014  46.625  48.242  1.00  0.00     0.014 C 
HETATM   13  C   UNL     1      21.210  47.532  47.306  1.00  0.00     0.029 C 
HETATM   14  C   UNL     1      19.729  47.558  47.646  1.00  0.00     0.234 C 
ENDROOT
BRANCH   7  15
HETATM   15  C   UNL     1      24.692  44.868  49.553  1.00  0.00     0.323 C 
BRANCH  15  16
HETATM   16  C   UNL     1      25.200  44.746  50.942  1.00  0.00     0.199 A 
HETATM   17  O   UNL     1      24.430  44.077  51.834  1.00  0.00    -0.194 OA
HETATM   18  N   UNL     1      25.134  44.082  53.031  1.00  0.00    -0.106 NA
HETATM   19  C   UNL     1      26.252  44.776  52.759  1.00  0.00     0.189 A 
HETATM   20  N   UNL     1      26.349  45.159  51.429  1.00  0.00    -0.202 NA
BRANCH  19  21
HETATM   21  C   UNL     1      27.279  45.096  53.745  1.00  0.00     0.016 A 
HETATM   22  C   UNL     1      28.280  44.162  54.047  1.00  0.00     0.039 A 
HETATM   23  C   UNL     1      29.273  44.470  54.979  1.00  0.00     0.035 A 
HETATM   24 CL   UNL     1      30.488  43.305  55.333  1.00  0.00    -0.084 Cl
HETATM   25  C   UNL     1      29.287  45.706  55.618  1.00  0.00     0.024 A 
HETATM   26  C   UNL     1      28.298  46.643  55.325  1.00  0.00     0.003 A 
HETATM   27  C   UNL     1      27.299  46.341  54.394  1.00  0.00     0.015 A 
ENDBRANCH  19  21
ENDBRANCH  15  16
ENDBRANCH   7  15
TORSDOF 3
ENDMDL
MODEL 6
REMARK VINA RESULT:      -7.7      3.480      9.007
REMARK  3 active torsions:
REMARK  status: ('A' for Active; 'I' for Inactive)
REMARK    1  A    between atoms: N_7  and  C_9 
REMARK    2  A    between atoms: C_9  and  C_10 
REMARK    3  A    between atoms: C_13  and  C_14 
ROOT
HETATM    1  C   UNL     1      17.511  50.281  46.891  1.00  0.00     0.269 C 
HETATM    2  N   UNL     1      18.717  50.409  47.801  1.00  0.00    -0.074 N 
HETATM    3  H   UNL     1      19.065  51.365  47.637  1.00  0.00     0.279 HD
HETATM    4  C   UNL     1      19.790  49.406  47.449  1.00  0.00     0.245 C 
HETATM    5  C   UNL     1      21.084  49.618  48.296  1.00  0.00     0.008 C 
HETATM    6  C   UNL     1      22.045  48.433  47.966  1.00  0.00     0.246 C 
HETATM    7  N   UNL     1      23.477  48.631  48.412  1.00  0.00    -0.063 N 
HETATM    8  H   UNL     1      24.006  47.922  47.872  1.00  0.00     0.280 HD
HETATM    9  C   UNL     1      24.077  49.946  47.996  1.00  0.00     0.235 C 
HETATM   10  C   UNL     1      23.187  51.092  48.446  1.00  0.00     0.029 C 
HETATM   11  C   UNL     1      21.767  50.950  47.897  1.00  0.00     0.014 C 
HETATM   12  C   UNL     1      20.675  49.615  49.793  1.00  0.00     0.014 C 
HETATM   13  C   UNL     1      19.517  50.560  50.127  1.00  0.00     0.029 C 
HETATM   14  C   UNL     1      18.299  50.325  49.249  1.00  0.00     0.234 C 
ENDROOT
BRANCH   7  15
HETATM   15  C   UNL     1      23.836  48.206  49.846  1.00  0.00     0.323 C 
BRANCH  15  16
HETATM   16  C   UNL     1      24.887  47.160  49.889  1.00  0.00     0.199 A 
HETATM   17  O   UNL     1      26.045  47.408  49.230  1.00  0.00    -0.194 OA
HETATM   18  N   UNL     1      26.856  46.302  49.447  1.00  0.00    -0.106 NA
HETATM   19  C   UNL     1      26.104  45.476  50.195  1.00  0.00     0.189 A 
HETATM   20  N   UNL     1      24.874  46.017  50.539  1.00  0.00    -0.202 NA
BRANCH  19  21
HETATM   21  C   UNL     1      26.524  44.146  50.622  1.00  0.00     0.016 A 
HETATM   22  C   UNL     1      27.700  43.984  51.368  1.00  0.00     0.039 A 
HETATM   23  C   UNL     1      28.096  42.714  51.792  1.00  0.00     0.035 A 
HETATM   24 CL   UNL     1      29.545  42.544  52.704  1.00  0.00    -0.084 Cl
HETATM   25  C   UNL     1      27.333  41.593  51.483  1.00  0.00     0.024 A 
HETATM   26  C   UNL     1      26.161  41.741  50.743  1.00  0.00     0.003 A 
HETATM   27  C   UNL     1      25.758  43.009  50.314  1.00  0.00     0.015 A 
ENDBRANCH  19  21
ENDBRANCH  15  16
ENDBRANCH   7  15
TORSDOF 3
ENDMDL
MODEL 7
REMARK VINA RESULT:      -7.7      7.788     10.204
REMARK  3 active torsions:
REMARK  status: ('A' for Active; 'I' for Inactive)
REMARK    1  A    between atoms: N_7  and  C_9 
REMARK    2  A    between atoms: C_9  and  C_10 
REMARK    3  A    between atoms: C_13  and  C_14 
ROOT
HETATM    1  C   UNL     1      28.622  35.452  44.582  1.00  0.00     0.269 C 
HETATM    2  N   UNL     1      27.948  36.340  45.609  1.00  0.00    -0.074 N 
HETATM    3  H   UNL     1      27.458  37.056  45.053  1.00  0.00     0.279 HD
HETATM    4  C   UNL     1      28.954  37.001  46.521  1.00  0.00     0.245 C 
HETATM    5  C   UNL     1      28.278  38.015  47.496  1.00  0.00     0.008 C 
HETATM    6  C   UNL     1      29.381  38.502  48.488  1.00  0.00     0.246 C 
HETATM    7  N   UNL     1      29.021  39.735  49.285  1.00  0.00    -0.063 N 
HETATM    8  H   UNL     1      29.932  40.074  49.646  1.00  0.00     0.280 HD
HETATM    9  C   UNL     1      28.498  40.876  48.456  1.00  0.00     0.235 C 
HETATM   10  C   UNL     1      27.336  40.407  47.597  1.00  0.00     0.029 C 
HETATM   11  C   UNL     1      27.736  39.232  46.704  1.00  0.00     0.014 C 
HETATM   12  C   UNL     1      27.139  37.268  48.239  1.00  0.00     0.014 C 
HETATM   13  C   UNL     1      26.178  36.513  47.315  1.00  0.00     0.029 C 
HETATM   14  C   UNL     1      26.898  35.567  46.371  1.00  0.00     0.234 C 
ENDROOT
BRANCH   7  15
HETATM   15  C   UNL     1      28.265  39.526  50.609  1.00  0.00     0.323 C 
BRANCH  15  16
HETATM   16  C   UNL     1      28.110  40.780  51.386  1.00  0.00     0.199 A 
HETATM   17  O   UNL     1      27.073  41.592  51.065  1.00  0.00    -0.194 OA
HETATM   18  N   UNL     1      27.136  42.664  51.944  1.00  0.00    -0.106 NA
HETATM   19  C   UNL     1      28.220  42.415  52.699  1.00  0.00     0.189 A 
HETATM   20  N   UNL     1      28.823  41.200  52.407  1.00  0.00    -0.202 NA
BRANCH  19  21
HETATM   21  C   UNL     1      28.722  43.312  53.734  1.00  0.00     0.016 A 
HETATM   22  C   UNL     1      29.777  42.908  54.565  1.00  0.00     0.039 A 
HETATM   23  C   UNL     1      30.270  43.769  55.546  1.00  0.00     0.035 A 
HETATM   24 CL   UNL     1      31.563  43.247  56.555  1.00  0.00    -0.084 Cl
HETATM   25  C   UNL     1      29.727  45.040  55.714  1.00  0.00     0.024 A 
HETATM   26  C   UNL     1      28.680  45.453  54.893  1.00  0.00     0.003 A 
HETATM   27  C   UNL     1      28.179  44.596  53.909  1.00  0.00     0.015 A 
ENDBRANCH  19  21
ENDBRANCH  15  16
ENDBRANCH   7  15
TORSDOF 3
ENDMDL
MODEL 8
REMARK VINA RESULT:      -7.6     19.617     22.196
REMARK  3 active torsions:
REMARK  status: ('A' for Active; 'I' for Inactive)
REMARK    1  A    between atoms: N_7  and  C_9 
REMARK    2  A    between atoms: C_9  and  C_10 
REMARK    3  A    between atoms: C_13  and  C_14 
ROOT
HETATM    1  C   UNL     1      42.021  47.837  68.365  1.00  0.00     0.269 C 
HETATM    2  N   UNL     1      41.231  47.779  67.073  1.00  0.00    -0.074 N 
HETATM    3  H   UNL     1      41.066  48.765  66.824  1.00  0.00     0.279 HD
HETATM    4  C   UNL     1      39.910  47.070  67.257  1.00  0.00     0.245 C 
HETATM    5  C   UNL     1      39.038  47.121  65.963  1.00  0.00     0.008 C 
HETATM    6  C   UNL     1      37.787  46.222  66.220  1.00  0.00     0.246 C 
HETATM    7  N   UNL     1      36.655  46.410  65.235  1.00  0.00    -0.063 N 
HETATM    8  H   UNL     1      35.838  45.982  65.708  1.00  0.00     0.280 HD
HETATM    9  C   UNL     1      36.256  47.843  65.017  1.00  0.00     0.235 C 
HETATM   10  C   UNL     1      37.471  48.671  64.637  1.00  0.00     0.029 C 
HETATM   11  C   UNL     1      38.571  48.574  65.695  1.00  0.00     0.014 C 
HETATM   12  C   UNL     1      39.896  46.574  64.792  1.00  0.00     0.014 C 
HETATM   13  C   UNL     1      41.277  47.225  64.672  1.00  0.00     0.029 C 
HETATM   14  C   UNL     1      42.064  47.171  65.970  1.00  0.00     0.234 C 
ENDROOT
BRANCH   7  15
HETATM   15  C   UNL     1      36.694  45.569  63.947  1.00  0.00     0.323 C 
BRANCH  15  16
HETATM   16  C   UNL     1      36.995  44.139  64.203  1.00  0.00     0.199 A 
HETATM   17  O   UNL     1      36.240  43.496  65.128  1.00  0.00    -0.194 OA
HETATM   18  N   UNL     1      36.699  42.186  65.156  1.00  0.00    -0.106 NA
HETATM   19  C   UNL     1      37.706  42.164  64.266  1.00  0.00     0.189 A 
HETATM   20  N   UNL     1      37.878  43.371  63.604  1.00  0.00    -0.202 NA
BRANCH  19  21
HETATM   21  C   UNL     1      38.538  40.996  63.998  1.00  0.00     0.016 A 
HETATM   22  C   UNL     1      38.915  40.144  65.045  1.00  0.00     0.039 A 
HETATM   23  C   UNL     1      39.699  39.018  64.790  1.00  0.00     0.035 A 
HETATM   24 CL   UNL     1      40.150  37.991  66.095  1.00  0.00    -0.084 Cl
HETATM   25  C   UNL     1      40.116  38.722  63.496  1.00  0.00     0.024 A 
HETATM   26  C   UNL     1      39.747  39.560  62.446  1.00  0.00     0.003 A 
HETATM   27  C   UNL     1      38.963  40.691  62.694  1.00  0.00     0.015 A 
ENDBRANCH  19  21
ENDBRANCH  15  16
ENDBRANCH   7  15
TORSDOF 3
ENDMDL
MODEL 9
REMARK VINA RESULT:      -7.5     11.524     13.666
REMARK  3 active torsions:
REMARK  status: ('A' for Active; 'I' for Inactive)
REMARK    1  A    between atoms: N_7  and  C_9 
REMARK    2  A    between atoms: C_9  and  C_10 
REMARK    3  A    between atoms: C_13  and  C_14 
ROOT
HETATM    1  C   UNL     1      34.858  51.632  42.878  1.00  0.00     0.269 C 
HETATM    2  N   UNL     1      33.854  51.934  41.783  1.00  0.00    -0.074 N 
HETATM    3  H   UNL     1      33.765  52.961  41.788  1.00  0.00     0.279 HD
HETATM    4  C   UNL     1      32.511  51.304  42.068  1.00  0.00     0.245 C 
HETATM    5  C   UNL     1      31.439  51.717  41.013  1.00  0.00     0.008 C 
HETATM    6  C   UNL     1      30.155  50.881  41.313  1.00  0.00     0.246 C 
HETATM    7  N   UNL     1      28.899  51.376  40.632  1.00  0.00    -0.063 N 
HETATM    8  H   UNL     1      28.133  50.913  41.155  1.00  0.00     0.280 HD
HETATM    9  C   UNL     1      28.639  52.846  40.807  1.00  0.00     0.235 C 
HETATM   10  C   UNL     1      29.858  53.646  40.381  1.00  0.00     0.029 C 
HETATM   11  C   UNL     1      31.106  53.224  41.157  1.00  0.00     0.014 C 
HETATM   12  C   UNL     1      32.009  51.393  39.607  1.00  0.00     0.014 C 
HETATM   13  C   UNL     1      33.415  51.949  39.359  1.00  0.00     0.029 C 
HETATM   14  C   UNL     1      34.405  51.537  40.435  1.00  0.00     0.234 C 
ENDROOT
BRANCH   7  15
HETATM   15  C   UNL     1      28.613  50.855  39.213  1.00  0.00     0.323 C 
BRANCH  15  16
HETATM   16  C   UNL     1      28.925  49.413  39.056  1.00  0.00     0.199 A 
HETATM   17  O   UNL     1      30.020  49.085  38.326  1.00  0.00    -0.194 OA
HETATM   18  N   UNL     1      30.102  47.700  38.357  1.00  0.00    -0.106 NA
HETATM   19  C   UNL     1      29.036  47.316  39.080  1.00  0.00     0.189 A 
HETATM   20  N   UNL     1      28.305  48.382  39.585  1.00  0.00    -0.202 NA
BRANCH  19  21
HETATM   21  C   UNL     1      28.672  45.926  39.331  1.00  0.00     0.016 A 
HETATM   22  C   UNL     1      29.209  44.903  38.537  1.00  0.00     0.039 A 
HETATM   23  C   UNL     1      28.874  43.570  38.784  1.00  0.00     0.035 A 
HETATM   24 CL   UNL     1      29.545  42.335  37.791  1.00  0.00    -0.084 Cl
HETATM   25  C   UNL     1      28.008  43.236  39.820  1.00  0.00     0.024 A 
HETATM   26  C   UNL     1      27.470  44.244  40.618  1.00  0.00     0.003 A 
HETATM   27  C   UNL     1      27.799  45.581  40.376  1.00  0.00     0.015 A 
ENDBRANCH  19  21
ENDBRANCH  15  16
ENDBRANCH   7  15
TORSDOF 3
ENDMDL
MODEL 10
REMARK VINA RESULT:      -7.5     12.804     15.338
REMARK  3 active torsions:
REMARK  status: ('A' for Active; 'I' for Inactive)
REMARK    1  A    between atoms: N_7  and  C_9 
REMARK    2  A    between atoms: C_9  and  C_10 
REMARK    3  A    between atoms: C_13  and  C_14 
ROOT
HETATM    1  C   UNL     1      27.578  52.478  41.333  1.00  0.00     0.269 C 
HETATM    2  N   UNL     1      28.806  51.828  40.727  1.00  0.00    -0.074 N 
HETATM    3  H   UNL     1      28.470  50.922  40.367  1.00  0.00     0.279 HD
HETATM    4  C   UNL     1      29.883  51.599  41.760  1.00  0.00     0.245 C 
HETATM    5  C   UNL     1      31.097  50.814  41.171  1.00  0.00     0.008 C 
HETATM    6  C   UNL     1      32.203  50.788  42.272  1.00  0.00     0.246 C 
HETATM    7  N   UNL     1      33.314  49.789  42.036  1.00  0.00    -0.063 N 
HETATM    8  H   UNL     1      33.770  49.699  42.962  1.00  0.00     0.280 HD
HETATM    9  C   UNL     1      32.837  48.399  41.714  1.00  0.00     0.235 C 
HETATM   10  C   UNL     1      31.863  48.438  40.550  1.00  0.00     0.029 C 
HETATM   11  C   UNL     1      30.678  49.360  40.839  1.00  0.00     0.014 C 
HETATM   12  C   UNL     1      31.579  51.569  39.904  1.00  0.00     0.014 C 
HETATM   13  C   UNL     1      30.463  51.889  38.904  1.00  0.00     0.029 C 
HETATM   14  C   UNL     1      29.298  52.626  39.543  1.00  0.00     0.234 C 
ENDROOT
BRANCH   7  15
HETATM   15  C   UNL     1      34.511  50.251  41.187  1.00  0.00     0.323 C 
BRANCH  15  16
HETATM   16  C   UNL     1      35.573  50.899  41.996  1.00  0.00     0.199 A 
HETATM   17  O   UNL     1      36.600  50.122  42.418  1.00  0.00    -0.194 OA
HETATM   18  N   UNL     1      37.455  50.961  43.118  1.00  0.00    -0.106 NA
HETATM   19  C   UNL     1      36.855  52.162  43.078  1.00  0.00     0.189 A 
HETATM   20  N   UNL     1      35.689  52.166  42.324  1.00  0.00    -0.202 NA
BRANCH  19  21
HETATM   21  C   UNL     1      37.364  53.357  43.741  1.00  0.00     0.016 A 
HETATM   22  C   UNL     1      37.528  53.374  45.134  1.00  0.00     0.039 A 
HETATM   23  C   UNL     1      38.030  54.510  45.771  1.00  0.00     0.035 A 
HETATM   24 CL   UNL     1      38.218  54.504  47.481  1.00  0.00    -0.084 Cl
HETATM   25  C   UNL     1      38.375  55.641  45.036  1.00  0.00     0.024 A 
HETATM   26  C   UNL     1      38.218  55.636  43.652  1.00  0.00     0.003 A 
HETATM   27  C   UNL     1      37.715  54.502  43.007  1.00  0.00     0.015 A 
ENDBRANCH  19  21
ENDBRANCH  15  16
ENDBRANCH   7  15
TORSDOF 3
ENDMDL
