MODEL 1
REMARK VINA RESULT:     -10.3      0.000      0.000
REMARK  6 active torsions:
REMARK  status: ('A' for Active; 'I' for Inactive)
REMARK    1  A    between atoms: C_2  and  O_3 
REMARK    2  A    between atoms: O_3  and  C_4 
REMARK    3  A    between atoms: C_5  and  O_6 
REMARK    4  A    between atoms: O_6  and  C_7 
REMARK    5  A    between atoms: C_7  and  C_8 
REMARK    6  A    between atoms: C_16  and  C_17 
ROOT
HETATM    1  C   UNL     1      26.553  46.082  53.314  1.00  0.00     0.102 A 
HETATM    2  C   UNL     1      27.237  44.897  53.013  1.00  0.00     0.102 A 
HETATM    3  C   UNL     1      27.298  44.460  51.687  1.00  0.00     0.040 A 
HETATM    4  C   UNL     1      26.719  45.222  50.665  1.00  0.00     0.014 A 
HETATM    5  C   UNL     1      26.064  46.428  50.953  1.00  0.00    -0.007 A 
HETATM    6  C   UNL     1      26.002  46.856  52.289  1.00  0.00     0.051 A 
ENDROOT
BRANCH   5   7
HETATM    7  C   UNL     1      25.487  47.280  49.842  1.00  0.00     0.264 C 
HETATM    8  O   UNL     1      24.202  47.777  50.243  1.00  0.00    -0.321 OA
HETATM    9  C   UNL     1      23.707  48.741  49.406  1.00  0.00     0.087 A 
HETATM   10  C   UNL     1      24.524  49.535  48.602  1.00  0.00     0.065 A 
HETATM   11  C   UNL     1      22.329  48.946  49.413  1.00  0.00     0.038 A 
HETATM   12  C   UNL     1      25.982  49.352  48.690  1.00  0.00     0.256 C 
HETATM   13  C   UNL     1      23.971  50.521  47.782  1.00  0.00     0.020 A 
HETATM   14  O   UNL     1      26.774  50.052  48.077  1.00  0.00    -0.267 OA
HETATM   15  N   UNL     1      26.388  48.352  49.528  1.00  0.00    -0.326 N 
HETATM   16  H   UNL     1      27.382  48.166  49.513  1.00  0.00     0.165 HD
HETATM   17  C   UNL     1      22.589  50.713  47.775  1.00  0.00     0.001 A 
HETATM   18  C   UNL     1      21.770  49.929  48.593  1.00  0.00     0.003 A 
ENDBRANCH   5   7
BRANCH   1  19
HETATM   19  O   UNL     1      26.535  46.516  54.615  1.00  0.00    -0.349 OA
BRANCH  19  20
HETATM   20  C   UNL     1      27.229  47.750  54.821  1.00  0.00     0.171 C 
HETATM   21  C   UNL     1      26.403  48.634  55.737  1.00  0.00     0.034 C 
ENDBRANCH  19  20
ENDBRANCH   1  19
BRANCH   2  22
HETATM   22  O   UNL     1      27.766  44.201  54.069  1.00  0.00    -0.344 OA
BRANCH  22  23
HETATM   23  C   UNL     1      29.132  43.813  53.927  1.00  0.00     0.214 C 
BRANCH  23  24
HETATM   24  C   UNL     1      29.861  44.080  55.223  1.00  0.00    -0.034 A 
HETATM   25  C   UNL     1      29.597  45.237  55.969  1.00  0.00     0.009 A 
HETATM   26  C   UNL     1      30.249  45.461  57.185  1.00  0.00     0.001 A 
HETATM   27  C   UNL     1      31.164  44.527  57.669  1.00  0.00     0.000 A 
HETATM   28  C   UNL     1      31.429  43.370  56.940  1.00  0.00     0.001 A 
HETATM   29  C   UNL     1      30.780  43.146  55.725  1.00  0.00     0.009 A 
ENDBRANCH  23  24
ENDBRANCH  22  23
ENDBRANCH   2  22
TORSDOF 6
ENDMDL
MODEL 2
REMARK VINA RESULT:      -9.5      0.948      2.497
REMARK  6 active torsions:
REMARK  status: ('A' for Active; 'I' for Inactive)
REMARK    1  A    between atoms: C_2  and  O_3 
REMARK    2  A    between atoms: O_3  and  C_4 
REMARK    3  A    between atoms: C_5  and  O_6 
REMARK    4  A    between atoms: O_6  and  C_7 
REMARK    5  A    between atoms: C_7  and  C_8 
REMARK    6  A    between atoms: C_16  and  C_17 
ROOT
HETATM    1  C   UNL     1      27.029  44.528  51.872  1.00  0.00     0.102 A 
HETATM    2  C   UNL     1      27.131  45.094  53.149  1.00  0.00     0.102 A 
HETATM    3  C   UNL     1      26.746  46.423  53.342  1.00  0.00     0.040 A 
HETATM    4  C   UNL     1      26.222  47.169  52.279  1.00  0.00     0.014 A 
HETATM    5  C   UNL     1      26.083  46.599  51.005  1.00  0.00    -0.007 A 
HETATM    6  C   UNL     1      26.478  45.265  50.819  1.00  0.00     0.051 A 
ENDROOT
BRANCH   5   7
HETATM    7  C   UNL     1      25.465  47.386  49.868  1.00  0.00     0.264 C 
HETATM    8  O   UNL     1      24.172  47.862  50.269  1.00  0.00    -0.321 OA
HETATM    9  C   UNL     1      23.636  48.774  49.400  1.00  0.00     0.087 A 
HETATM   10  C   UNL     1      24.416  49.558  48.551  1.00  0.00     0.065 A 
HETATM   11  C   UNL     1      22.252  48.938  49.420  1.00  0.00     0.038 A 
HETATM   12  C   UNL     1      25.880  49.421  48.623  1.00  0.00     0.256 C 
HETATM   13  C   UNL     1      23.821  50.491  47.699  1.00  0.00     0.020 A 
HETATM   14  O   UNL     1      26.642  50.118  47.969  1.00  0.00    -0.267 OA
HETATM   15  N   UNL     1      26.328  48.470  49.495  1.00  0.00    -0.326 N 
HETATM   16  H   UNL     1      27.327  48.313  49.472  1.00  0.00     0.165 HD
HETATM   17  C   UNL     1      22.435  50.641  47.706  1.00  0.00     0.001 A 
HETATM   18  C   UNL     1      21.652  49.869  48.568  1.00  0.00     0.003 A 
ENDBRANCH   5   7
BRANCH   1  19
HETATM   19  O   UNL     1      27.375  43.212  51.709  1.00  0.00    -0.349 OA
BRANCH  19  20
HETATM   20  C   UNL     1      27.030  42.680  50.426  1.00  0.00     0.171 C 
HETATM   21  C   UNL     1      27.713  41.335  50.250  1.00  0.00     0.034 C 
ENDBRANCH  19  20
ENDBRANCH   1  19
BRANCH   2  22
HETATM   22  O   UNL     1      27.664  44.305  54.135  1.00  0.00    -0.344 OA
BRANCH  22  23
HETATM   23  C   UNL     1      29.059  44.025  54.012  1.00  0.00     0.214 C 
BRANCH  23  24
HETATM   24  C   UNL     1      29.742  44.322  55.327  1.00  0.00    -0.034 A 
HETATM   25  C   UNL     1      29.360  45.428  56.100  1.00  0.00     0.009 A 
HETATM   26  C   UNL     1      29.971  45.677  57.331  1.00  0.00     0.001 A 
HETATM   27  C   UNL     1      30.963  44.820  57.805  1.00  0.00     0.000 A 
HETATM   28  C   UNL     1      31.346  43.715  57.049  1.00  0.00     0.001 A 
HETATM   29  C   UNL     1      30.738  43.465  55.819  1.00  0.00     0.009 A 
ENDBRANCH  23  24
ENDBRANCH  22  23
ENDBRANCH   2  22
TORSDOF 6
ENDMDL
MODEL 3
REMARK VINA RESULT:      -9.5      1.538      2.906
REMARK  6 active torsions:
REMARK  status: ('A' for Active; 'I' for Inactive)
REMARK    1  A    between atoms: C_2  and  O_3 
REMARK    2  A    between atoms: O_3  and  C_4 
REMARK    3  A    between atoms: C_5  and  O_6 
REMARK    4  A    between atoms: O_6  and  C_7 
REMARK    5  A    between atoms: C_7  and  C_8 
REMARK    6  A    between atoms: C_16  and  C_17 
ROOT
HETATM    1  C   UNL     1      26.822  44.438  50.355  1.00  0.00     0.102 A 
HETATM    2  C   UNL     1      26.890  44.624  51.741  1.00  0.00     0.102 A 
HETATM    3  C   UNL     1      26.353  45.785  52.304  1.00  0.00     0.040 A 
HETATM    4  C   UNL     1      25.715  46.732  51.494  1.00  0.00     0.014 A 
HETATM    5  C   UNL     1      25.611  46.537  50.109  1.00  0.00    -0.007 A 
HETATM    6  C   UNL     1      26.159  45.370  49.552  1.00  0.00     0.051 A 
ENDROOT
BRANCH   5   7
HETATM    7  C   UNL     1      24.872  47.533  49.240  1.00  0.00     0.264 C 
HETATM    8  O   UNL     1      23.716  48.010  49.943  1.00  0.00    -0.321 OA
HETATM    9  C   UNL     1      23.115  49.081  49.338  1.00  0.00     0.087 A 
HETATM   10  C   UNL     1      23.798  49.947  48.484  1.00  0.00     0.065 A 
HETATM   11  C   UNL     1      21.777  49.318  49.642  1.00  0.00     0.038 A 
HETATM   12  C   UNL     1      25.234  49.717  48.258  1.00  0.00     0.256 C 
HETATM   13  C   UNL     1      23.145  51.039  47.908  1.00  0.00     0.020 A 
HETATM   14  O   UNL     1      25.926  50.466  47.584  1.00  0.00    -0.267 OA
HETATM   15  N   UNL     1      25.746  48.612  48.878  1.00  0.00    -0.326 N 
HETATM   16  H   UNL     1      26.707  48.404  48.644  1.00  0.00     0.165 HD
HETATM   17  C   UNL     1      21.799  51.265  48.199  1.00  0.00     0.001 A 
HETATM   18  C   UNL     1      21.117  50.409  49.067  1.00  0.00     0.003 A 
ENDBRANCH   5   7
BRANCH   1  19
HETATM   19  O   UNL     1      27.320  43.276  49.824  1.00  0.00    -0.349 OA
BRANCH  19  20
HETATM   20  C   UNL     1      26.333  42.468  49.177  1.00  0.00     0.171 C 
HETATM   21  C   UNL     1      25.785  41.463  50.175  1.00  0.00     0.034 C 
ENDBRANCH  19  20
ENDBRANCH   1  19
BRANCH   2  22
HETATM   22  O   UNL     1      27.541  43.659  52.465  1.00  0.00    -0.344 OA
BRANCH  22  23
HETATM   23  C   UNL     1      27.272  43.655  53.867  1.00  0.00     0.214 C 
BRANCH  23  24
HETATM   24  C   UNL     1      28.544  43.978  54.617  1.00  0.00    -0.034 A 
HETATM   25  C   UNL     1      28.687  45.196  55.296  1.00  0.00     0.009 A 
HETATM   26  C   UNL     1      29.852  45.473  56.016  1.00  0.00     0.001 A 
HETATM   27  C   UNL     1      30.880  44.533  56.071  1.00  0.00     0.000 A 
HETATM   28  C   UNL     1      30.746  43.316  55.406  1.00  0.00     0.001 A 
HETATM   29  C   UNL     1      29.584  43.038  54.685  1.00  0.00     0.009 A 
ENDBRANCH  23  24
ENDBRANCH  22  23
ENDBRANCH   2  22
TORSDOF 6
ENDMDL
MODEL 4
REMARK VINA RESULT:      -9.5      1.889      9.111
REMARK  6 active torsions:
REMARK  status: ('A' for Active; 'I' for Inactive)
REMARK    1  A    between atoms: C_2  and  O_3 
REMARK    2  A    between atoms: O_3  and  C_4 
REMARK    3  A    between atoms: C_5  and  O_6 
REMARK    4  A    between atoms: O_6  and  C_7 
REMARK    5  A    between atoms: C_7  and  C_8 
REMARK    6  A    between atoms: C_16  and  C_17 
ROOT
HETATM    1  C   UNL     1      24.966  47.438  50.077  1.00  0.00     0.102 A 
HETATM    2  C   UNL     1      23.940  46.682  49.496  1.00  0.00     0.102 A 
HETATM    3  C   UNL     1      23.759  45.354  49.893  1.00  0.00     0.040 A 
HETATM    4  C   UNL     1      24.568  44.799  50.892  1.00  0.00     0.014 A 
HETATM    5  C   UNL     1      25.574  45.560  51.504  1.00  0.00    -0.007 A 
HETATM    6  C   UNL     1      25.752  46.891  51.095  1.00  0.00     0.051 A 
ENDROOT
BRANCH   5   7
HETATM    7  C   UNL     1      26.411  44.978  52.623  1.00  0.00     0.264 C 
HETATM    8  O   UNL     1      27.580  44.356  52.069  1.00  0.00    -0.321 OA
HETATM    9  C   UNL     1      28.509  44.007  53.012  1.00  0.00     0.087 A 
HETATM   10  C   UNL     1      28.596  44.634  54.255  1.00  0.00     0.065 A 
HETATM   11  C   UNL     1      29.423  43.012  52.671  1.00  0.00     0.038 A 
HETATM   12  C   UNL     1      27.672  45.744  54.544  1.00  0.00     0.256 C 
HETATM   13  C   UNL     1      29.578  44.257  55.173  1.00  0.00     0.020 A 
HETATM   14  O   UNL     1      27.725  46.395  55.576  1.00  0.00    -0.267 OA
HETATM   15  N   UNL     1      26.761  46.007  53.560  1.00  0.00    -0.326 N 
HETATM   16  H   UNL     1      26.069  46.703  53.801  1.00  0.00     0.165 HD
HETATM   17  C   UNL     1      30.480  43.247  54.838  1.00  0.00     0.001 A 
HETATM   18  C   UNL     1      30.406  42.629  53.587  1.00  0.00     0.003 A 
ENDBRANCH   5   7
BRANCH   1  19
HETATM   19  O   UNL     1      25.106  48.750  49.704  1.00  0.00    -0.349 OA
BRANCH  19  20
HETATM   20  C   UNL     1      26.292  49.012  48.949  1.00  0.00     0.171 C 
HETATM   21  C   UNL     1      25.990  50.074  47.907  1.00  0.00     0.034 C 
ENDBRANCH  19  20
ENDBRANCH   1  19
BRANCH   2  22
HETATM   22  O   UNL     1      23.200  47.291  48.517  1.00  0.00    -0.344 OA
BRANCH  22  23
HETATM   23  C   UNL     1      21.789  47.310  48.735  1.00  0.00     0.214 C 
BRANCH  23  24
HETATM   24  C   UNL     1      21.329  48.743  48.879  1.00  0.00    -0.034 A 
HETATM   25  C   UNL     1      22.079  49.795  48.335  1.00  0.00     0.009 A 
HETATM   26  C   UNL     1      21.630  51.114  48.441  1.00  0.00     0.001 A 
HETATM   27  C   UNL     1      20.425  51.392  49.084  1.00  0.00     0.000 A 
HETATM   28  C   UNL     1      19.667  50.354  49.622  1.00  0.00     0.001 A 
HETATM   29  C   UNL     1      20.115  49.037  49.518  1.00  0.00     0.009 A 
ENDBRANCH  23  24
ENDBRANCH  22  23
ENDBRANCH   2  22
TORSDOF 6
ENDMDL
MODEL 5
REMARK VINA RESULT:      -9.4      4.655      7.476
REMARK  6 active torsions:
REMARK  status: ('A' for Active; 'I' for Inactive)
REMARK    1  A    between atoms: C_2  and  O_3 
REMARK    2  A    between atoms: O_3  and  C_4 
REMARK    3  A    between atoms: C_5  and  O_6 
REMARK    4  A    between atoms: O_6  and  C_7 
REMARK    5  A    between atoms: C_7  and  C_8 
REMARK    6  A    between atoms: C_16  and  C_17 
ROOT
HETATM    1  C   UNL     1      26.943  43.240  52.755  1.00  0.00     0.102 A 
HETATM    2  C   UNL     1      27.872  43.230  53.803  1.00  0.00     0.102 A 
HETATM    3  C   UNL     1      28.764  42.160  53.917  1.00  0.00     0.040 A 
HETATM    4  C   UNL     1      28.757  41.130  52.968  1.00  0.00     0.014 A 
HETATM    5  C   UNL     1      27.853  41.151  51.896  1.00  0.00    -0.007 A 
HETATM    6  C   UNL     1      26.958  42.227  51.793  1.00  0.00     0.051 A 
ENDROOT
BRANCH   5   7
HETATM    7  C   UNL     1      27.883  40.067  50.838  1.00  0.00     0.264 C 
HETATM    8  O   UNL     1      27.772  40.668  49.539  1.00  0.00    -0.321 OA
HETATM    9  C   UNL     1      28.022  39.796  48.515  1.00  0.00     0.087 A 
HETATM   10  C   UNL     1      28.802  38.651  48.670  1.00  0.00     0.065 A 
HETATM   11  C   UNL     1      27.500  40.116  47.263  1.00  0.00     0.038 A 
HETATM   12  C   UNL     1      29.412  38.394  49.985  1.00  0.00     0.256 C 
HETATM   13  C   UNL     1      29.046  37.805  47.586  1.00  0.00     0.020 A 
HETATM   14  O   UNL     1      30.167  37.456  50.192  1.00  0.00    -0.267 OA
HETATM   15  N   UNL     1      29.089  39.298  50.957  1.00  0.00    -0.326 N 
HETATM   16  H   UNL     1      29.431  39.067  51.880  1.00  0.00     0.165 HD
HETATM   17  C   UNL     1      28.507  38.116  46.337  1.00  0.00     0.001 A 
HETATM   18  C   UNL     1      27.739  39.272  46.175  1.00  0.00     0.003 A 
ENDBRANCH   5   7
BRANCH   1  19
HETATM   19  O   UNL     1      26.101  44.316  52.636  1.00  0.00    -0.349 OA
BRANCH  19  20
HETATM   20  C   UNL     1      26.458  45.213  51.580  1.00  0.00     0.171 C 
HETATM   21  C   UNL     1      26.069  46.626  51.980  1.00  0.00     0.034 C 
ENDBRANCH  19  20
ENDBRANCH   1  19
BRANCH   2  22
HETATM   22  O   UNL     1      27.808  44.266  54.698  1.00  0.00    -0.344 OA
BRANCH  22  23
HETATM   23  C   UNL     1      28.889  45.197  54.639  1.00  0.00     0.214 C 
BRANCH  23  24
HETATM   24  C   UNL     1      29.716  45.079  55.898  1.00  0.00    -0.034 A 
HETATM   25  C   UNL     1      29.452  45.893  57.009  1.00  0.00     0.009 A 
HETATM   26  C   UNL     1      30.198  45.753  58.182  1.00  0.00     0.001 A 
HETATM   27  C   UNL     1      31.207  44.795  58.259  1.00  0.00     0.000 A 
HETATM   28  C   UNL     1      31.473  43.976  57.164  1.00  0.00     0.001 A 
HETATM   29  C   UNL     1      30.730  44.115  55.991  1.00  0.00     0.009 A 
ENDBRANCH  23  24
ENDBRANCH  22  23
ENDBRANCH   2  22
TORSDOF 6
ENDMDL
MODEL 6
REMARK VINA RESULT:      -8.9      2.133      3.418
REMARK  6 active torsions:
REMARK  status: ('A' for Active; 'I' for Inactive)
REMARK    1  A    between atoms: C_2  and  O_3 
REMARK    2  A    between atoms: O_3  and  C_4 
REMARK    3  A    between atoms: C_5  and  O_6 
REMARK    4  A    between atoms: O_6  and  C_7 
REMARK    5  A    between atoms: C_7  and  C_8 
REMARK    6  A    between atoms: C_16  and  C_17 
ROOT
HETATM    1  C   UNL     1      26.629  44.519  52.817  1.00  0.00     0.102 A 
HETATM    2  C   UNL     1      26.842  45.508  53.785  1.00  0.00     0.102 A 
HETATM    3  C   UNL     1      26.426  46.818  53.530  1.00  0.00     0.040 A 
HETATM    4  C   UNL     1      25.764  47.129  52.336  1.00  0.00     0.014 A 
HETATM    5  C   UNL     1      25.515  46.137  51.376  1.00  0.00    -0.007 A 
HETATM    6  C   UNL     1      25.941  44.826  51.639  1.00  0.00     0.051 A 
ENDROOT
BRANCH   5   7
HETATM    7  C   UNL     1      24.749  46.460  50.111  1.00  0.00     0.264 C 
HETATM    8  O   UNL     1      23.897  45.355  49.775  1.00  0.00    -0.321 OA
HETATM    9  C   UNL     1      22.999  45.644  48.784  1.00  0.00     0.087 A 
HETATM   10  C   UNL     1      22.571  46.941  48.506  1.00  0.00     0.065 A 
HETATM   11  C   UNL     1      22.470  44.570  48.069  1.00  0.00     0.038 A 
HETATM   12  C   UNL     1      23.082  48.040  49.342  1.00  0.00     0.256 C 
HETATM   13  C   UNL     1      21.634  47.180  47.497  1.00  0.00     0.020 A 
HETATM   14  O   UNL     1      22.706  49.196  49.216  1.00  0.00    -0.267 OA
HETATM   15  N   UNL     1      23.994  47.667  50.289  1.00  0.00    -0.326 N 
HETATM   16  H   UNL     1      24.413  48.435  50.796  1.00  0.00     0.165 HD
HETATM   17  C   UNL     1      21.120  46.107  46.770  1.00  0.00     0.001 A 
HETATM   18  C   UNL     1      21.534  44.803  47.058  1.00  0.00     0.003 A 
ENDBRANCH   5   7
BRANCH   1  19
HETATM   19  O   UNL     1      27.008  43.233  53.100  1.00  0.00    -0.349 OA
BRANCH  19  20
HETATM   20  C   UNL     1      28.216  42.831  52.447  1.00  0.00     0.171 C 
HETATM   21  C   UNL     1      28.057  41.407  51.945  1.00  0.00     0.034 C 
ENDBRANCH  19  20
ENDBRANCH   1  19
BRANCH   2  22
HETATM   22  O   UNL     1      27.507  45.129  54.922  1.00  0.00    -0.344 OA
BRANCH  22  23
HETATM   23  C   UNL     1      28.583  45.981  55.319  1.00  0.00     0.214 C 
BRANCH  23  24
HETATM   24  C   UNL     1      29.619  45.162  56.053  1.00  0.00    -0.034 A 
HETATM   25  C   UNL     1      30.163  44.007  55.473  1.00  0.00     0.009 A 
HETATM   26  C   UNL     1      31.146  43.274  56.142  1.00  0.00     0.001 A 
HETATM   27  C   UNL     1      31.600  43.692  57.392  1.00  0.00     0.000 A 
HETATM   28  C   UNL     1      31.073  44.842  57.974  1.00  0.00     0.001 A 
HETATM   29  C   UNL     1      30.090  45.574  57.308  1.00  0.00     0.009 A 
ENDBRANCH  23  24
ENDBRANCH  22  23
ENDBRANCH   2  22
TORSDOF 6
ENDMDL
MODEL 7
REMARK VINA RESULT:      -8.6      2.081      3.162
REMARK  6 active torsions:
REMARK  status: ('A' for Active; 'I' for Inactive)
REMARK    1  A    between atoms: C_2  and  O_3 
REMARK    2  A    between atoms: O_3  and  C_4 
REMARK    3  A    between atoms: C_5  and  O_6 
REMARK    4  A    between atoms: O_6  and  C_7 
REMARK    5  A    between atoms: C_7  and  C_8 
REMARK    6  A    between atoms: C_16  and  C_17 
ROOT
HETATM    1  C   UNL     1      25.548  46.463  51.527  1.00  0.00     0.102 A 
HETATM    2  C   UNL     1      25.505  45.091  51.254  1.00  0.00     0.102 A 
HETATM    3  C   UNL     1      24.655  44.619  50.250  1.00  0.00     0.040 A 
HETATM    4  C   UNL     1      23.887  45.515  49.496  1.00  0.00     0.014 A 
HETATM    5  C   UNL     1      23.951  46.895  49.740  1.00  0.00    -0.007 A 
HETATM    6  C   UNL     1      24.804  47.358  50.754  1.00  0.00     0.051 A 
ENDROOT
BRANCH   5   7
HETATM    7  C   UNL     1      23.164  47.868  48.888  1.00  0.00     0.264 C 
HETATM    8  O   UNL     1      21.885  47.298  48.573  1.00  0.00    -0.321 OA
HETATM    9  C   UNL     1      21.017  48.191  48.006  1.00  0.00     0.087 A 
HETATM   10  C   UNL     1      21.119  49.569  48.195  1.00  0.00     0.065 A 
HETATM   11  C   UNL     1      19.969  47.670  47.250  1.00  0.00     0.038 A 
HETATM   12  C   UNL     1      22.185  50.076  49.075  1.00  0.00     0.256 C 
HETATM   13  C   UNL     1      20.193  50.437  47.612  1.00  0.00     0.020 A 
HETATM   14  O   UNL     1      22.304  51.259  49.354  1.00  0.00    -0.267 OA
HETATM   15  N   UNL     1      23.023  49.119  49.576  1.00  0.00    -0.326 N 
HETATM   16  H   UNL     1      23.809  49.479  50.101  1.00  0.00     0.165 HD
HETATM   17  C   UNL     1      19.155  49.915  46.840  1.00  0.00     0.001 A 
HETATM   18  C   UNL     1      19.040  48.534  46.662  1.00  0.00     0.003 A 
ENDBRANCH   5   7
BRANCH   1  19
HETATM   19  O   UNL     1      26.416  46.913  52.489  1.00  0.00    -0.349 OA
BRANCH  19  20
HETATM   20  C   UNL     1      25.771  47.342  53.692  1.00  0.00     0.171 C 
HETATM   21  C   UNL     1      26.825  47.583  54.758  1.00  0.00     0.034 C 
ENDBRANCH  19  20
ENDBRANCH   1  19
BRANCH   2  22
HETATM   22  O   UNL     1      26.276  44.277  52.042  1.00  0.00    -0.344 OA
BRANCH  22  23
HETATM   23  C   UNL     1      27.578  43.983  51.535  1.00  0.00     0.214 C 
BRANCH  23  24
HETATM   24  C   UNL     1      28.518  43.741  52.693  1.00  0.00    -0.034 A 
HETATM   25  C   UNL     1      29.578  42.829  52.578  1.00  0.00     0.009 A 
HETATM   26  C   UNL     1      30.464  42.636  53.640  1.00  0.00     0.001 A 
HETATM   27  C   UNL     1      30.305  43.356  54.823  1.00  0.00     0.000 A 
HETATM   28  C   UNL     1      29.261  44.269  54.946  1.00  0.00     0.001 A 
HETATM   29  C   UNL     1      28.374  44.463  53.887  1.00  0.00     0.009 A 
ENDBRANCH  23  24
ENDBRANCH  22  23
ENDBRANCH   2  22
TORSDOF 6
ENDMDL
MODEL 8
REMARK VINA RESULT:      -8.5      2.655      4.292
REMARK  6 active torsions:
REMARK  status: ('A' for Active; 'I' for Inactive)
REMARK    1  A    between atoms: C_2  and  O_3 
REMARK    2  A    between atoms: O_3  and  C_4 
REMARK    3  A    between atoms: C_5  and  O_6 
REMARK    4  A    between atoms: O_6  and  C_7 
REMARK    5  A    between atoms: C_7  and  C_8 
REMARK    6  A    between atoms: C_16  and  C_17 
ROOT
HETATM    1  C   UNL     1      25.796  47.172  49.884  1.00  0.00     0.102 A 
HETATM    2  C   UNL     1      25.944  45.789  49.721  1.00  0.00     0.102 A 
HETATM    3  C   UNL     1      24.835  45.019  49.363  1.00  0.00     0.040 A 
HETATM    4  C   UNL     1      23.597  45.630  49.128  1.00  0.00     0.014 A 
HETATM    5  C   UNL     1      23.448  47.019  49.254  1.00  0.00    -0.007 A 
HETATM    6  C   UNL     1      24.567  47.783  49.620  1.00  0.00     0.051 A 
ENDROOT
BRANCH   5   7
HETATM    7  C   UNL     1      22.125  47.686  48.945  1.00  0.00     0.264 C 
HETATM    8  O   UNL     1      22.279  49.110  49.033  1.00  0.00    -0.321 OA
HETATM    9  C   UNL     1      21.205  49.804  48.546  1.00  0.00     0.087 A 
HETATM   10  C   UNL     1      20.326  49.272  47.603  1.00  0.00     0.065 A 
HETATM   11  C   UNL     1      21.033  51.112  48.995  1.00  0.00     0.038 A 
HETATM   12  C   UNL     1      20.592  47.920  47.085  1.00  0.00     0.256 C 
HETATM   13  C   UNL     1      19.256  50.031  47.121  1.00  0.00     0.020 A 
HETATM   14  O   UNL     1      19.917  47.405  46.206  1.00  0.00    -0.267 OA
HETATM   15  N   UNL     1      21.667  47.290  47.644  1.00  0.00    -0.326 N 
HETATM   16  H   UNL     1      21.789  46.328  47.356  1.00  0.00     0.165 HD
HETATM   17  C   UNL     1      19.074  51.334  47.585  1.00  0.00     0.001 A 
HETATM   18  C   UNL     1      19.964  51.875  48.517  1.00  0.00     0.003 A 
ENDBRANCH   5   7
BRANCH   1  19
HETATM   19  O   UNL     1      26.903  47.917  50.198  1.00  0.00    -0.349 OA
BRANCH  19  20
HETATM   20  C   UNL     1      27.627  48.384  49.056  1.00  0.00     0.171 C 
HETATM   21  C   UNL     1      27.271  49.839  48.806  1.00  0.00     0.034 C 
ENDBRANCH  19  20
ENDBRANCH   1  19
BRANCH   2  22
HETATM   22  O   UNL     1      27.183  45.264  49.981  1.00  0.00    -0.344 OA
BRANCH  22  23
HETATM   23  C   UNL     1      27.189  43.946  50.531  1.00  0.00     0.214 C 
BRANCH  23  24
HETATM   24  C   UNL     1      27.849  43.979  51.890  1.00  0.00    -0.034 A 
HETATM   25  C   UNL     1      27.297  44.731  52.937  1.00  0.00     0.009 A 
HETATM   26  C   UNL     1      27.893  44.729  54.201  1.00  0.00     0.001 A 
HETATM   27  C   UNL     1      29.040  43.971  54.432  1.00  0.00     0.000 A 
HETATM   28  C   UNL     1      29.593  43.215  53.402  1.00  0.00     0.001 A 
HETATM   29  C   UNL     1      29.000  43.216  52.139  1.00  0.00     0.009 A 
ENDBRANCH  23  24
ENDBRANCH  22  23
ENDBRANCH   2  22
TORSDOF 6
ENDMDL
MODEL 9
REMARK VINA RESULT:      -8.5      2.387      9.383
REMARK  6 active torsions:
REMARK  status: ('A' for Active; 'I' for Inactive)
REMARK    1  A    between atoms: C_2  and  O_3 
REMARK    2  A    between atoms: O_3  and  C_4 
REMARK    3  A    between atoms: C_5  and  O_6 
REMARK    4  A    between atoms: O_6  and  C_7 
REMARK    5  A    between atoms: C_7  and  C_8 
REMARK    6  A    between atoms: C_16  and  C_17 
ROOT
HETATM    1  C   UNL     1      24.140  47.721  49.457  1.00  0.00     0.102 A 
HETATM    2  C   UNL     1      23.055  47.095  48.831  1.00  0.00     0.102 A 
HETATM    3  C   UNL     1      23.030  45.701  48.737  1.00  0.00     0.040 A 
HETATM    4  C   UNL     1      24.057  44.936  49.302  1.00  0.00     0.014 A 
HETATM    5  C   UNL     1      25.130  45.554  49.962  1.00  0.00    -0.007 A 
HETATM    6  C   UNL     1      25.149  46.955  50.046  1.00  0.00     0.051 A 
ENDROOT
BRANCH   5   7
HETATM    7  C   UNL     1      26.212  44.726  50.622  1.00  0.00     0.264 C 
HETATM    8  O   UNL     1      26.433  45.209  51.955  1.00  0.00    -0.321 OA
HETATM    9  C   UNL     1      27.223  44.383  52.708  1.00  0.00     0.087 A 
HETATM   10  C   UNL     1      27.354  43.019  52.449  1.00  0.00     0.065 A 
HETATM   11  C   UNL     1      27.876  44.947  53.802  1.00  0.00     0.038 A 
HETATM   12  C   UNL     1      26.578  42.441  51.340  1.00  0.00     0.256 C 
HETATM   13  C   UNL     1      28.156  42.215  53.262  1.00  0.00     0.020 A 
HETATM   14  O   UNL     1      26.575  41.246  51.087  1.00  0.00    -0.267 OA
HETATM   15  N   UNL     1      25.838  43.340  50.624  1.00  0.00    -0.326 N 
HETATM   16  H   UNL     1      25.383  42.957  49.807  1.00  0.00     0.165 HD
HETATM   17  C   UNL     1      28.824  42.784  54.346  1.00  0.00     0.001 A 
HETATM   18  C   UNL     1      28.681  44.147  54.618  1.00  0.00     0.003 A 
ENDBRANCH   5   7
BRANCH   1  19
HETATM   19  O   UNL     1      24.130  49.087  49.574  1.00  0.00    -0.349 OA
BRANCH  19  20
HETATM   20  C   UNL     1      25.028  49.749  48.678  1.00  0.00     0.171 C 
HETATM   21  C   UNL     1      24.222  50.594  47.706  1.00  0.00     0.034 C 
ENDBRANCH  19  20
ENDBRANCH   1  19
BRANCH   2  22
HETATM   22  O   UNL     1      22.095  47.912  48.292  1.00  0.00    -0.344 OA
BRANCH  22  23
HETATM   23  C   UNL     1      20.811  47.844  48.913  1.00  0.00     0.214 C 
BRANCH  23  24
HETATM   24  C   UNL     1      20.250  49.241  49.045  1.00  0.00    -0.034 A 
HETATM   25  C   UNL     1      19.268  49.533  50.002  1.00  0.00     0.009 A 
HETATM   26  C   UNL     1      18.780  50.834  50.143  1.00  0.00     0.001 A 
HETATM   27  C   UNL     1      19.273  51.857  49.334  1.00  0.00     0.000 A 
HETATM   28  C   UNL     1      20.253  51.581  48.383  1.00  0.00     0.001 A 
HETATM   29  C   UNL     1      20.741  50.281  48.241  1.00  0.00     0.009 A 
ENDBRANCH  23  24
ENDBRANCH  22  23
ENDBRANCH   2  22
TORSDOF 6
ENDMDL
MODEL 10
REMARK VINA RESULT:      -8.3      3.025      4.813
REMARK  6 active torsions:
REMARK  status: ('A' for Active; 'I' for Inactive)
REMARK    1  A    between atoms: C_2  and  O_3 
REMARK    2  A    between atoms: O_3  and  C_4 
REMARK    3  A    between atoms: C_5  and  O_6 
REMARK    4  A    between atoms: O_6  and  C_7 
REMARK    5  A    between atoms: C_7  and  C_8 
REMARK    6  A    between atoms: C_16  and  C_17 
ROOT
HETATM    1  C   UNL     1      25.593  47.093  49.872  1.00  0.00     0.102 A 
HETATM    2  C   UNL     1      25.895  45.727  49.822  1.00  0.00     0.102 A 
HETATM    3  C   UNL     1      24.902  44.819  49.444  1.00  0.00     0.040 A 
HETATM    4  C   UNL     1      23.631  45.276  49.075  1.00  0.00     0.014 A 
HETATM    5  C   UNL     1      23.330  46.646  49.088  1.00  0.00    -0.007 A 
HETATM    6  C   UNL     1      24.332  47.549  49.475  1.00  0.00     0.051 A 
ENDROOT
BRANCH   5   7
HETATM    7  C   UNL     1      21.974  47.145  48.636  1.00  0.00     0.264 C 
HETATM    8  O   UNL     1      21.023  46.072  48.714  1.00  0.00    -0.321 OA
HETATM    9  C   UNL     1      19.728  46.482  48.548  1.00  0.00     0.087 A 
HETATM   10  C   UNL     1      19.307  47.784  48.815  1.00  0.00     0.065 A 
HETATM   11  C   UNL     1      18.802  45.523  48.140  1.00  0.00     0.038 A 
HETATM   12  C   UNL     1      20.295  48.745  49.332  1.00  0.00     0.256 C 
HETATM   13  C   UNL     1      17.968  48.146  48.652  1.00  0.00     0.020 A 
HETATM   14  O   UNL     1      20.000  49.885  49.661  1.00  0.00    -0.267 OA
HETATM   15  N   UNL     1      21.568  48.261  49.440  1.00  0.00    -0.326 N 
HETATM   16  H   UNL     1      22.261  48.950  49.704  1.00  0.00     0.165 HD
HETATM   17  C   UNL     1      17.046  47.190  48.225  1.00  0.00     0.001 A 
HETATM   18  C   UNL     1      17.461  45.880  47.974  1.00  0.00     0.003 A 
ENDBRANCH   5   7
BRANCH   1  19
HETATM   19  O   UNL     1      26.589  47.973  50.208  1.00  0.00    -0.349 OA
BRANCH  19  20
HETATM   20  C   UNL     1      27.401  48.376  49.102  1.00  0.00     0.171 C 
HETATM   21  C   UNL     1      27.072  49.815  48.745  1.00  0.00     0.034 C 
ENDBRANCH  19  20
ENDBRANCH   1  19
BRANCH   2  22
HETATM   22  O   UNL     1      27.157  45.357  50.209  1.00  0.00    -0.344 OA
BRANCH  22  23
HETATM   23  C   UNL     1      27.299  43.998  50.623  1.00  0.00     0.214 C 
BRANCH  23  24
HETATM   24  C   UNL     1      27.902  43.963  52.009  1.00  0.00    -0.034 A 
HETATM   25  C   UNL     1      29.075  43.238  52.263  1.00  0.00     0.009 A 
HETATM   26  C   UNL     1      29.646  43.239  53.538  1.00  0.00     0.001 A 
HETATM   27  C   UNL     1      29.055  43.969  54.568  1.00  0.00     0.000 A 
HETATM   28  C   UNL     1      27.894  44.698  54.326  1.00  0.00     0.001 A 
HETATM   29  C   UNL     1      27.321  44.698  53.053  1.00  0.00     0.009 A 
ENDBRANCH  23  24
ENDBRANCH  22  23
ENDBRANCH   2  22
TORSDOF 6
ENDMDL
