MODEL 1
REMARK VINA RESULT:      -8.4      0.000      0.000
REMARK  2 active torsions:
REMARK  status: ('A' for Active; 'I' for Inactive)
REMARK    1  A    between atoms: O_2  and  C_3 
REMARK    2  A    between atoms: N_21  and  C_22 
ROOT
HETATM    1  C   UNL     1      25.133  47.815  49.496  1.00  0.00     0.069 A 
HETATM    2  C   UNL     1      24.823  46.456  49.358  1.00  0.00     0.049 A 
HETATM    3  C   UNL     1      23.499  46.100  49.126  1.00  0.00     0.018 A 
HETATM    4  C   UNL     1      22.522  47.094  49.009  1.00  0.00     0.044 A 
HETATM    5  N   UNL     1      21.285  46.536  48.737  1.00  0.00    -0.324 N 
HETATM    6  C   UNL     1      21.366  45.159  48.662  1.00  0.00     0.264 A 
HETATM    7  O   UNL     1      20.456  44.392  48.394  1.00  0.00    -0.270 OA
HETATM    8  C   UNL     1      22.868  44.750  48.902  1.00  0.00     0.250 A 
HETATM    9  N   UNL     1      23.467  44.024  47.712  1.00  0.00    -0.043 N 
HETATM   10  H   UNL     1      24.490  44.034  47.832  1.00  0.00     0.282 HD
HETATM   11  C   UNL     1      22.949  42.612  47.806  1.00  0.00     0.204 C 
HETATM   12  C   UNL     1      23.693  41.980  46.654  1.00  0.00     0.036 C 
HETATM   13  C   UNL     1      23.592  43.071  45.562  1.00  0.00     0.030 C 
HETATM   14  C   UNL     1      23.249  44.391  46.280  1.00  0.00     0.237 C 
HETATM   15  C   UNL     1      23.059  42.300  49.281  1.00  0.00     0.126 C 
HETATM   16  C   UNL     1      22.880  43.647  49.994  1.00  0.00     0.145 C 
HETATM   17  C   UNL     1      24.065  43.718  50.905  1.00  0.00     0.239 C 
HETATM   18  O   UNL     1      24.133  44.587  51.761  1.00  0.00    -0.272 OA
HETATM   19  N   UNL     1      24.971  42.733  50.571  1.00  0.00    -0.252 N 
HETATM   20  C   UNL     1      24.425  41.841  49.674  1.00  0.00     0.238 C 
HETATM   21  O   UNL     1      24.904  40.842  49.162  1.00  0.00    -0.272 OA
HETATM   22  C   UNL     1      22.800  48.437  49.126  1.00  0.00     0.033 A 
HETATM   23  C   UNL     1      24.127  48.791  49.368  1.00  0.00     0.039 A 
HETATM   24  H   UNL     1      20.423  47.055  48.613  1.00  0.00     0.169 HD
ENDROOT
BRANCH   1  25
HETATM   25  O   UNL     1      26.383  48.321  49.720  1.00  0.00    -0.356 OA
HETATM   26  C   UNL     1      26.888  49.244  48.762  1.00  0.00     0.210 C 
ENDBRANCH   1  25
BRANCH  19  27
HETATM   27  C   UNL     1      26.313  42.649  51.081  1.00  0.00     0.045 A 
HETATM   28  C   UNL     1      26.881  41.424  51.476  1.00  0.00     0.030 A 
HETATM   29  C   UNL     1      28.163  41.351  52.036  1.00  0.00     0.002 A 
HETATM   30  C   UNL     1      28.917  42.502  52.213  1.00  0.00     0.000 A 
HETATM   31  C   UNL     1      28.393  43.724  51.820  1.00  0.00     0.002 A 
HETATM   32  C   UNL     1      27.112  43.794  51.260  1.00  0.00     0.030 A 
ENDBRANCH  19  27
TORSDOF 2
ENDMDL
MODEL 2
REMARK VINA RESULT:      -8.2      5.649      7.794
REMARK  2 active torsions:
REMARK  status: ('A' for Active; 'I' for Inactive)
REMARK    1  A    between atoms: O_2  and  C_3 
REMARK    2  A    between atoms: N_21  and  C_22 
ROOT
HETATM    1  C   UNL     1      22.759  49.936  48.119  1.00  0.00     0.069 A 
HETATM    2  C   UNL     1      21.438  49.556  47.854  1.00  0.00     0.049 A 
HETATM    3  C   UNL     1      20.430  50.047  48.677  1.00  0.00     0.018 A 
HETATM    4  C   UNL     1      20.751  50.920  49.722  1.00  0.00     0.044 A 
HETATM    5  N   UNL     1      19.607  51.325  50.390  1.00  0.00    -0.324 N 
HETATM    6  C   UNL     1      18.479  50.751  49.838  1.00  0.00     0.264 A 
HETATM    7  O   UNL     1      17.324  50.947  50.178  1.00  0.00    -0.270 OA
HETATM    8  C   UNL     1      18.937  49.854  48.628  1.00  0.00     0.250 A 
HETATM    9  N   UNL     1      18.340  50.311  47.310  1.00  0.00    -0.043 N 
HETATM   10  H   UNL     1      18.882  49.863  46.558  1.00  0.00     0.282 HD
HETATM   11  C   UNL     1      16.927  49.787  47.311  1.00  0.00     0.204 C 
HETATM   12  C   UNL     1      16.489  50.205  45.928  1.00  0.00     0.036 C 
HETATM   13  C   UNL     1      17.088  51.627  45.811  1.00  0.00     0.030 C 
HETATM   14  C   UNL     1      18.195  51.734  46.878  1.00  0.00     0.237 C 
HETATM   15  C   UNL     1      17.075  48.390  47.869  1.00  0.00     0.126 C 
HETATM   16  C   UNL     1      18.284  48.458  48.812  1.00  0.00     0.145 C 
HETATM   17  C   UNL     1      19.148  47.326  48.351  1.00  0.00     0.239 C 
HETATM   18  O   UNL     1      20.114  46.978  49.013  1.00  0.00    -0.272 OA
HETATM   19  N   UNL     1      18.692  46.854  47.136  1.00  0.00    -0.252 N 
HETATM   20  C   UNL     1      17.461  47.391  46.827  1.00  0.00     0.238 C 
HETATM   21  O   UNL     1      16.740  47.208  45.860  1.00  0.00    -0.272 OA
HETATM   22  C   UNL     1      22.038  51.322  49.997  1.00  0.00     0.033 A 
HETATM   23  C   UNL     1      23.048  50.821  49.176  1.00  0.00     0.039 A 
HETATM   24  H   UNL     1      19.586  51.955  51.184  1.00  0.00     0.169 HD
ENDROOT
BRANCH   1  25
HETATM   25  O   UNL     1      23.854  49.543  47.401  1.00  0.00    -0.356 OA
HETATM   26  C   UNL     1      25.127  49.960  47.881  1.00  0.00     0.210 C 
ENDBRANCH   1  25
BRANCH  19  27
HETATM   27  C   UNL     1      19.407  45.932  46.297  1.00  0.00     0.045 A 
HETATM   28  C   UNL     1      19.116  44.556  46.290  1.00  0.00     0.030 A 
HETATM   29  C   UNL     1      19.857  43.647  45.522  1.00  0.00     0.002 A 
HETATM   30  C   UNL     1      20.909  44.091  44.735  1.00  0.00     0.000 A 
HETATM   31  C   UNL     1      21.213  45.444  44.706  1.00  0.00     0.002 A 
HETATM   32  C   UNL     1      20.471  46.349  45.474  1.00  0.00     0.030 A 
ENDBRANCH  19  27
TORSDOF 2
ENDMDL
MODEL 3
REMARK VINA RESULT:      -8.2      8.748     11.346
REMARK  2 active torsions:
REMARK  status: ('A' for Active; 'I' for Inactive)
REMARK    1  A    between atoms: O_2  and  C_3 
REMARK    2  A    between atoms: N_21  and  C_22 
ROOT
HETATM    1  C   UNL     1      23.438  47.597  40.544  1.00  0.00     0.069 A 
HETATM    2  C   UNL     1      24.814  47.577  40.288  1.00  0.00     0.049 A 
HETATM    3  C   UNL     1      25.348  48.563  39.465  1.00  0.00     0.018 A 
HETATM    4  C   UNL     1      24.515  49.557  38.942  1.00  0.00     0.044 A 
HETATM    5  N   UNL     1      25.245  50.462  38.189  1.00  0.00    -0.324 N 
HETATM    6  C   UNL     1      26.584  50.125  38.168  1.00  0.00     0.264 A 
HETATM    7  O   UNL     1      27.482  50.751  37.628  1.00  0.00    -0.270 OA
HETATM    8  C   UNL     1      26.769  48.827  39.039  1.00  0.00     0.250 A 
HETATM    9  N   UNL     1      27.694  49.049  40.221  1.00  0.00    -0.043 N 
HETATM   10  H   UNL     1      27.552  48.263  40.871  1.00  0.00     0.282 HD
HETATM   11  C   UNL     1      29.087  49.001  39.649  1.00  0.00     0.204 C 
HETATM   12  C   UNL     1      29.898  49.121  40.918  1.00  0.00     0.036 C 
HETATM   13  C   UNL     1      29.115  50.200  41.705  1.00  0.00     0.030 C 
HETATM   14  C   UNL     1      27.704  50.264  41.090  1.00  0.00     0.237 C 
HETATM   15  C   UNL     1      29.025  47.844  38.678  1.00  0.00     0.126 C 
HETATM   16  C   UNL     1      27.572  47.807  38.187  1.00  0.00     0.145 C 
HETATM   17  C   UNL     1      27.165  46.385  38.413  1.00  0.00     0.239 C 
HETATM   18  O   UNL     1      26.114  45.963  37.954  1.00  0.00    -0.272 OA
HETATM   19  N   UNL     1      28.105  45.748  39.199  1.00  0.00    -0.252 N 
HETATM   20  C   UNL     1      29.236  46.523  39.342  1.00  0.00     0.238 C 
HETATM   21  O   UNL     1      30.274  46.300  39.944  1.00  0.00    -0.272 OA
HETATM   22  C   UNL     1      23.162  49.610  39.189  1.00  0.00     0.033 A 
HETATM   23  C   UNL     1      22.627  48.615  40.006  1.00  0.00     0.039 A 
HETATM   24  H   UNL     1      24.860  51.267  37.708  1.00  0.00     0.169 HD
ENDROOT
BRANCH   1  25
HETATM   25  O   UNL     1      22.768  46.704  41.333  1.00  0.00    -0.356 OA
HETATM   26  C   UNL     1      23.551  45.738  42.025  1.00  0.00     0.210 C 
ENDBRANCH   1  25
BRANCH  19  27
HETATM   27  C   UNL     1      27.928  44.454  39.799  1.00  0.00     0.045 A 
HETATM   28  C   UNL     1      27.249  44.290  41.020  1.00  0.00     0.030 A 
HETATM   29  C   UNL     1      27.135  43.038  41.639  1.00  0.00     0.002 A 
HETATM   30  C   UNL     1      27.693  41.912  41.052  1.00  0.00     0.000 A 
HETATM   31  C   UNL     1      28.355  42.037  39.839  1.00  0.00     0.002 A 
HETATM   32  C   UNL     1      28.468  43.289  39.222  1.00  0.00     0.030 A 
ENDBRANCH  19  27
TORSDOF 2
ENDMDL
MODEL 4
REMARK VINA RESULT:      -8.1     20.112     22.597
REMARK  2 active torsions:
REMARK  status: ('A' for Active; 'I' for Inactive)
REMARK    1  A    between atoms: O_2  and  C_3 
REMARK    2  A    between atoms: N_21  and  C_22 
ROOT
HETATM    1  C   UNL     1      42.155  46.992  65.556  1.00  0.00     0.069 A 
HETATM    2  C   UNL     1      40.767  47.063  65.725  1.00  0.00     0.049 A 
HETATM    3  C   UNL     1      39.960  46.266  64.920  1.00  0.00     0.018 A 
HETATM    4  C   UNL     1      40.546  45.400  63.990  1.00  0.00     0.044 A 
HETATM    5  N   UNL     1      39.578  44.668  63.324  1.00  0.00    -0.324 N 
HETATM    6  C   UNL     1      38.313  45.002  63.764  1.00  0.00     0.264 A 
HETATM    7  O   UNL     1      37.262  44.499  63.401  1.00  0.00    -0.270 OA
HETATM    8  C   UNL     1      38.464  46.094  64.887  1.00  0.00     0.250 A 
HETATM    9  N   UNL     1      37.907  45.635  66.221  1.00  0.00    -0.043 N 
HETATM   10  H   UNL     1      38.277  46.271  66.942  1.00  0.00     0.282 HD
HETATM   11  C   UNL     1      36.413  45.797  66.106  1.00  0.00     0.204 C 
HETATM   12  C   UNL     1      35.997  45.420  67.507  1.00  0.00     0.036 C 
HETATM   13  C   UNL     1      36.907  44.204  67.803  1.00  0.00     0.030 C 
HETATM   14  C   UNL     1      38.075  44.267  66.799  1.00  0.00     0.237 C 
HETATM   15  C   UNL     1      36.262  47.129  65.405  1.00  0.00     0.126 C 
HETATM   16  C   UNL     1      37.512  47.266  64.525  1.00  0.00     0.145 C 
HETATM   17  C   UNL     1      38.051  48.613  64.895  1.00  0.00     0.239 C 
HETATM   18  O   UNL     1      38.948  49.119  64.239  1.00  0.00    -0.272 OA
HETATM   19  N   UNL     1      37.417  49.074  66.031  1.00  0.00    -0.252 N 
HETATM   20  C   UNL     1      36.331  48.287  66.347  1.00  0.00     0.238 C 
HETATM   21  O   UNL     1      35.525  48.381  67.258  1.00  0.00    -0.272 OA
HETATM   22  C   UNL     1      41.908  45.299  63.813  1.00  0.00     0.033 A 
HETATM   23  C   UNL     1      42.714  46.106  64.615  1.00  0.00     0.039 A 
HETATM   24  H   UNL     1      39.759  43.978  62.603  1.00  0.00     0.169 HD
ENDROOT
BRANCH   1  25
HETATM   25  O   UNL     1      43.075  47.705  66.272  1.00  0.00    -0.356 OA
HETATM   26  C   UNL     1      44.444  47.359  66.092  1.00  0.00     0.210 C 
ENDBRANCH   1  25
BRANCH  19  27
HETATM   27  C   UNL     1      37.836  50.218  66.794  1.00  0.00     0.045 A 
HETATM   28  C   UNL     1      38.411  50.088  68.070  1.00  0.00     0.030 A 
HETATM   29  C   UNL     1      38.758  51.205  68.842  1.00  0.00     0.002 A 
HETATM   30  C   UNL     1      38.543  52.487  68.356  1.00  0.00     0.000 A 
HETATM   31  C   UNL     1      37.992  52.650  67.094  1.00  0.00     0.002 A 
HETATM   32  C   UNL     1      37.647  51.533  66.325  1.00  0.00     0.030 A 
ENDBRANCH  19  27
TORSDOF 2
ENDMDL
MODEL 5
REMARK VINA RESULT:      -8.0     19.459     21.882
REMARK  2 active torsions:
REMARK  status: ('A' for Active; 'I' for Inactive)
REMARK    1  A    between atoms: O_2  and  C_3 
REMARK    2  A    between atoms: N_21  and  C_22 
ROOT
HETATM    1  C   UNL     1      37.013  48.407  66.661  1.00  0.00     0.069 A 
HETATM    2  C   UNL     1      37.615  47.185  66.339  1.00  0.00     0.049 A 
HETATM    3  C   UNL     1      38.777  47.200  65.575  1.00  0.00     0.018 A 
HETATM    4  C   UNL     1      39.329  48.422  65.174  1.00  0.00     0.044 A 
HETATM    5  N   UNL     1      40.501  48.221  64.465  1.00  0.00    -0.324 N 
HETATM    6  C   UNL     1      40.789  46.875  64.353  1.00  0.00     0.264 A 
HETATM    7  O   UNL     1      41.774  46.386  63.824  1.00  0.00    -0.270 OA
HETATM    8  C   UNL     1      39.661  46.075  65.105  1.00  0.00     0.250 A 
HETATM    9  N   UNL     1      40.206  45.250  66.256  1.00  0.00    -0.043 N 
HETATM   10  H   UNL     1      39.405  44.984  66.846  1.00  0.00     0.282 HD
HETATM   11  C   UNL     1      40.807  44.025  65.617  1.00  0.00     0.204 C 
HETATM   12  C   UNL     1      41.205  43.251  66.852  1.00  0.00     0.036 C 
HETATM   13  C   UNL     1      41.786  44.361  67.760  1.00  0.00     0.030 C 
HETATM   14  C   UNL     1      41.254  45.703  67.220  1.00  0.00     0.237 C 
HETATM   15  C   UNL     1      39.794  43.652  64.559  1.00  0.00     0.126 C 
HETATM   16  C   UNL     1      39.146  44.977  64.136  1.00  0.00     0.145 C 
HETATM   17  C   UNL     1      37.680  44.704  64.264  1.00  0.00     0.239 C 
HETATM   18  O   UNL     1      36.864  45.498  63.822  1.00  0.00    -0.272 OA
HETATM   19  N   UNL     1      37.483  43.522  64.950  1.00  0.00    -0.252 N 
HETATM   20  C   UNL     1      38.667  42.835  65.102  1.00  0.00     0.238 C 
HETATM   21  O   UNL     1      38.893  41.759  65.633  1.00  0.00    -0.272 OA
HETATM   22  C   UNL     1      38.767  49.639  65.489  1.00  0.00     0.033 A 
HETATM   23  C   UNL     1      37.596  49.620  66.246  1.00  0.00     0.039 A 
HETATM   24  H   UNL     1      41.078  48.954  64.070  1.00  0.00     0.169 HD
ENDROOT
BRANCH   1  25
HETATM   25  O   UNL     1      35.876  48.556  67.405  1.00  0.00    -0.356 OA
HETATM   26  C   UNL     1      36.028  49.070  68.723  1.00  0.00     0.210 C 
ENDBRANCH   1  25
BRANCH  19  27
HETATM   27  C   UNL     1      36.213  43.070  65.450  1.00  0.00     0.045 A 
HETATM   28  C   UNL     1      35.588  41.914  64.949  1.00  0.00     0.030 A 
HETATM   29  C   UNL     1      34.320  41.510  65.389  1.00  0.00     0.002 A 
HETATM   30  C   UNL     1      33.643  42.249  66.347  1.00  0.00     0.000 A 
HETATM   31  C   UNL     1      34.238  43.386  66.874  1.00  0.00     0.002 A 
HETATM   32  C   UNL     1      35.505  43.787  66.433  1.00  0.00     0.030 A 
ENDBRANCH  19  27
TORSDOF 2
ENDMDL
MODEL 6
REMARK VINA RESULT:      -7.9      6.637     10.856
REMARK  2 active torsions:
REMARK  status: ('A' for Active; 'I' for Inactive)
REMARK    1  A    between atoms: O_2  and  C_3 
REMARK    2  A    between atoms: N_21  and  C_22 
ROOT
HETATM    1  C   UNL     1      17.684  49.040  44.078  1.00  0.00     0.069 A 
HETATM    2  C   UNL     1      17.869  49.440  45.406  1.00  0.00     0.049 A 
HETATM    3  C   UNL     1      18.448  48.539  46.294  1.00  0.00     0.018 A 
HETATM    4  C   UNL     1      18.855  47.280  45.839  1.00  0.00     0.044 A 
HETATM    5  N   UNL     1      19.444  46.557  46.862  1.00  0.00    -0.324 N 
HETATM    6  C   UNL     1      19.460  47.281  48.038  1.00  0.00     0.264 A 
HETATM    7  O   UNL     1      19.951  46.932  49.099  1.00  0.00    -0.270 OA
HETATM    8  C   UNL     1      18.806  48.683  47.750  1.00  0.00     0.250 A 
HETATM    9  N   UNL     1      19.765  49.833  47.998  1.00  0.00    -0.043 N 
HETATM   10  H   UNL     1      19.367  50.666  47.541  1.00  0.00     0.282 HD
HETATM   11  C   UNL     1      19.783  50.020  49.493  1.00  0.00     0.204 C 
HETATM   12  C   UNL     1      20.669  51.239  49.595  1.00  0.00     0.036 C 
HETATM   13  C   UNL     1      21.774  50.929  48.557  1.00  0.00     0.030 C 
HETATM   14  C   UNL     1      21.210  49.845  47.617  1.00  0.00     0.237 C 
HETATM   15  C   UNL     1      18.328  49.880  49.878  1.00  0.00     0.126 C 
HETATM   16  C   UNL     1      17.726  48.923  48.839  1.00  0.00     0.145 C 
HETATM   17  C   UNL     1      16.525  49.664  48.341  1.00  0.00     0.239 C 
HETATM   18  O   UNL     1      15.705  49.102  47.631  1.00  0.00    -0.272 OA
HETATM   19  N   UNL     1      16.571  50.975  48.771  1.00  0.00    -0.252 N 
HETATM   20  C   UNL     1      17.562  51.152  49.712  1.00  0.00     0.238 C 
HETATM   21  O   UNL     1      17.897  52.152  50.327  1.00  0.00    -0.272 OA
HETATM   22  C   UNL     1      18.699  46.866  44.536  1.00  0.00     0.033 A 
HETATM   23  C   UNL     1      18.108  47.767  43.650  1.00  0.00     0.039 A 
HETATM   24  H   UNL     1      19.815  45.617  46.776  1.00  0.00     0.169 HD
ENDROOT
BRANCH   1  25
HETATM   25  O   UNL     1      17.136  49.810  43.090  1.00  0.00    -0.356 OA
HETATM   26  C   UNL     1      16.866  51.171  43.406  1.00  0.00     0.210 C 
ENDBRANCH   1  25
BRANCH  19  27
HETATM   27  C   UNL     1      15.708  52.022  48.296  1.00  0.00     0.045 A 
HETATM   28  C   UNL     1      15.565  52.300  46.925  1.00  0.00     0.030 A 
HETATM   29  C   UNL     1      14.777  53.364  46.465  1.00  0.00     0.002 A 
HETATM   30  C   UNL     1      14.106  54.179  47.365  1.00  0.00     0.000 A 
HETATM   31  C   UNL     1      14.213  53.922  48.724  1.00  0.00     0.002 A 
HETATM   32  C   UNL     1      15.000  52.858  49.181  1.00  0.00     0.030 A 
ENDBRANCH  19  27
TORSDOF 2
ENDMDL
MODEL 7
REMARK VINA RESULT:      -7.9      9.207     11.883
REMARK  2 active torsions:
REMARK  status: ('A' for Active; 'I' for Inactive)
REMARK    1  A    between atoms: O_2  and  C_3 
REMARK    2  A    between atoms: N_21  and  C_22 
ROOT
HETATM    1  C   UNL     1      23.892  49.190  39.516  1.00  0.00     0.069 A 
HETATM    2  C   UNL     1      25.241  48.817  39.543  1.00  0.00     0.049 A 
HETATM    3  C   UNL     1      25.585  47.622  40.166  1.00  0.00     0.018 A 
HETATM    4  C   UNL     1      24.585  46.815  40.719  1.00  0.00     0.044 A 
HETATM    5  N   UNL     1      25.128  45.656  41.248  1.00  0.00    -0.324 N 
HETATM    6  C   UNL     1      26.498  45.629  41.083  1.00  0.00     0.264 A 
HETATM    7  O   UNL     1      27.251  44.723  41.403  1.00  0.00    -0.270 OA
HETATM    8  C   UNL     1      26.920  46.943  40.325  1.00  0.00     0.250 A 
HETATM    9  N   UNL     1      27.584  46.655  38.991  1.00  0.00    -0.043 N 
HETATM   10  H   UNL     1      27.580  47.534  38.454  1.00  0.00     0.282 HD
HETATM   11  C   UNL     1      28.998  46.260  39.328  1.00  0.00     0.204 C 
HETATM   12  C   UNL     1      29.569  46.113  37.938  1.00  0.00     0.036 C 
HETATM   13  C   UNL     1      28.422  45.394  37.188  1.00  0.00     0.030 C 
HETATM   14  C   UNL     1      27.141  45.612  38.017  1.00  0.00     0.237 C 
HETATM   15  C   UNL     1      29.387  47.248  40.405  1.00  0.00     0.126 C 
HETATM   16  C   UNL     1      28.078  47.591  41.130  1.00  0.00     0.145 C 
HETATM   17  C   UNL     1      28.056  49.087  41.115  1.00  0.00     0.239 C 
HETATM   18  O   UNL     1      27.233  49.698  41.780  1.00  0.00    -0.272 OA
HETATM   19  N   UNL     1      29.023  49.561  40.252  1.00  0.00    -0.252 N 
HETATM   20  C   UNL     1      29.866  48.548  39.849  1.00  0.00     0.238 C 
HETATM   21  O   UNL     1      30.837  48.576  39.110  1.00  0.00    -0.272 OA
HETATM   22  C   UNL     1      23.250  47.149  40.694  1.00  0.00     0.033 A 
HETATM   23  C   UNL     1      22.909  48.353  40.078  1.00  0.00     0.039 A 
HETATM   24  H   UNL     1      24.602  44.919  41.705  1.00  0.00     0.169 HD
ENDROOT
BRANCH   1  25
HETATM   25  O   UNL     1      23.398  50.327  38.940  1.00  0.00    -0.356 OA
HETATM   26  C   UNL     1      22.033  50.640  39.192  1.00  0.00     0.210 C 
ENDBRANCH   1  25
BRANCH  19  27
HETATM   27  C   UNL     1      29.134  50.928  39.819  1.00  0.00     0.045 A 
HETATM   28  C   UNL     1      29.755  51.909  40.613  1.00  0.00     0.030 A 
HETATM   29  C   UNL     1      29.803  53.254  40.222  1.00  0.00     0.002 A 
HETATM   30  C   UNL     1      29.236  53.655  39.022  1.00  0.00     0.000 A 
HETATM   31  C   UNL     1      28.630  52.710  38.207  1.00  0.00     0.002 A 
HETATM   32  C   UNL     1      28.583  51.367  38.600  1.00  0.00     0.030 A 
ENDBRANCH  19  27
TORSDOF 2
ENDMDL
MODEL 8
REMARK VINA RESULT:      -7.8     19.310     22.804
REMARK  2 active torsions:
REMARK  status: ('A' for Active; 'I' for Inactive)
REMARK    1  A    between atoms: O_2  and  C_3 
REMARK    2  A    between atoms: N_21  and  C_22 
ROOT
HETATM    1  C   UNL     1      40.367  41.593  64.510  1.00  0.00     0.069 A 
HETATM    2  C   UNL     1      40.033  42.866  64.986  1.00  0.00     0.049 A 
HETATM    3  C   UNL     1      38.907  43.494  64.465  1.00  0.00     0.018 A 
HETATM    4  C   UNL     1      38.126  42.836  63.509  1.00  0.00     0.044 A 
HETATM    5  N   UNL     1      37.033  43.608  63.153  1.00  0.00    -0.324 N 
HETATM    6  C   UNL     1      37.026  44.806  63.840  1.00  0.00     0.264 A 
HETATM    7  O   UNL     1      36.172  45.675  63.777  1.00  0.00    -0.270 OA
HETATM    8  C   UNL     1      38.279  44.823  64.793  1.00  0.00     0.250 A 
HETATM    9  N   UNL     1      37.893  44.932  66.257  1.00  0.00    -0.043 N 
HETATM   10  H   UNL     1      38.720  44.669  66.811  1.00  0.00     0.282 HD
HETATM   11  C   UNL     1      37.565  46.387  66.474  1.00  0.00     0.204 C 
HETATM   12  C   UNL     1      37.310  46.382  67.962  1.00  0.00     0.036 C 
HETATM   13  C   UNL     1      36.499  45.077  68.150  1.00  0.00     0.030 C 
HETATM   14  C   UNL     1      36.756  44.209  66.903  1.00  0.00     0.237 C 
HETATM   15  C   UNL     1      38.653  47.105  65.708  1.00  0.00     0.126 C 
HETATM   16  C   UNL     1      39.025  46.163  64.555  1.00  0.00     0.145 C 
HETATM   17  C   UNL     1      40.513  46.049  64.666  1.00  0.00     0.239 C 
HETATM   18  O   UNL     1      41.159  45.515  63.778  1.00  0.00    -0.272 OA
HETATM   19  N   UNL     1      40.934  46.577  65.871  1.00  0.00    -0.252 N 
HETATM   20  C   UNL     1      39.912  47.255  66.498  1.00  0.00     0.238 C 
HETATM   21  O   UNL     1      39.900  47.860  67.559  1.00  0.00    -0.272 OA
HETATM   22  C   UNL     1      38.422  41.579  63.033  1.00  0.00     0.033 A 
HETATM   23  C   UNL     1      39.558  40.956  63.550  1.00  0.00     0.039 A 
HETATM   24  H   UNL     1      36.326  43.345  62.477  1.00  0.00     0.169 HD
ENDROOT
BRANCH   1  25
HETATM   25  O   UNL     1      41.436  40.849  64.926  1.00  0.00    -0.356 OA
HETATM   26  C   UNL     1      41.346  39.439  64.761  1.00  0.00     0.210 C 
ENDBRANCH   1  25
BRANCH  19  27
HETATM   27  C   UNL     1      42.260  46.431  66.408  1.00  0.00     0.045 A 
HETATM   28  C   UNL     1      43.235  47.433  66.258  1.00  0.00     0.030 A 
HETATM   29  C   UNL     1      44.546  47.264  66.723  1.00  0.00     0.002 A 
HETATM   30  C   UNL     1      44.919  46.087  67.356  1.00  0.00     0.000 A 
HETATM   31  C   UNL     1      43.976  45.085  67.534  1.00  0.00     0.002 A 
HETATM   32  C   UNL     1      42.667  45.257  67.070  1.00  0.00     0.030 A 
ENDBRANCH  19  27
TORSDOF 2
ENDMDL
MODEL 9
REMARK VINA RESULT:      -7.8     19.552     22.608
REMARK  2 active torsions:
REMARK  status: ('A' for Active; 'I' for Inactive)
REMARK    1  A    between atoms: O_2  and  C_3 
REMARK    2  A    between atoms: N_21  and  C_22 
ROOT
HETATM    1  C   UNL     1      35.657  47.594  68.925  1.00  0.00     0.069 A 
HETATM    2  C   UNL     1      36.731  47.573  68.028  1.00  0.00     0.049 A 
HETATM    3  C   UNL     1      37.304  48.783  67.652  1.00  0.00     0.018 A 
HETATM    4  C   UNL     1      36.820  49.979  68.194  1.00  0.00     0.044 A 
HETATM    5  N   UNL     1      37.550  51.059  67.728  1.00  0.00    -0.324 N 
HETATM    6  C   UNL     1      38.544  50.650  66.861  1.00  0.00     0.264 A 
HETATM    7  O   UNL     1      39.376  51.363  66.323  1.00  0.00    -0.270 OA
HETATM    8  C   UNL     1      38.473  49.082  66.749  1.00  0.00     0.250 A 
HETATM    9  N   UNL     1      39.750  48.409  67.218  1.00  0.00    -0.043 N 
HETATM   10  H   UNL     1      39.532  47.414  67.369  1.00  0.00     0.282 HD
HETATM   11  C   UNL     1      40.720  48.560  66.076  1.00  0.00     0.204 C 
HETATM   12  C   UNL     1      41.888  47.768  66.615  1.00  0.00     0.036 C 
HETATM   13  C   UNL     1      41.925  48.208  68.097  1.00  0.00     0.030 C 
HETATM   14  C   UNL     1      40.543  48.810  68.419  1.00  0.00     0.237 C 
HETATM   15  C   UNL     1      39.871  48.273  64.858  1.00  0.00     0.126 C 
HETATM   16  C   UNL     1      38.454  48.724  65.239  1.00  0.00     0.145 C 
HETATM   17  C   UNL     1      37.612  47.531  64.915  1.00  0.00     0.239 C 
HETATM   18  O   UNL     1      36.393  47.615  64.925  1.00  0.00    -0.272 OA
HETATM   19  N   UNL     1      38.420  46.437  64.678  1.00  0.00    -0.252 N 
HETATM   20  C   UNL     1      39.742  46.812  64.576  1.00  0.00     0.238 C 
HETATM   21  O   UNL     1      40.739  46.141  64.359  1.00  0.00    -0.272 OA
HETATM   22  C   UNL     1      35.775  50.029  69.089  1.00  0.00     0.033 A 
HETATM   23  C   UNL     1      35.196  48.814  69.456  1.00  0.00     0.039 A 
HETATM   24  H   UNL     1      37.385  52.027  67.977  1.00  0.00     0.169 HD
ENDROOT
BRANCH   1  25
HETATM   25  O   UNL     1      34.995  46.493  69.392  1.00  0.00    -0.356 OA
HETATM   26  C   UNL     1      35.360  45.235  68.834  1.00  0.00     0.210 C 
ENDBRANCH   1  25
BRANCH  19  27
HETATM   27  C   UNL     1      37.951  45.083  64.564  1.00  0.00     0.045 A 
HETATM   28  C   UNL     1      37.700  44.287  65.695  1.00  0.00     0.030 A 
HETATM   29  C   UNL     1      37.308  42.946  65.584  1.00  0.00     0.002 A 
HETATM   30  C   UNL     1      37.151  42.364  64.335  1.00  0.00     0.000 A 
HETATM   31  C   UNL     1      37.375  43.126  63.197  1.00  0.00     0.002 A 
HETATM   32  C   UNL     1      37.767  44.465  63.312  1.00  0.00     0.030 A 
ENDBRANCH  19  27
TORSDOF 2
ENDMDL
MODEL 10
REMARK VINA RESULT:      -7.7      6.299     10.847
REMARK  2 active torsions:
REMARK  status: ('A' for Active; 'I' for Inactive)
REMARK    1  A    between atoms: O_2  and  C_3 
REMARK    2  A    between atoms: N_21  and  C_22 
ROOT
HETATM    1  C   UNL     1      19.234  46.321  45.807  1.00  0.00     0.069 A 
HETATM    2  C   UNL     1      18.664  47.468  46.373  1.00  0.00     0.049 A 
HETATM    3  C   UNL     1      18.737  47.631  47.752  1.00  0.00     0.018 A 
HETATM    4  C   UNL     1      19.394  46.672  48.531  1.00  0.00     0.044 A 
HETATM    5  N   UNL     1      19.392  47.041  49.866  1.00  0.00    -0.324 N 
HETATM    6  C   UNL     1      18.743  48.246  50.048  1.00  0.00     0.264 A 
HETATM    7  O   UNL     1      18.616  48.851  51.100  1.00  0.00    -0.270 OA
HETATM    8  C   UNL     1      18.260  48.753  48.638  1.00  0.00     0.250 A 
HETATM    9  N   UNL     1      18.876  50.087  48.260  1.00  0.00    -0.043 N 
HETATM   10  H   UNL     1      18.733  50.213  47.248  1.00  0.00     0.282 HD
HETATM   11  C   UNL     1      18.090  51.119  49.026  1.00  0.00     0.204 C 
HETATM   12  C   UNL     1      18.716  52.383  48.487  1.00  0.00     0.036 C 
HETATM   13  C   UNL     1      20.218  52.013  48.450  1.00  0.00     0.030 C 
HETATM   14  C   UNL     1      20.300  50.475  48.494  1.00  0.00     0.237 C 
HETATM   15  C   UNL     1      16.662  50.642  48.885  1.00  0.00     0.126 C 
HETATM   16  C   UNL     1      16.756  49.115  48.764  1.00  0.00     0.145 C 
HETATM   17  C   UNL     1      15.961  48.814  47.533  1.00  0.00     0.239 C 
HETATM   18  O   UNL     1      15.674  47.661  47.250  1.00  0.00    -0.272 OA
HETATM   19  N   UNL     1      15.697  49.984  46.849  1.00  0.00    -0.252 N 
HETATM   20  C   UNL     1      16.029  51.086  47.607  1.00  0.00     0.238 C 
HETATM   21  O   UNL     1      15.930  52.276  47.356  1.00  0.00    -0.272 OA
HETATM   22  C   UNL     1      19.975  45.543  48.000  1.00  0.00     0.033 A 
HETATM   23  C   UNL     1      19.892  45.377  46.618  1.00  0.00     0.039 A 
HETATM   24  H   UNL     1      19.805  46.506  50.621  1.00  0.00     0.169 HD
ENDROOT
BRANCH   1  25
HETATM   25  O   UNL     1      19.248  46.022  44.473  1.00  0.00    -0.356 OA
HETATM   26  C   UNL     1      19.018  47.096  43.568  1.00  0.00     0.210 C 
ENDBRANCH   1  25
BRANCH  19  27
HETATM   27  C   UNL     1      15.158  50.049  45.518  1.00  0.00     0.045 A 
HETATM   28  C   UNL     1      13.776  50.152  45.282  1.00  0.00     0.030 A 
HETATM   29  C   UNL     1      13.245  50.148  43.985  1.00  0.00     0.002 A 
HETATM   30  C   UNL     1      14.084  50.045  42.885  1.00  0.00     0.000 A 
HETATM   31  C   UNL     1      15.455  49.958  43.082  1.00  0.00     0.002 A 
HETATM   32  C   UNL     1      15.982  49.963  44.379  1.00  0.00     0.030 A 
ENDBRANCH  19  27
TORSDOF 2
ENDMDL
