MODEL 1
REMARK VINA RESULT:      -9.3      0.000      0.000
REMARK  8 active torsions:
REMARK  status: ('A' for Active; 'I' for Inactive)
REMARK    1  A    between atoms: O_2  and  C_3 
REMARK    2  A    between atoms: C_3  and  C_4 
REMARK    3  A    between atoms: C_4  and  N_5 
REMARK    4  A    between atoms: N_5  and  C_6 
REMARK       I    between atoms: N_5  and  C_15 
REMARK    5  A    between atoms: C_6  and  C_7 
REMARK    6  A    between atoms: C_11  and  O_12 
REMARK    7  A    between atoms: C_15  and  C_17 
REMARK    8  A    between atoms: C_22  and  C_26 
ROOT
HETATM    1  N   UNL     1      24.951  45.212  50.120  1.00  0.00    -0.340 N 
HETATM    2  C   UNL     1      25.986  44.349  50.546  1.00  0.00     0.279 C 
HETATM    3  O   UNL     1      26.312  43.390  49.841  1.00  0.00    -0.265 OA
ENDROOT
BRANCH   2   4
HETATM    4  C   UNL     1      26.667  44.602  51.825  1.00  0.00     0.166 A 
HETATM    5  N   UNL     1      26.447  45.630  52.621  1.00  0.00    -0.235 NA
HETATM    6  C   UNL     1      27.297  45.578  53.711  1.00  0.00     0.075 A 
HETATM    7  C   UNL     1      27.374  46.527  54.748  1.00  0.00     0.034 A 
HETATM    8  C   UNL     1      28.155  44.479  53.748  1.00  0.00     0.036 A 
HETATM    9  C   UNL     1      28.312  46.360  55.778  1.00  0.00     0.014 A 
HETATM   10  C   UNL     1      29.174  45.258  55.799  1.00  0.00    -0.022 A 
HETATM   11  C   UNL     1      29.094  44.298  54.778  1.00  0.00     0.033 A 
HETATM   12  S   UNL     1      27.848  43.483  52.381  1.00  0.00    -0.063 SA
BRANCH  10  13
HETATM   13  C   UNL     1      30.166  45.100  56.850  1.00  0.00     0.010 A 
HETATM   14  C   UNL     1      31.170  44.119  57.033  1.00  0.00     0.152 A 
HETATM   15  N   UNL     1      31.884  44.309  58.144  1.00  0.00    -0.187 NA
HETATM   16  N   UNL     1      31.339  45.409  58.683  1.00  0.00    -0.289 N 
HETATM   17  H   UNL     1      31.719  45.755  59.559  1.00  0.00     0.188 HD
HETATM   18  C   UNL     1      30.308  45.921  57.947  1.00  0.00     0.123 A 
ENDBRANCH  10  13
ENDBRANCH   2   4
BRANCH   1  19
HETATM   19  C   UNL     1      24.266  44.994  48.834  1.00  0.00     0.152 C 
BRANCH  19  20
HETATM   20  C   UNL     1      22.736  44.886  48.807  1.00  0.00     0.187 C 
BRANCH  20  21
HETATM   21  O   UNL     1      22.353  43.667  49.458  1.00  0.00    -0.394 OA
HETATM   22  C   UNL     1      22.938  42.536  48.824  1.00  0.00     0.201 C 
ENDBRANCH  20  21
ENDBRANCH  19  20
ENDBRANCH   1  19
BRANCH   1  23
HETATM   23  C   UNL     1      24.786  46.561  50.674  1.00  0.00     0.164 C 
BRANCH  23  24
HETATM   24  C   UNL     1      25.405  47.683  49.868  1.00  0.00    -0.038 A 
HETATM   25  C   UNL     1      26.788  47.874  49.754  1.00  0.00     0.009 A 
HETATM   26  C   UNL     1      27.298  48.918  48.983  1.00  0.00     0.003 A 
HETATM   27  C   UNL     1      26.430  49.774  48.304  1.00  0.00     0.037 A 
HETATM   28  C   UNL     1      25.050  49.593  48.385  1.00  0.00     0.068 A 
HETATM   29  C   UNL     1      24.544  48.552  49.166  1.00  0.00     0.045 A 
BRANCH  28  30
HETATM   30  O   UNL     1      24.310  50.491  47.664  1.00  0.00    -0.356 OA
HETATM   31  C   UNL     1      22.899  50.313  47.667  1.00  0.00     0.210 C 
ENDBRANCH  28  30
ENDBRANCH  23  24
ENDBRANCH   1  23
TORSDOF 8
ENDMDL
MODEL 2
REMARK VINA RESULT:      -8.6      3.166      5.799
REMARK  8 active torsions:
REMARK  status: ('A' for Active; 'I' for Inactive)
REMARK    1  A    between atoms: O_2  and  C_3 
REMARK    2  A    between atoms: C_3  and  C_4 
REMARK    3  A    between atoms: C_4  and  N_5 
REMARK    4  A    between atoms: N_5  and  C_6 
REMARK       I    between atoms: N_5  and  C_15 
REMARK    5  A    between atoms: C_6  and  C_7 
REMARK    6  A    between atoms: C_11  and  O_12 
REMARK    7  A    between atoms: C_15  and  C_17 
REMARK    8  A    between atoms: C_22  and  C_26 
ROOT
HETATM    1  N   UNL     1      25.318  43.033  49.890  1.00  0.00    -0.340 N 
HETATM    2  C   UNL     1      25.711  44.223  50.542  1.00  0.00     0.279 C 
HETATM    3  O   UNL     1      25.157  45.288  50.258  1.00  0.00    -0.265 OA
ENDROOT
BRANCH   2   4
HETATM    4  C   UNL     1      26.776  44.182  51.556  1.00  0.00     0.166 A 
HETATM    5  N   UNL     1      27.883  43.471  51.478  1.00  0.00    -0.235 NA
HETATM    6  C   UNL     1      28.636  43.632  52.627  1.00  0.00     0.075 A 
HETATM    7  C   UNL     1      29.859  42.997  52.913  1.00  0.00     0.034 A 
HETATM    8  C   UNL     1      28.097  44.499  53.576  1.00  0.00     0.036 A 
HETATM    9  C   UNL     1      30.497  43.233  54.140  1.00  0.00     0.014 A 
HETATM   10  C   UNL     1      29.942  44.098  55.089  1.00  0.00    -0.022 A 
HETATM   11  C   UNL     1      28.730  44.748  54.807  1.00  0.00     0.033 A 
HETATM   12  S   UNL     1      26.619  45.139  52.975  1.00  0.00    -0.063 SA
BRANCH  10  13
HETATM   13  C   UNL     1      30.588  44.320  56.372  1.00  0.00     0.010 A 
HETATM   14  C   UNL     1      31.580  43.572  57.049  1.00  0.00     0.152 A 
HETATM   15  N   UNL     1      31.912  44.098  58.230  1.00  0.00    -0.187 NA
HETATM   16  N   UNL     1      31.130  45.184  58.319  1.00  0.00    -0.289 N 
HETATM   17  H   UNL     1      31.199  45.759  59.153  1.00  0.00     0.188 HD
HETATM   18  C   UNL     1      30.320  45.362  57.233  1.00  0.00     0.123 A 
ENDBRANCH  10  13
ENDBRANCH   2   4
BRANCH   1  19
HETATM   19  C   UNL     1      24.240  43.041  48.886  1.00  0.00     0.152 C 
BRANCH  19  20
HETATM   20  C   UNL     1      22.881  42.422  49.236  1.00  0.00     0.187 C 
BRANCH  20  21
HETATM   21  O   UNL     1      22.224  42.045  48.019  1.00  0.00    -0.394 OA
HETATM   22  C   UNL     1      22.659  40.766  47.571  1.00  0.00     0.201 C 
ENDBRANCH  20  21
ENDBRANCH  19  20
ENDBRANCH   1  19
BRANCH   1  23
HETATM   23  C   UNL     1      25.623  41.707  50.441  1.00  0.00     0.164 C 
BRANCH  23  24
HETATM   24  C   UNL     1      26.698  40.925  49.716  1.00  0.00    -0.038 A 
HETATM   25  C   UNL     1      27.347  41.396  48.569  1.00  0.00     0.009 A 
HETATM   26  C   UNL     1      28.343  40.635  47.956  1.00  0.00     0.003 A 
HETATM   27  C   UNL     1      28.709  39.401  48.493  1.00  0.00     0.037 A 
HETATM   28  C   UNL     1      28.091  38.919  49.645  1.00  0.00     0.068 A 
HETATM   29  C   UNL     1      27.090  39.681  50.251  1.00  0.00     0.045 A 
BRANCH  28  30
HETATM   30  O   UNL     1      28.549  37.703  50.076  1.00  0.00    -0.356 OA
HETATM   31  C   UNL     1      29.880  37.657  50.577  1.00  0.00     0.210 C 
ENDBRANCH  28  30
ENDBRANCH  23  24
ENDBRANCH   1  23
TORSDOF 8
ENDMDL
MODEL 3
REMARK VINA RESULT:      -8.4      3.267      8.461
REMARK  8 active torsions:
REMARK  status: ('A' for Active; 'I' for Inactive)
REMARK    1  A    between atoms: O_2  and  C_3 
REMARK    2  A    between atoms: C_3  and  C_4 
REMARK    3  A    between atoms: C_4  and  N_5 
REMARK    4  A    between atoms: N_5  and  C_6 
REMARK       I    between atoms: N_5  and  C_15 
REMARK    5  A    between atoms: C_6  and  C_7 
REMARK    6  A    between atoms: C_11  and  O_12 
REMARK    7  A    between atoms: C_15  and  C_17 
REMARK    8  A    between atoms: C_22  and  C_26 
ROOT
HETATM    1  N   UNL     1      26.934  43.193  52.164  1.00  0.00    -0.340 N 
HETATM    2  C   UNL     1      26.818  43.451  50.779  1.00  0.00     0.279 C 
HETATM    3  O   UNL     1      27.258  42.634  49.966  1.00  0.00    -0.265 OA
ENDROOT
BRANCH   2   4
HETATM    4  C   UNL     1      26.172  44.689  50.318  1.00  0.00     0.166 A 
HETATM    5  N   UNL     1      26.780  45.840  50.111  1.00  0.00    -0.235 NA
HETATM    6  C   UNL     1      25.862  46.802  49.730  1.00  0.00     0.075 A 
HETATM    7  C   UNL     1      26.141  48.155  49.462  1.00  0.00     0.034 A 
HETATM    8  C   UNL     1      24.544  46.360  49.624  1.00  0.00     0.036 A 
HETATM    9  C   UNL     1      25.099  49.027  49.114  1.00  0.00     0.014 A 
HETATM   10  C   UNL     1      23.778  48.575  49.021  1.00  0.00    -0.022 A 
HETATM   11  C   UNL     1      23.492  47.224  49.271  1.00  0.00     0.033 A 
HETATM   12  S   UNL     1      24.484  44.682  49.992  1.00  0.00    -0.063 SA
BRANCH  10  13
HETATM   13  C   UNL     1      22.694  49.484  48.690  1.00  0.00     0.010 A 
HETATM   14  C   UNL     1      21.515  49.279  47.933  1.00  0.00     0.152 A 
HETATM   15  N   UNL     1      20.761  50.377  47.841  1.00  0.00    -0.187 NA
HETATM   16  N   UNL     1      21.454  51.293  48.533  1.00  0.00    -0.289 N 
HETATM   17  H   UNL     1      21.076  52.232  48.602  1.00  0.00     0.188 HD
HETATM   18  C   UNL     1      22.617  50.809  49.062  1.00  0.00     0.123 A 
ENDBRANCH  10  13
ENDBRANCH   2   4
BRANCH   1  19
HETATM   19  C   UNL     1      27.558  41.952  52.653  1.00  0.00     0.152 C 
BRANCH  19  20
HETATM   20  C   UNL     1      29.065  41.742  52.461  1.00  0.00     0.187 C 
BRANCH  20  21
HETATM   21  O   UNL     1      29.732  42.990  52.688  1.00  0.00    -0.394 OA
HETATM   22  C   UNL     1      30.476  42.966  53.901  1.00  0.00     0.201 C 
ENDBRANCH  20  21
ENDBRANCH  19  20
ENDBRANCH   1  19
BRANCH   1  23
HETATM   23  C   UNL     1      26.102  43.886  53.155  1.00  0.00     0.164 C 
BRANCH  23  24
HETATM   24  C   UNL     1      26.730  45.096  53.812  1.00  0.00    -0.038 A 
HETATM   25  C   UNL     1      26.326  46.410  53.545  1.00  0.00     0.009 A 
HETATM   26  C   UNL     1      26.934  47.484  54.196  1.00  0.00     0.003 A 
HETATM   27  C   UNL     1      27.943  47.253  55.131  1.00  0.00     0.037 A 
HETATM   28  C   UNL     1      28.350  45.953  55.428  1.00  0.00     0.068 A 
HETATM   29  C   UNL     1      27.744  44.883  54.768  1.00  0.00     0.045 A 
BRANCH  28  30
HETATM   30  O   UNL     1      29.339  45.863  56.371  1.00  0.00    -0.356 OA
HETATM   31  C   UNL     1      28.967  46.116  57.720  1.00  0.00     0.210 C 
ENDBRANCH  28  30
ENDBRANCH  23  24
ENDBRANCH   1  23
TORSDOF 8
ENDMDL
MODEL 4
REMARK VINA RESULT:      -8.2      4.378      7.343
REMARK  8 active torsions:
REMARK  status: ('A' for Active; 'I' for Inactive)
REMARK    1  A    between atoms: O_2  and  C_3 
REMARK    2  A    between atoms: C_3  and  C_4 
REMARK    3  A    between atoms: C_4  and  N_5 
REMARK    4  A    between atoms: N_5  and  C_6 
REMARK       I    between atoms: N_5  and  C_15 
REMARK    5  A    between atoms: C_6  and  C_7 
REMARK    6  A    between atoms: C_11  and  O_12 
REMARK    7  A    between atoms: C_15  and  C_17 
REMARK    8  A    between atoms: C_22  and  C_26 
ROOT
HETATM    1  N   UNL     1      21.161  49.340  48.280  1.00  0.00    -0.340 N 
HETATM    2  C   UNL     1      22.559  49.190  48.139  1.00  0.00     0.279 C 
HETATM    3  O   UNL     1      23.184  49.947  47.392  1.00  0.00    -0.265 OA
ENDROOT
BRANCH   2   4
HETATM    4  C   UNL     1      23.259  48.133  48.886  1.00  0.00     0.166 A 
HETATM    5  N   UNL     1      24.029  48.320  49.939  1.00  0.00    -0.235 NA
HETATM    6  C   UNL     1      24.564  47.115  50.358  1.00  0.00     0.075 A 
HETATM    7  C   UNL     1      25.461  46.933  51.428  1.00  0.00     0.034 A 
HETATM    8  C   UNL     1      24.170  45.999  49.621  1.00  0.00     0.036 A 
HETATM    9  C   UNL     1      25.948  45.651  51.719  1.00  0.00     0.014 A 
HETATM   10  C   UNL     1      25.552  44.539  50.967  1.00  0.00    -0.022 A 
HETATM   11  C   UNL     1      24.647  44.708  49.908  1.00  0.00     0.033 A 
HETATM   12  S   UNL     1      23.076  46.497  48.393  1.00  0.00    -0.063 SA
BRANCH  10  13
HETATM   13  C   UNL     1      26.079  43.214  51.250  1.00  0.00     0.010 A 
HETATM   14  C   UNL     1      27.236  42.812  51.959  1.00  0.00     0.152 A 
HETATM   15  N   UNL     1      27.390  41.486  51.992  1.00  0.00    -0.187 NA
HETATM   16  N   UNL     1      26.335  41.031  51.299  1.00  0.00    -0.289 N 
HETATM   17  H   UNL     1      26.235  40.028  51.179  1.00  0.00     0.188 HD
HETATM   18  C   UNL     1      25.520  42.025  50.835  1.00  0.00     0.123 A 
ENDBRANCH  10  13
ENDBRANCH   2   4
BRANCH   1  19
HETATM   19  C   UNL     1      20.438  50.403  47.560  1.00  0.00     0.152 C 
BRANCH  19  20
HETATM   20  C   UNL     1      20.005  51.664  48.318  1.00  0.00     0.187 C 
BRANCH  20  21
HETATM   21  O   UNL     1      18.576  51.660  48.432  1.00  0.00    -0.394 OA
HETATM   22  C   UNL     1      18.152  52.289  49.636  1.00  0.00     0.201 C 
ENDBRANCH  20  21
ENDBRANCH  19  20
ENDBRANCH   1  19
BRANCH   1  23
HETATM   23  C   UNL     1      20.429  48.773  49.419  1.00  0.00     0.164 C 
BRANCH  23  24
HETATM   24  C   UNL     1      19.271  47.863  49.069  1.00  0.00    -0.038 A 
HETATM   25  C   UNL     1      17.930  48.243  49.200  1.00  0.00     0.009 A 
HETATM   26  C   UNL     1      16.907  47.364  48.844  1.00  0.00     0.003 A 
HETATM   27  C   UNL     1      17.215  46.100  48.341  1.00  0.00     0.037 A 
HETATM   28  C   UNL     1      18.543  45.705  48.183  1.00  0.00     0.068 A 
HETATM   29  C   UNL     1      19.563  46.585  48.548  1.00  0.00     0.045 A 
BRANCH  28  30
HETATM   30  O   UNL     1      18.710  44.448  47.669  1.00  0.00    -0.356 OA
HETATM   31  C   UNL     1      18.552  44.300  46.263  1.00  0.00     0.210 C 
ENDBRANCH  28  30
ENDBRANCH  23  24
ENDBRANCH   1  23
TORSDOF 8
ENDMDL
MODEL 5
REMARK VINA RESULT:      -8.0      3.989      5.930
REMARK  8 active torsions:
REMARK  status: ('A' for Active; 'I' for Inactive)
REMARK    1  A    between atoms: O_2  and  C_3 
REMARK    2  A    between atoms: C_3  and  C_4 
REMARK    3  A    between atoms: C_4  and  N_5 
REMARK    4  A    between atoms: N_5  and  C_6 
REMARK       I    between atoms: N_5  and  C_15 
REMARK    5  A    between atoms: C_6  and  C_7 
REMARK    6  A    between atoms: C_11  and  O_12 
REMARK    7  A    between atoms: C_15  and  C_17 
REMARK    8  A    between atoms: C_22  and  C_26 
ROOT
HETATM    1  N   UNL     1      20.622  47.273  47.940  1.00  0.00    -0.340 N 
HETATM    2  C   UNL     1      21.899  46.750  47.635  1.00  0.00     0.279 C 
HETATM    3  O   UNL     1      22.214  46.555  46.458  1.00  0.00    -0.265 OA
ENDROOT
BRANCH   2   4
HETATM    4  C   UNL     1      22.842  46.446  48.721  1.00  0.00     0.166 A 
HETATM    5  N   UNL     1      23.049  45.255  49.247  1.00  0.00    -0.235 NA
HETATM    6  C   UNL     1      23.965  45.342  50.280  1.00  0.00     0.075 A 
HETATM    7  C   UNL     1      24.400  44.280  51.095  1.00  0.00     0.034 A 
HETATM    8  C   UNL     1      24.475  46.618  50.519  1.00  0.00     0.036 A 
HETATM    9  C   UNL     1      25.314  44.525  52.130  1.00  0.00     0.014 A 
HETATM   10  C   UNL     1      25.812  45.811  52.367  1.00  0.00    -0.022 A 
HETATM   11  C   UNL     1      25.397  46.874  51.549  1.00  0.00     0.033 A 
HETATM   12  S   UNL     1      23.792  47.715  49.386  1.00  0.00    -0.063 SA
BRANCH  10  13
HETATM   13  C   UNL     1      26.737  46.070  53.457  1.00  0.00     0.010 A 
HETATM   14  C   UNL     1      26.979  47.248  54.203  1.00  0.00     0.152 A 
HETATM   15  N   UNL     1      27.930  47.091  55.127  1.00  0.00    -0.187 NA
HETATM   16  N   UNL     1      28.306  45.813  54.975  1.00  0.00    -0.289 N 
HETATM   17  H   UNL     1      29.040  45.453  55.577  1.00  0.00     0.188 HD
HETATM   18  C   UNL     1      27.622  45.158  53.990  1.00  0.00     0.123 A 
ENDBRANCH  10  13
ENDBRANCH   2   4
BRANCH   1  19
HETATM   19  C   UNL     1      19.665  47.606  46.871  1.00  0.00     0.152 C 
BRANCH  19  20
HETATM   20  C   UNL     1      18.469  46.679  46.616  1.00  0.00     0.187 C 
BRANCH  20  21
HETATM   21  O   UNL     1      17.288  47.305  47.132  1.00  0.00    -0.394 OA
HETATM   22  C   UNL     1      16.921  46.759  48.394  1.00  0.00     0.201 C 
ENDBRANCH  20  21
ENDBRANCH  19  20
ENDBRANCH   1  19
BRANCH   1  23
HETATM   23  C   UNL     1      20.328  47.901  49.234  1.00  0.00     0.164 C 
BRANCH  23  24
HETATM   24  C   UNL     1      19.949  49.365  49.183  1.00  0.00    -0.038 A 
HETATM   25  C   UNL     1      20.761  50.349  48.606  1.00  0.00     0.009 A 
HETATM   26  C   UNL     1      20.348  51.681  48.575  1.00  0.00     0.003 A 
HETATM   27  C   UNL     1      19.111  52.041  49.109  1.00  0.00     0.037 A 
HETATM   28  C   UNL     1      18.275  51.077  49.671  1.00  0.00     0.068 A 
HETATM   29  C   UNL     1      18.696  49.747  49.707  1.00  0.00     0.045 A 
BRANCH  28  30
HETATM   30  O   UNL     1      17.085  51.558  50.147  1.00  0.00    -0.356 OA
HETATM   31  C   UNL     1      16.745  52.896  49.801  1.00  0.00     0.210 C 
ENDBRANCH  28  30
ENDBRANCH  23  24
ENDBRANCH   1  23
TORSDOF 8
ENDMDL
MODEL 6
REMARK VINA RESULT:      -8.0      3.443      8.419
REMARK  8 active torsions:
REMARK  status: ('A' for Active; 'I' for Inactive)
REMARK    1  A    between atoms: O_2  and  C_3 
REMARK    2  A    between atoms: C_3  and  C_4 
REMARK    3  A    between atoms: C_4  and  N_5 
REMARK    4  A    between atoms: N_5  and  C_6 
REMARK       I    between atoms: N_5  and  C_15 
REMARK    5  A    between atoms: C_6  and  C_7 
REMARK    6  A    between atoms: C_11  and  O_12 
REMARK    7  A    between atoms: C_15  and  C_17 
REMARK    8  A    between atoms: C_22  and  C_26 
ROOT
HETATM    1  N   UNL     1      27.061  43.569  51.373  1.00  0.00    -0.340 N 
HETATM    2  C   UNL     1      26.721  43.843  50.029  1.00  0.00     0.279 C 
HETATM    3  O   UNL     1      27.285  43.229  49.119  1.00  0.00    -0.265 OA
ENDROOT
BRANCH   2   4
HETATM    4  C   UNL     1      25.698  44.854  49.726  1.00  0.00     0.166 A 
HETATM    5  N   UNL     1      25.833  46.155  49.887  1.00  0.00    -0.235 NA
HETATM    6  C   UNL     1      24.658  46.802  49.550  1.00  0.00     0.075 A 
HETATM    7  C   UNL     1      24.421  48.188  49.633  1.00  0.00     0.034 A 
HETATM    8  C   UNL     1      23.628  45.975  49.103  1.00  0.00     0.036 A 
HETATM    9  C   UNL     1      23.163  48.702  49.285  1.00  0.00     0.014 A 
HETATM   10  C   UNL     1      22.133  47.861  48.848  1.00  0.00    -0.022 A 
HETATM   11  C   UNL     1      22.365  46.480  48.747  1.00  0.00     0.033 A 
HETATM   12  S   UNL     1      24.183  44.349  49.089  1.00  0.00    -0.063 SA
BRANCH  10  13
HETATM   13  C   UNL     1      20.821  48.389  48.516  1.00  0.00     0.010 A 
HETATM   14  C   UNL     1      20.442  49.621  47.932  1.00  0.00     0.152 A 
HETATM   15  N   UNL     1      19.120  49.746  47.797  1.00  0.00    -0.187 NA
HETATM   16  N   UNL     1      18.644  48.598  48.298  1.00  0.00    -0.289 N 
HETATM   17  H   UNL     1      17.638  48.458  48.311  1.00  0.00     0.188 HD
HETATM   18  C   UNL     1      19.621  47.751  48.741  1.00  0.00     0.123 A 
ENDBRANCH  10  13
ENDBRANCH   2   4
BRANCH   1  19
HETATM   19  C   UNL     1      28.068  42.547  51.707  1.00  0.00     0.152 C 
BRANCH  19  20
HETATM   20  C   UNL     1      27.605  41.144  52.123  1.00  0.00     0.187 C 
BRANCH  20  21
HETATM   21  O   UNL     1      27.148  40.450  50.955  1.00  0.00    -0.394 OA
HETATM   22  C   UNL     1      28.240  39.988  50.167  1.00  0.00     0.201 C 
ENDBRANCH  20  21
ENDBRANCH  19  20
ENDBRANCH   1  19
BRANCH   1  23
HETATM   23  C   UNL     1      26.180  43.940  52.488  1.00  0.00     0.164 C 
BRANCH  23  24
HETATM   24  C   UNL     1      26.728  44.980  53.441  1.00  0.00    -0.038 A 
HETATM   25  C   UNL     1      27.964  44.854  54.087  1.00  0.00     0.009 A 
HETATM   26  C   UNL     1      28.422  45.857  54.942  1.00  0.00     0.003 A 
HETATM   27  C   UNL     1      27.655  47.004  55.148  1.00  0.00     0.037 A 
HETATM   28  C   UNL     1      26.431  47.162  54.501  1.00  0.00     0.068 A 
HETATM   29  C   UNL     1      25.973  46.152  53.653  1.00  0.00     0.045 A 
BRANCH  28  30
HETATM   30  O   UNL     1      25.783  48.336  54.779  1.00  0.00    -0.356 OA
HETATM   31  C   UNL     1      26.146  49.003  55.981  1.00  0.00     0.210 C 
ENDBRANCH  28  30
ENDBRANCH  23  24
ENDBRANCH   1  23
TORSDOF 8
ENDMDL
MODEL 7
REMARK VINA RESULT:      -7.9      1.844      2.980
REMARK  8 active torsions:
REMARK  status: ('A' for Active; 'I' for Inactive)
REMARK    1  A    between atoms: O_2  and  C_3 
REMARK    2  A    between atoms: C_3  and  C_4 
REMARK    3  A    between atoms: C_4  and  N_5 
REMARK    4  A    between atoms: N_5  and  C_6 
REMARK       I    between atoms: N_5  and  C_15 
REMARK    5  A    between atoms: C_6  and  C_7 
REMARK    6  A    between atoms: C_11  and  O_12 
REMARK    7  A    between atoms: C_15  and  C_17 
REMARK    8  A    between atoms: C_22  and  C_26 
ROOT
HETATM    1  N   UNL     1      23.150  45.748  48.917  1.00  0.00    -0.340 N 
HETATM    2  C   UNL     1      24.040  44.656  49.022  1.00  0.00     0.279 C 
HETATM    3  O   UNL     1      24.121  43.841  48.098  1.00  0.00    -0.265 OA
ENDROOT
BRANCH   2   4
HETATM    4  C   UNL     1      24.865  44.499  50.229  1.00  0.00     0.166 A 
HETATM    5  N   UNL     1      24.412  44.441  51.465  1.00  0.00    -0.235 NA
HETATM    6  C   UNL     1      25.467  44.342  52.355  1.00  0.00     0.075 A 
HETATM    7  C   UNL     1      25.366  44.296  53.759  1.00  0.00     0.034 A 
HETATM    8  C   UNL     1      26.734  44.300  51.776  1.00  0.00     0.036 A 
HETATM    9  C   UNL     1      26.530  44.227  54.539  1.00  0.00     0.014 A 
HETATM   10  C   UNL     1      27.797  44.195  53.947  1.00  0.00    -0.022 A 
HETATM   11  C   UNL     1      27.907  44.225  52.548  1.00  0.00     0.033 A 
HETATM   12  S   UNL     1      26.571  44.361  50.066  1.00  0.00    -0.063 SA
BRANCH  10  13
HETATM   13  C   UNL     1      29.004  44.153  54.756  1.00  0.00     0.010 A 
HETATM   14  C   UNL     1      29.552  45.106  55.647  1.00  0.00     0.152 A 
HETATM   15  N   UNL     1      30.698  44.701  56.199  1.00  0.00    -0.187 NA
HETATM   16  N   UNL     1      30.893  43.488  55.662  1.00  0.00    -0.289 N 
HETATM   17  H   UNL     1      31.724  42.970  55.931  1.00  0.00     0.188 HD
HETATM   18  C   UNL     1      29.907  43.114  54.793  1.00  0.00     0.123 A 
ENDBRANCH  10  13
ENDBRANCH   2   4
BRANCH   1  19
HETATM   19  C   UNL     1      22.327  45.941  47.710  1.00  0.00     0.152 C 
BRANCH  19  20
HETATM   20  C   UNL     1      20.799  45.977  47.841  1.00  0.00     0.187 C 
BRANCH  20  21
HETATM   21  O   UNL     1      20.252  44.871  47.111  1.00  0.00    -0.394 OA
HETATM   22  C   UNL     1      19.908  45.247  45.782  1.00  0.00     0.201 C 
ENDBRANCH  20  21
ENDBRANCH  19  20
ENDBRANCH   1  19
BRANCH   1  23
HETATM   23  C   UNL     1      23.287  46.946  49.755  1.00  0.00     0.164 C 
BRANCH  23  24
HETATM   24  C   UNL     1      23.622  48.227  49.022  1.00  0.00    -0.038 A 
HETATM   25  C   UNL     1      22.650  49.123  48.560  1.00  0.00     0.009 A 
HETATM   26  C   UNL     1      23.023  50.297  47.905  1.00  0.00     0.003 A 
HETATM   27  C   UNL     1      24.373  50.594  47.719  1.00  0.00     0.037 A 
HETATM   28  C   UNL     1      25.360  49.728  48.187  1.00  0.00     0.068 A 
HETATM   29  C   UNL     1      24.981  48.551  48.834  1.00  0.00     0.045 A 
BRANCH  28  30
HETATM   30  O   UNL     1      26.643  50.141  47.951  1.00  0.00    -0.356 OA
HETATM   31  C   UNL     1      27.633  49.733  48.888  1.00  0.00     0.210 C 
ENDBRANCH  28  30
ENDBRANCH  23  24
ENDBRANCH   1  23
TORSDOF 8
ENDMDL
MODEL 8
REMARK VINA RESULT:      -7.9      1.709      2.238
REMARK  8 active torsions:
REMARK  status: ('A' for Active; 'I' for Inactive)
REMARK    1  A    between atoms: O_2  and  C_3 
REMARK    2  A    between atoms: C_3  and  C_4 
REMARK    3  A    between atoms: C_4  and  N_5 
REMARK    4  A    between atoms: N_5  and  C_6 
REMARK       I    between atoms: N_5  and  C_15 
REMARK    5  A    between atoms: C_6  and  C_7 
REMARK    6  A    between atoms: C_11  and  O_12 
REMARK    7  A    between atoms: C_15  and  C_17 
REMARK    8  A    between atoms: C_22  and  C_26 
ROOT
HETATM    1  N   UNL     1      23.837  45.906  49.699  1.00  0.00    -0.340 N 
HETATM    2  C   UNL     1      24.064  44.954  50.718  1.00  0.00     0.279 C 
HETATM    3  O   UNL     1      23.536  43.841  50.644  1.00  0.00    -0.265 OA
ENDROOT
BRANCH   2   4
HETATM    4  C   UNL     1      24.929  45.297  51.858  1.00  0.00     0.166 A 
HETATM    5  N   UNL     1      25.109  46.507  52.347  1.00  0.00    -0.235 NA
HETATM    6  C   UNL     1      26.024  46.471  53.384  1.00  0.00     0.075 A 
HETATM    7  C   UNL     1      26.489  47.578  54.119  1.00  0.00     0.034 A 
HETATM    8  C   UNL     1      26.523  45.207  53.695  1.00  0.00     0.036 A 
HETATM    9  C   UNL     1      27.447  47.393  55.126  1.00  0.00     0.014 A 
HETATM   10  C   UNL     1      27.948  46.120  55.424  1.00  0.00    -0.022 A 
HETATM   11  C   UNL     1      27.478  45.008  54.707  1.00  0.00     0.033 A 
HETATM   12  S   UNL     1      25.787  44.045  52.664  1.00  0.00    -0.063 SA
BRANCH  10  13
HETATM   13  C   UNL     1      28.962  45.932  56.448  1.00  0.00     0.010 A 
HETATM   14  C   UNL     1      30.309  45.508  56.347  1.00  0.00     0.152 A 
HETATM   15  N   UNL     1      30.922  45.446  57.531  1.00  0.00    -0.187 NA
HETATM   16  N   UNL     1      29.971  45.824  58.398  1.00  0.00    -0.289 N 
HETATM   17  H   UNL     1      30.203  45.851  59.386  1.00  0.00     0.188 HD
HETATM   18  C   UNL     1      28.781  46.127  57.800  1.00  0.00     0.123 A 
ENDBRANCH  10  13
ENDBRANCH   2   4
BRANCH   1  19
HETATM   19  C   UNL     1      22.992  45.583  48.536  1.00  0.00     0.152 C 
BRANCH  19  20
HETATM   20  C   UNL     1      21.505  45.278  48.749  1.00  0.00     0.187 C 
BRANCH  20  21
HETATM   21  O   UNL     1      21.197  44.033  48.106  1.00  0.00    -0.394 OA
HETATM   22  C   UNL     1      22.305  43.552  47.354  1.00  0.00     0.201 C 
ENDBRANCH  20  21
ENDBRANCH  19  20
ENDBRANCH   1  19
BRANCH   1  23
HETATM   23  C   UNL     1      24.721  47.062  49.504  1.00  0.00     0.164 C 
BRANCH  23  24
HETATM   24  C   UNL     1      24.039  48.350  49.096  1.00  0.00    -0.038 A 
HETATM   25  C   UNL     1      24.675  49.355  48.357  1.00  0.00     0.009 A 
HETATM   26  C   UNL     1      23.987  50.514  47.997  1.00  0.00     0.003 A 
HETATM   27  C   UNL     1      22.650  50.673  48.360  1.00  0.00     0.037 A 
HETATM   28  C   UNL     1      21.988  49.679  49.079  1.00  0.00     0.068 A 
HETATM   29  C   UNL     1      22.684  48.524  49.444  1.00  0.00     0.045 A 
BRANCH  28  30
HETATM   30  O   UNL     1      20.677  49.952  49.362  1.00  0.00    -0.356 OA
HETATM   31  C   UNL     1      20.422  51.005  50.283  1.00  0.00     0.210 C 
ENDBRANCH  28  30
ENDBRANCH  23  24
ENDBRANCH   1  23
TORSDOF 8
ENDMDL
MODEL 9
REMARK VINA RESULT:      -7.6     11.517     12.876
REMARK  8 active torsions:
REMARK  status: ('A' for Active; 'I' for Inactive)
REMARK    1  A    between atoms: O_2  and  C_3 
REMARK    2  A    between atoms: C_3  and  C_4 
REMARK    3  A    between atoms: C_4  and  N_5 
REMARK    4  A    between atoms: N_5  and  C_6 
REMARK       I    between atoms: N_5  and  C_15 
REMARK    5  A    between atoms: C_6  and  C_7 
REMARK    6  A    between atoms: C_11  and  O_12 
REMARK    7  A    between atoms: C_15  and  C_17 
REMARK    8  A    between atoms: C_22  and  C_26 
ROOT
HETATM    1  N   UNL     1      27.861  48.343  39.655  1.00  0.00    -0.340 N 
HETATM    2  C   UNL     1      28.733  47.643  40.519  1.00  0.00     0.279 C 
HETATM    3  O   UNL     1      28.461  46.489  40.859  1.00  0.00    -0.265 OA
ENDROOT
BRANCH   2   4
HETATM    4  C   UNL     1      29.960  48.295  41.004  1.00  0.00     0.166 A 
HETATM    5  N   UNL     1      30.045  49.080  42.059  1.00  0.00    -0.235 NA
HETATM    6  C   UNL     1      31.336  49.558  42.194  1.00  0.00     0.075 A 
HETATM    7  C   UNL     1      31.791  50.452  43.182  1.00  0.00     0.034 A 
HETATM    8  C   UNL     1      32.244  49.104  41.237  1.00  0.00     0.036 A 
HETATM    9  C   UNL     1      33.128  50.876  43.176  1.00  0.00     0.014 A 
HETATM   10  C   UNL     1      34.027  50.422  42.205  1.00  0.00    -0.022 A 
HETATM   11  C   UNL     1      33.587  49.518  41.225  1.00  0.00     0.033 A 
HETATM   12  S   UNL     1      31.437  48.028  40.167  1.00  0.00    -0.063 SA
BRANCH  10  13
HETATM   13  C   UNL     1      35.405  50.884  42.181  1.00  0.00     0.010 A 
HETATM   14  C   UNL     1      36.087  51.798  43.020  1.00  0.00     0.152 A 
HETATM   15  N   UNL     1      37.361  51.976  42.664  1.00  0.00    -0.187 NA
HETATM   16  N   UNL     1      37.501  51.182  41.592  1.00  0.00    -0.289 N 
HETATM   17  H   UNL     1      38.405  51.151  41.131  1.00  0.00     0.188 HD
HETATM   18  C   UNL     1      36.360  50.506  41.264  1.00  0.00     0.123 A 
ENDBRANCH  10  13
ENDBRANCH   2   4
BRANCH   1  19
HETATM   19  C   UNL     1      26.637  47.708  39.137  1.00  0.00     0.152 C 
BRANCH  19  20
HETATM   20  C   UNL     1      25.269  48.211  39.616  1.00  0.00     0.187 C 
BRANCH  20  21
HETATM   21  O   UNL     1      25.044  47.724  40.946  1.00  0.00    -0.394 OA
HETATM   22  C   UNL     1      24.927  46.306  40.964  1.00  0.00     0.201 C 
ENDBRANCH  20  21
ENDBRANCH  19  20
ENDBRANCH   1  19
BRANCH   1  23
HETATM   23  C   UNL     1      28.299  49.523  38.898  1.00  0.00     0.164 C 
BRANCH  23  24
HETATM   24  C   UNL     1      28.473  50.793  39.703  1.00  0.00    -0.038 A 
HETATM   25  C   UNL     1      27.506  51.276  40.593  1.00  0.00     0.009 A 
HETATM   26  C   UNL     1      27.733  52.445  41.319  1.00  0.00     0.003 A 
HETATM   27  C   UNL     1      28.936  53.136  41.173  1.00  0.00     0.037 A 
HETATM   28  C   UNL     1      29.922  52.666  40.307  1.00  0.00     0.068 A 
HETATM   29  C   UNL     1      29.687  51.499  39.577  1.00  0.00     0.045 A 
BRANCH  28  30
HETATM   30  O   UNL     1      31.058  53.428  40.264  1.00  0.00    -0.356 OA
HETATM   31  C   UNL     1      32.268  52.761  39.926  1.00  0.00     0.210 C 
ENDBRANCH  28  30
ENDBRANCH  23  24
ENDBRANCH   1  23
TORSDOF 8
ENDMDL
MODEL 10
REMARK VINA RESULT:      -7.4      4.080      6.255
REMARK  8 active torsions:
REMARK  status: ('A' for Active; 'I' for Inactive)
REMARK    1  A    between atoms: O_2  and  C_3 
REMARK    2  A    between atoms: C_3  and  C_4 
REMARK    3  A    between atoms: C_4  and  N_5 
REMARK    4  A    between atoms: N_5  and  C_6 
REMARK       I    between atoms: N_5  and  C_15 
REMARK    5  A    between atoms: C_6  and  C_7 
REMARK    6  A    between atoms: C_11  and  O_12 
REMARK    7  A    between atoms: C_15  and  C_17 
REMARK    8  A    between atoms: C_22  and  C_26 
ROOT
HETATM    1  N   UNL     1      20.061  47.019  47.785  1.00  0.00    -0.340 N 
HETATM    2  C   UNL     1      21.367  46.717  47.337  1.00  0.00     0.279 C 
HETATM    3  O   UNL     1      21.591  46.615  46.128  1.00  0.00    -0.265 OA
ENDROOT
BRANCH   2   4
HETATM    4  C   UNL     1      22.449  46.530  48.316  1.00  0.00     0.166 A 
HETATM    5  N   UNL     1      23.236  47.481  48.780  1.00  0.00    -0.235 NA
HETATM    6  C   UNL     1      24.172  46.944  49.645  1.00  0.00     0.075 A 
HETATM    7  C   UNL     1      25.197  47.651  50.301  1.00  0.00     0.034 A 
HETATM    8  C   UNL     1      24.073  45.568  49.853  1.00  0.00     0.036 A 
HETATM    9  C   UNL     1      26.099  46.966  51.128  1.00  0.00     0.014 A 
HETATM   10  C   UNL     1      25.996  45.584  51.322  1.00  0.00    -0.022 A 
HETATM   11  C   UNL     1      24.967  44.872  50.684  1.00  0.00     0.033 A 
HETATM   12  S   UNL     1      22.743  44.960  48.950  1.00  0.00    -0.063 SA
BRANCH  10  13
HETATM   13  C   UNL     1      26.947  44.868  52.155  1.00  0.00     0.010 A 
HETATM   14  C   UNL     1      27.867  43.841  51.835  1.00  0.00     0.152 A 
HETATM   15  N   UNL     1      28.568  43.425  52.891  1.00  0.00    -0.187 NA
HETATM   16  N   UNL     1      28.099  44.178  53.896  1.00  0.00    -0.289 N 
HETATM   17  H   UNL     1      28.484  44.037  54.825  1.00  0.00     0.188 HD
HETATM   18  C   UNL     1      27.128  45.059  53.508  1.00  0.00     0.123 A 
ENDBRANCH  10  13
ENDBRANCH   2   4
BRANCH   1  19
HETATM   19  C   UNL     1      18.962  47.232  46.826  1.00  0.00     0.152 C 
BRANCH  19  20
HETATM   20  C   UNL     1      18.918  48.530  46.011  1.00  0.00     0.187 C 
BRANCH  20  21
HETATM   21  O   UNL     1      18.467  48.221  44.685  1.00  0.00    -0.394 OA
HETATM   22  C   UNL     1      18.493  46.819  44.443  1.00  0.00     0.201 C 
ENDBRANCH  20  21
ENDBRANCH  19  20
ENDBRANCH   1  19
BRANCH   1  23
HETATM   23  C   UNL     1      19.803  47.547  49.130  1.00  0.00     0.164 C 
BRANCH  23  24
HETATM   24  C   UNL     1      19.674  49.052  49.232  1.00  0.00    -0.038 A 
HETATM   25  C   UNL     1      20.704  49.935  48.886  1.00  0.00     0.009 A 
HETATM   26  C   UNL     1      20.518  51.314  48.987  1.00  0.00     0.003 A 
HETATM   27  C   UNL     1      19.294  51.825  49.420  1.00  0.00     0.037 A 
HETATM   28  C   UNL     1      18.247  50.966  49.751  1.00  0.00     0.068 A 
HETATM   29  C   UNL     1      18.440  49.587  49.657  1.00  0.00     0.045 A 
BRANCH  28  30
HETATM   30  O   UNL     1      17.097  51.593  50.150  1.00  0.00    -0.356 OA
HETATM   31  C   UNL     1      16.038  51.659  49.202  1.00  0.00     0.210 C 
ENDBRANCH  28  30
ENDBRANCH  23  24
ENDBRANCH   1  23
TORSDOF 8
ENDMDL
