MODEL 1
REMARK VINA RESULT:     -10.0      0.000      0.000
REMARK  7 active torsions:
REMARK  status: ('A' for Active; 'I' for Inactive)
REMARK    1  A    between atoms: C_2  and  C_3 
REMARK    2  A    between atoms: C_6  and  C_7 
REMARK    3  A    between atoms: N_8  and  N_9 
REMARK    4  A    between atoms: C_20  and  C_21 
REMARK       I    between atoms: C_21  and  N_22 
REMARK    5  A    between atoms: N_22  and  C_23 
REMARK    6  A    between atoms: C_23  and  C_24 
REMARK    7  A    between atoms: C_30  and  N_31 
ROOT
HETATM    1  N   UNL     1      26.490  43.744  52.417  1.00  0.00    -0.202 N 
HETATM    2  C   UNL     1      27.500  43.757  53.363  1.00  0.00     0.183 A 
HETATM    3  C   UNL     1      28.288  42.635  53.138  1.00  0.00     0.124 A 
HETATM    4  N   UNL     1      29.448  42.457  53.820  1.00  0.00    -0.242 NA
HETATM    5  C   UNL     1      29.733  43.405  54.723  1.00  0.00     0.086 A 
HETATM    6  C   UNL     1      28.888  44.519  54.960  1.00  0.00     0.088 A 
HETATM    7  N   UNL     1      27.754  44.729  54.272  1.00  0.00    -0.225 NA
HETATM    8  C   UNL     1      30.914  43.294  55.446  1.00  0.00     0.034 A 
HETATM    9  C   UNL     1      31.277  44.240  56.405  1.00  0.00     0.002 A 
HETATM   10  C   UNL     1      30.439  45.318  56.653  1.00  0.00     0.002 A 
HETATM   11  C   UNL     1      29.254  45.447  55.927  1.00  0.00     0.034 A 
HETATM   12  C   UNL     1      27.692  41.872  52.093  1.00  0.00     0.104 C 
HETATM   13  C   UNL     1      26.488  42.499  51.797  1.00  0.00     0.123 C 
ENDROOT
BRANCH   1  14
HETATM   14  N   UNL     1      25.683  44.772  51.979  1.00  0.00    -0.176 NA
HETATM   15  C   UNL     1      26.292  45.532  51.123  1.00  0.00     0.150 C 
BRANCH  15  16
HETATM   16  C   UNL     1      25.610  46.582  50.349  1.00  0.00    -0.017 A 
HETATM   17  C   UNL     1      26.270  47.721  49.899  1.00  0.00     0.013 A 
HETATM   18  C   UNL     1      25.541  48.743  49.279  1.00  0.00     0.009 A 
HETATM   19  C   UNL     1      24.145  48.650  49.110  1.00  0.00    -0.051 A 
HETATM   20  C   UNL     1      23.511  47.477  49.564  1.00  0.00     0.009 A 
HETATM   21  C   UNL     1      24.234  46.450  50.170  1.00  0.00     0.013 A 
BRANCH  19  22
HETATM   22  C   UNL     1      23.297  49.779  48.497  1.00  0.00    -0.024 C 
HETATM   23  C   UNL     1      22.710  50.753  49.541  1.00  0.00     0.019 C 
HETATM   24  C   UNL     1      22.113  49.157  47.725  1.00  0.00     0.019 C 
HETATM   25  C   UNL     1      24.154  50.616  47.523  1.00  0.00     0.019 C 
ENDBRANCH  19  22
ENDBRANCH  15  16
ENDBRANCH   1  14
BRANCH  13  26
HETATM   26  N   UNL     1      25.478  42.156  50.940  1.00  0.00    -0.286 NA
HETATM   27  H   UNL     1      24.576  42.602  51.141  1.00  0.00     0.125 HD
HETATM   28  H   UNL     1      25.337  41.161  50.758  1.00  0.00     0.125 HD
ENDBRANCH  13  26
BRANCH  12  29
HETATM   29  C   UNL     1      28.286  40.732  51.407  1.00  0.00     0.257 C 
HETATM   30  N   UNL     1      27.967  40.650  50.064  1.00  0.00    -0.354 N 
HETATM   31  H   UNL     1      27.439  41.441  49.701  1.00  0.00     0.162 HD
HETATM   32  O   UNL     1      29.078  39.970  51.946  1.00  0.00    -0.267 OA
BRANCH  30  33
HETATM   33  C   UNL     1      28.809  39.950  49.112  1.00  0.00     0.155 C 
BRANCH  33  34
HETATM   34  C   UNL     1      28.261  38.621  48.584  1.00  0.00     0.139 C 
HETATM   35  O   UNL     1      28.518  37.592  49.572  1.00  0.00    -0.384 OA
HETATM   36  C   UNL     1      27.310  36.852  49.788  1.00  0.00     0.168 C 
HETATM   37  C   UNL     1      26.407  37.159  48.618  1.00  0.00     0.029 C 
HETATM   38  C   UNL     1      26.760  38.595  48.332  1.00  0.00     0.035 C 
ENDBRANCH  33  34
ENDBRANCH  30  33
ENDBRANCH  12  29
TORSDOF 7
ENDMDL
MODEL 2
REMARK VINA RESULT:      -9.8      4.791     10.401
REMARK  7 active torsions:
REMARK  status: ('A' for Active; 'I' for Inactive)
REMARK    1  A    between atoms: C_2  and  C_3 
REMARK    2  A    between atoms: C_6  and  C_7 
REMARK    3  A    between atoms: N_8  and  N_9 
REMARK    4  A    between atoms: C_20  and  C_21 
REMARK       I    between atoms: C_21  and  N_22 
REMARK    5  A    between atoms: N_22  and  C_23 
REMARK    6  A    between atoms: C_23  and  C_24 
REMARK    7  A    between atoms: C_30  and  N_31 
ROOT
HETATM    1  N   UNL     1      22.983  45.266  48.547  1.00  0.00    -0.202 N 
HETATM    2  C   UNL     1      22.695  46.613  48.429  1.00  0.00     0.183 A 
HETATM    3  C   UNL     1      21.324  46.725  48.233  1.00  0.00     0.124 A 
HETATM    4  N   UNL     1      20.722  47.942  48.231  1.00  0.00    -0.242 NA
HETATM    5  C   UNL     1      21.545  48.988  48.389  1.00  0.00     0.086 A 
HETATM    6  C   UNL     1      22.947  48.845  48.546  1.00  0.00     0.088 A 
HETATM    7  N   UNL     1      23.555  47.649  48.584  1.00  0.00    -0.225 NA
HETATM    8  C   UNL     1      20.994  50.264  48.412  1.00  0.00     0.034 A 
HETATM    9  C   UNL     1      21.787  51.401  48.570  1.00  0.00     0.002 A 
HETATM   10  C   UNL     1      23.161  51.262  48.700  1.00  0.00     0.002 A 
HETATM   11  C   UNL     1      23.727  49.986  48.688  1.00  0.00     0.034 A 
HETATM   12  C   UNL     1      20.778  45.413  48.137  1.00  0.00     0.104 C 
HETATM   13  C   UNL     1      21.860  44.543  48.156  1.00  0.00     0.123 C 
ENDROOT
BRANCH   1  14
HETATM   14  N   UNL     1      24.089  44.648  49.091  1.00  0.00    -0.176 NA
HETATM   15  C   UNL     1      24.398  45.145  50.248  1.00  0.00     0.150 C 
BRANCH  15  16
HETATM   16  C   UNL     1      25.407  44.549  51.138  1.00  0.00    -0.017 A 
HETATM   17  C   UNL     1      25.289  44.579  52.523  1.00  0.00     0.013 A 
HETATM   18  C   UNL     1      26.341  44.109  53.318  1.00  0.00     0.009 A 
HETATM   19  C   UNL     1      27.529  43.614  52.745  1.00  0.00    -0.051 A 
HETATM   20  C   UNL     1      27.610  43.584  51.339  1.00  0.00     0.009 A 
HETATM   21  C   UNL     1      26.560  44.038  50.542  1.00  0.00     0.013 A 
BRANCH  19  22
HETATM   22  C   UNL     1      28.736  43.152  53.582  1.00  0.00    -0.024 C 
HETATM   23  C   UNL     1      30.064  43.122  52.796  1.00  0.00     0.019 C 
HETATM   24  C   UNL     1      28.471  41.722  54.100  1.00  0.00     0.019 C 
HETATM   25  C   UNL     1      28.938  44.098  54.786  1.00  0.00     0.019 C 
ENDBRANCH  19  22
ENDBRANCH  15  16
ENDBRANCH   1  14
BRANCH  13  26
HETATM   26  N   UNL     1      21.929  43.184  48.012  1.00  0.00    -0.286 NA
HETATM   27  H   UNL     1      22.857  42.828  47.753  1.00  0.00     0.125 HD
HETATM   28  H   UNL     1      21.215  42.739  47.434  1.00  0.00     0.125 HD
ENDBRANCH  13  26
BRANCH  12  29
HETATM   29  C   UNL     1      19.363  45.062  48.129  1.00  0.00     0.257 C 
HETATM   30  N   UNL     1      18.540  46.016  48.699  1.00  0.00    -0.354 N 
HETATM   31  H   UNL     1      19.008  46.879  48.968  1.00  0.00     0.162 HD
HETATM   32  O   UNL     1      18.929  44.060  47.576  1.00  0.00    -0.267 OA
BRANCH  30  33
HETATM   33  C   UNL     1      17.134  46.128  48.356  1.00  0.00     0.155 C 
BRANCH  33  34
HETATM   34  C   UNL     1      16.464  47.459  48.709  1.00  0.00     0.139 C 
HETATM   35  O   UNL     1      17.482  48.380  49.171  1.00  0.00    -0.384 OA
HETATM   36  C   UNL     1      17.315  49.628  48.487  1.00  0.00     0.168 C 
HETATM   37  C   UNL     1      15.924  49.612  47.902  1.00  0.00     0.029 C 
HETATM   38  C   UNL     1      15.760  48.155  47.553  1.00  0.00     0.035 C 
ENDBRANCH  33  34
ENDBRANCH  30  33
ENDBRANCH  12  29
TORSDOF 7
ENDMDL
MODEL 3
REMARK VINA RESULT:      -9.5      1.816      2.597
REMARK  7 active torsions:
REMARK  status: ('A' for Active; 'I' for Inactive)
REMARK    1  A    between atoms: C_2  and  C_3 
REMARK    2  A    between atoms: C_6  and  C_7 
REMARK    3  A    between atoms: N_8  and  N_9 
REMARK    4  A    between atoms: C_20  and  C_21 
REMARK       I    between atoms: C_21  and  N_22 
REMARK    5  A    between atoms: N_22  and  C_23 
REMARK    6  A    between atoms: C_23  and  C_24 
REMARK    7  A    between atoms: C_30  and  N_31 
ROOT
HETATM    1  N   UNL     1      25.428  43.413  50.488  1.00  0.00    -0.202 N 
HETATM    2  C   UNL     1      26.471  43.269  51.385  1.00  0.00     0.183 A 
HETATM    3  C   UNL     1      27.407  42.428  50.796  1.00  0.00     0.124 A 
HETATM    4  N   UNL     1      28.613  42.218  51.380  1.00  0.00    -0.242 NA
HETATM    5  C   UNL     1      28.799  42.842  52.552  1.00  0.00     0.086 A 
HETATM    6  C   UNL     1      27.808  43.663  53.150  1.00  0.00     0.088 A 
HETATM    7  N   UNL     1      26.622  43.908  52.571  1.00  0.00    -0.225 NA
HETATM    8  C   UNL     1      30.019  42.684  53.199  1.00  0.00     0.034 A 
HETATM    9  C   UNL     1      30.283  43.299  54.423  1.00  0.00     0.002 A 
HETATM   10  C   UNL     1      29.306  44.083  55.018  1.00  0.00     0.002 A 
HETATM   11  C   UNL     1      28.079  44.258  54.376  1.00  0.00     0.034 A 
HETATM   12  C   UNL     1      26.880  41.975  49.552  1.00  0.00     0.104 C 
HETATM   13  C   UNL     1      25.581  42.465  49.482  1.00  0.00     0.123 C 
ENDROOT
BRANCH   1  14
HETATM   14  N   UNL     1      24.453  44.387  50.422  1.00  0.00    -0.176 NA
HETATM   15  C   UNL     1      24.873  45.449  49.809  1.00  0.00     0.150 C 
BRANCH  15  16
HETATM   16  C   UNL     1      23.989  46.560  49.424  1.00  0.00    -0.017 A 
HETATM   17  C   UNL     1      24.260  47.880  49.769  1.00  0.00     0.013 A 
HETATM   18  C   UNL     1      23.319  48.876  49.485  1.00  0.00     0.009 A 
HETATM   19  C   UNL     1      22.090  48.571  48.865  1.00  0.00    -0.051 A 
HETATM   20  C   UNL     1      21.855  47.227  48.516  1.00  0.00     0.009 A 
HETATM   21  C   UNL     1      22.795  46.232  48.784  1.00  0.00     0.013 A 
BRANCH  19  22
HETATM   22  C   UNL     1      21.001  49.624  48.598  1.00  0.00    -0.024 C 
HETATM   23  C   UNL     1      20.158  49.342  47.336  1.00  0.00     0.019 C 
HETATM   24  C   UNL     1      21.668  51.004  48.410  1.00  0.00     0.019 C 
HETATM   25  C   UNL     1      20.025  49.691  49.793  1.00  0.00     0.019 C 
ENDBRANCH  19  22
ENDBRANCH  15  16
ENDBRANCH   1  14
BRANCH  13  26
HETATM   26  N   UNL     1      24.592  42.273  48.557  1.00  0.00    -0.286 NA
HETATM   27  H   UNL     1      23.713  41.905  48.940  1.00  0.00     0.125 HD
HETATM   28  H   UNL     1      24.839  41.760  47.709  1.00  0.00     0.125 HD
ENDBRANCH  13  26
BRANCH  12  29
HETATM   29  C   UNL     1      27.603  41.240  48.522  1.00  0.00     0.257 C 
HETATM   30  N   UNL     1      28.331  40.167  48.998  1.00  0.00    -0.354 N 
HETATM   31  H   UNL     1      28.201  39.966  49.987  1.00  0.00     0.162 HD
HETATM   32  O   UNL     1      27.494  41.488  47.328  1.00  0.00    -0.267 OA
BRANCH  30  33
HETATM   33  C   UNL     1      28.685  39.038  48.156  1.00  0.00     0.155 C 
BRANCH  33  34
HETATM   34  C   UNL     1      29.214  37.800  48.885  1.00  0.00     0.139 C 
HETATM   35  O   UNL     1      30.437  38.158  49.574  1.00  0.00    -0.384 OA
HETATM   36  C   UNL     1      30.359  37.681  50.924  1.00  0.00     0.168 C 
HETATM   37  C   UNL     1      29.252  36.655  50.950  1.00  0.00     0.029 C 
HETATM   38  C   UNL     1      28.285  37.227  49.946  1.00  0.00     0.035 C 
ENDBRANCH  33  34
ENDBRANCH  30  33
ENDBRANCH  12  29
TORSDOF 7
ENDMDL
MODEL 4
REMARK VINA RESULT:      -9.4      4.179      9.166
REMARK  7 active torsions:
REMARK  status: ('A' for Active; 'I' for Inactive)
REMARK    1  A    between atoms: C_2  and  C_3 
REMARK    2  A    between atoms: C_6  and  C_7 
REMARK    3  A    between atoms: N_8  and  N_9 
REMARK    4  A    between atoms: C_20  and  C_21 
REMARK       I    between atoms: C_21  and  N_22 
REMARK    5  A    between atoms: N_22  and  C_23 
REMARK    6  A    between atoms: C_23  and  C_24 
REMARK    7  A    between atoms: C_30  and  N_31 
ROOT
HETATM    1  N   UNL     1      24.818  46.394  49.684  1.00  0.00    -0.202 N 
HETATM    2  C   UNL     1      23.862  47.324  49.316  1.00  0.00     0.183 A 
HETATM    3  C   UNL     1      22.822  46.626  48.714  1.00  0.00     0.124 A 
HETATM    4  N   UNL     1      21.668  47.258  48.380  1.00  0.00    -0.242 NA
HETATM    5  C   UNL     1      21.639  48.573  48.638  1.00  0.00     0.086 A 
HETATM    6  C   UNL     1      22.733  49.266  49.216  1.00  0.00     0.088 A 
HETATM    7  N   UNL     1      23.869  48.652  49.583  1.00  0.00    -0.225 NA
HETATM    8  C   UNL     1      20.481  49.279  48.335  1.00  0.00     0.034 A 
HETATM    9  C   UNL     1      20.378  50.651  48.572  1.00  0.00     0.002 A 
HETATM   10  C   UNL     1      21.457  51.333  49.116  1.00  0.00     0.002 A 
HETATM   11  C   UNL     1      22.622  50.634  49.433  1.00  0.00     0.034 A 
HETATM   12  C   UNL     1      23.194  45.254  48.629  1.00  0.00     0.104 C 
HETATM   13  C   UNL     1      24.507  45.182  49.077  1.00  0.00     0.123 C 
ENDROOT
BRANCH   1  14
HETATM   14  N   UNL     1      25.840  46.502  50.603  1.00  0.00    -0.176 NA
HETATM   15  C   UNL     1      25.426  46.284  51.812  1.00  0.00     0.150 C 
BRANCH  15  16
HETATM   16  C   UNL     1      26.334  46.141  52.961  1.00  0.00    -0.017 A 
HETATM   17  C   UNL     1      26.592  47.188  53.841  1.00  0.00     0.013 A 
HETATM   18  C   UNL     1      27.560  47.030  54.839  1.00  0.00     0.009 A 
HETATM   19  C   UNL     1      28.294  45.834  54.968  1.00  0.00    -0.051 A 
HETATM   20  C   UNL     1      27.998  44.790  54.070  1.00  0.00     0.009 A 
HETATM   21  C   UNL     1      27.024  44.936  53.083  1.00  0.00     0.013 A 
BRANCH  19  22
HETATM   22  C   UNL     1      29.414  45.645  56.006  1.00  0.00    -0.024 C 
HETATM   23  C   UNL     1      29.989  44.213  56.047  1.00  0.00     0.019 C 
HETATM   24  C   UNL     1      28.857  45.960  57.412  1.00  0.00     0.019 C 
HETATM   25  C   UNL     1      30.588  46.600  55.700  1.00  0.00     0.019 C 
ENDBRANCH  19  22
ENDBRANCH  15  16
ENDBRANCH   1  14
BRANCH  13  26
HETATM   26  N   UNL     1      25.386  44.135  49.134  1.00  0.00    -0.286 NA
HETATM   27  H   UNL     1      24.947  43.214  49.250  1.00  0.00     0.125 HD
HETATM   28  H   UNL     1      26.176  44.223  49.775  1.00  0.00     0.125 HD
ENDBRANCH  13  26
BRANCH  12  29
HETATM   29  C   UNL     1      22.328  44.144  48.252  1.00  0.00     0.257 C 
HETATM   30  N   UNL     1      21.458  44.431  47.217  1.00  0.00    -0.354 N 
HETATM   31  H   UNL     1      21.591  45.344  46.787  1.00  0.00     0.162 HD
HETATM   32  O   UNL     1      22.431  43.025  48.738  1.00  0.00    -0.267 OA
BRANCH  30  33
HETATM   33  C   UNL     1      20.902  43.396  46.365  1.00  0.00     0.155 C 
BRANCH  33  34
HETATM   34  C   UNL     1      19.407  43.514  46.056  1.00  0.00     0.139 C 
HETATM   35  O   UNL     1      18.733  44.029  47.231  1.00  0.00    -0.384 OA
HETATM   36  C   UNL     1      17.876  45.106  46.833  1.00  0.00     0.168 C 
HETATM   37  C   UNL     1      17.703  44.984  45.338  1.00  0.00     0.029 C 
HETATM   38  C   UNL     1      19.054  44.463  44.920  1.00  0.00     0.035 C 
ENDBRANCH  33  34
ENDBRANCH  30  33
ENDBRANCH  12  29
TORSDOF 7
ENDMDL
MODEL 5
REMARK VINA RESULT:      -9.2      2.999      8.096
REMARK  7 active torsions:
REMARK  status: ('A' for Active; 'I' for Inactive)
REMARK    1  A    between atoms: C_2  and  C_3 
REMARK    2  A    between atoms: C_6  and  C_7 
REMARK    3  A    between atoms: N_8  and  N_9 
REMARK    4  A    between atoms: C_20  and  C_21 
REMARK       I    between atoms: C_21  and  N_22 
REMARK    5  A    between atoms: N_22  and  C_23 
REMARK    6  A    between atoms: C_23  and  C_24 
REMARK    7  A    between atoms: C_30  and  N_31 
ROOT
HETATM    1  N   UNL     1      25.095  46.535  49.922  1.00  0.00    -0.202 N 
HETATM    2  C   UNL     1      24.054  47.350  49.515  1.00  0.00     0.183 A 
HETATM    3  C   UNL     1      23.160  46.554  48.809  1.00  0.00     0.124 A 
HETATM    4  N   UNL     1      21.960  47.047  48.410  1.00  0.00    -0.242 NA
HETATM    5  C   UNL     1      21.741  48.334  48.713  1.00  0.00     0.086 A 
HETATM    6  C   UNL     1      22.690  49.135  49.398  1.00  0.00     0.088 A 
HETATM    7  N   UNL     1      23.868  48.655  49.829  1.00  0.00    -0.225 NA
HETATM    8  C   UNL     1      20.525  48.900  48.347  1.00  0.00     0.034 A 
HETATM    9  C   UNL     1      20.226  50.235  48.625  1.00  0.00     0.002 A 
HETATM   10  C   UNL     1      21.165  51.023  49.275  1.00  0.00     0.002 A 
HETATM   11  C   UNL     1      22.386  50.466  49.655  1.00  0.00     0.034 A 
HETATM   12  C   UNL     1      23.714  45.245  48.705  1.00  0.00     0.104 C 
HETATM   13  C   UNL     1      24.989  45.322  49.249  1.00  0.00     0.123 C 
ENDROOT
BRANCH   1  14
HETATM   14  N   UNL     1      26.026  46.731  50.920  1.00  0.00    -0.176 NA
HETATM   15  C   UNL     1      25.680  46.144  52.023  1.00  0.00     0.150 C 
BRANCH  15  16
HETATM   16  C   UNL     1      26.574  46.022  53.185  1.00  0.00    -0.017 A 
HETATM   17  C   UNL     1      26.806  47.080  54.059  1.00  0.00     0.013 A 
HETATM   18  C   UNL     1      27.763  46.943  55.072  1.00  0.00     0.009 A 
HETATM   19  C   UNL     1      28.510  45.757  55.221  1.00  0.00    -0.051 A 
HETATM   20  C   UNL     1      28.239  44.702  54.328  1.00  0.00     0.009 A 
HETATM   21  C   UNL     1      27.278  44.826  53.326  1.00  0.00     0.013 A 
BRANCH  19  22
HETATM   22  C   UNL     1      29.618  45.591  56.275  1.00  0.00    -0.024 C 
HETATM   23  C   UNL     1      29.154  45.885  57.718  1.00  0.00     0.019 C 
HETATM   24  C   UNL     1      30.772  46.565  55.952  1.00  0.00     0.019 C 
HETATM   25  C   UNL     1      30.156  44.143  56.255  1.00  0.00     0.019 C 
ENDBRANCH  19  22
ENDBRANCH  15  16
ENDBRANCH   1  14
BRANCH  13  26
HETATM   26  N   UNL     1      25.992  44.394  49.336  1.00  0.00    -0.286 NA
HETATM   27  H   UNL     1      25.699  43.429  49.143  1.00  0.00     0.125 HD
HETATM   28  H   UNL     1      26.577  44.416  50.172  1.00  0.00     0.125 HD
ENDBRANCH  13  26
BRANCH  12  29
HETATM   29  C   UNL     1      23.030  44.052  48.222  1.00  0.00     0.257 C 
HETATM   30  N   UNL     1      23.809  43.239  47.419  1.00  0.00    -0.354 N 
HETATM   31  H   UNL     1      24.783  43.523  47.342  1.00  0.00     0.162 HD
HETATM   32  O   UNL     1      21.900  43.744  48.576  1.00  0.00    -0.267 OA
BRANCH  30  33
HETATM   33  C   UNL     1      23.539  41.822  47.262  1.00  0.00     0.155 C 
BRANCH  33  34
HETATM   34  C   UNL     1      24.605  40.872  47.817  1.00  0.00     0.139 C 
HETATM   35  O   UNL     1      25.814  41.028  47.033  1.00  0.00    -0.384 OA
HETATM   36  C   UNL     1      26.922  41.182  47.929  1.00  0.00     0.168 C 
HETATM   37  C   UNL     1      26.451  40.699  49.279  1.00  0.00     0.029 C 
HETATM   38  C   UNL     1      25.005  41.123  49.263  1.00  0.00     0.035 C 
ENDBRANCH  33  34
ENDBRANCH  30  33
ENDBRANCH  12  29
TORSDOF 7
ENDMDL
MODEL 6
REMARK VINA RESULT:      -8.9      5.433      9.828
REMARK  7 active torsions:
REMARK  status: ('A' for Active; 'I' for Inactive)
REMARK    1  A    between atoms: C_2  and  C_3 
REMARK    2  A    between atoms: C_6  and  C_7 
REMARK    3  A    between atoms: N_8  and  N_9 
REMARK    4  A    between atoms: C_20  and  C_21 
REMARK       I    between atoms: C_21  and  N_22 
REMARK    5  A    between atoms: N_22  and  C_23 
REMARK    6  A    between atoms: C_23  and  C_24 
REMARK    7  A    between atoms: C_30  and  N_31 
ROOT
HETATM    1  N   UNL     1      21.579  49.301  48.270  1.00  0.00    -0.202 N 
HETATM    2  C   UNL     1      21.480  48.033  47.726  1.00  0.00     0.183 A 
HETATM    3  C   UNL     1      22.518  47.277  48.256  1.00  0.00     0.124 A 
HETATM    4  N   UNL     1      22.593  45.943  48.020  1.00  0.00    -0.242 NA
HETATM    5  C   UNL     1      21.633  45.447  47.227  1.00  0.00     0.086 A 
HETATM    6  C   UNL     1      20.608  46.252  46.666  1.00  0.00     0.088 A 
HETATM    7  N   UNL     1      20.500  47.566  46.915  1.00  0.00    -0.225 NA
HETATM    8  C   UNL     1      21.639  44.084  46.955  1.00  0.00     0.034 A 
HETATM    9  C   UNL     1      20.674  43.496  46.136  1.00  0.00     0.002 A 
HETATM   10  C   UNL     1      19.686  44.288  45.569  1.00  0.00     0.002 A 
HETATM   11  C   UNL     1      19.662  45.656  45.840  1.00  0.00     0.034 A 
HETATM   12  C   UNL     1      23.322  48.128  49.069  1.00  0.00     0.104 C 
HETATM   13  C   UNL     1      22.810  49.410  48.907  1.00  0.00     0.123 C 
ENDROOT
BRANCH   1  14
HETATM   14  N   UNL     1      20.627  50.295  48.359  1.00  0.00    -0.176 NA
HETATM   15  C   UNL     1      19.452  49.816  48.625  1.00  0.00     0.150 C 
BRANCH  15  16
HETATM   16  C   UNL     1      18.296  50.659  48.968  1.00  0.00    -0.017 A 
HETATM   17  C   UNL     1      16.998  50.331  48.589  1.00  0.00     0.013 A 
HETATM   18  C   UNL     1      15.958  51.235  48.834  1.00  0.00     0.009 A 
HETATM   19  C   UNL     1      16.196  52.482  49.446  1.00  0.00    -0.051 A 
HETATM   20  C   UNL     1      17.520  52.775  49.829  1.00  0.00     0.009 A 
HETATM   21  C   UNL     1      18.558  51.873  49.601  1.00  0.00     0.013 A 
BRANCH  19  22
HETATM   22  C   UNL     1      15.094  53.531  49.670  1.00  0.00    -0.024 C 
HETATM   23  C   UNL     1      15.616  54.876  50.220  1.00  0.00     0.019 C 
HETATM   24  C   UNL     1      14.073  52.980  50.689  1.00  0.00     0.019 C 
HETATM   25  C   UNL     1      14.370  53.832  48.339  1.00  0.00     0.019 C 
ENDBRANCH  19  22
ENDBRANCH  15  16
ENDBRANCH   1  14
BRANCH  13  26
HETATM   26  N   UNL     1      23.238  50.619  49.383  1.00  0.00    -0.286 NA
HETATM   27  H   UNL     1      22.501  51.200  49.799  1.00  0.00     0.125 HD
HETATM   28  H   UNL     1      23.815  51.187  48.761  1.00  0.00     0.125 HD
ENDBRANCH  13  26
BRANCH  12  29
HETATM   29  C   UNL     1      24.391  47.711  49.966  1.00  0.00     0.257 C 
HETATM   30  N   UNL     1      24.162  46.501  50.596  1.00  0.00    -0.354 N 
HETATM   31  H   UNL     1      23.327  46.010  50.287  1.00  0.00     0.162 HD
HETATM   32  O   UNL     1      25.444  48.325  50.077  1.00  0.00    -0.267 OA
BRANCH  30  33
HETATM   33  C   UNL     1      25.245  45.674  51.096  1.00  0.00     0.155 C 
BRANCH  33  34
HETATM   34  C   UNL     1      25.380  45.599  52.619  1.00  0.00     0.139 C 
HETATM   35  O   UNL     1      26.378  44.599  52.945  1.00  0.00    -0.384 OA
HETATM   36  C   UNL     1      27.292  45.159  53.897  1.00  0.00     0.168 C 
HETATM   37  C   UNL     1      26.612  46.373  54.480  1.00  0.00     0.029 C 
HETATM   38  C   UNL     1      25.837  46.885  53.293  1.00  0.00     0.035 C 
ENDBRANCH  33  34
ENDBRANCH  30  33
ENDBRANCH  12  29
TORSDOF 7
ENDMDL
MODEL 7
REMARK VINA RESULT:      -8.7      2.233      2.884
REMARK  7 active torsions:
REMARK  status: ('A' for Active; 'I' for Inactive)
REMARK    1  A    between atoms: C_2  and  C_3 
REMARK    2  A    between atoms: C_6  and  C_7 
REMARK    3  A    between atoms: N_8  and  N_9 
REMARK    4  A    between atoms: C_20  and  C_21 
REMARK       I    between atoms: C_21  and  N_22 
REMARK    5  A    between atoms: N_22  and  C_23 
REMARK    6  A    between atoms: C_23  and  C_24 
REMARK    7  A    between atoms: C_30  and  N_31 
ROOT
HETATM    1  N   UNL     1      25.365  43.300  51.046  1.00  0.00    -0.202 N 
HETATM    2  C   UNL     1      26.458  43.220  51.890  1.00  0.00     0.183 A 
HETATM    3  C   UNL     1      27.300  42.239  51.379  1.00  0.00     0.124 A 
HETATM    4  N   UNL     1      28.530  42.037  51.915  1.00  0.00    -0.242 NA
HETATM    5  C   UNL     1      28.832  42.812  52.966  1.00  0.00     0.086 A 
HETATM    6  C   UNL     1      27.935  43.777  53.491  1.00  0.00     0.088 A 
HETATM    7  N   UNL     1      26.728  44.013  52.954  1.00  0.00    -0.225 NA
HETATM    8  C   UNL     1      30.083  42.668  53.554  1.00  0.00     0.034 A 
HETATM    9  C   UNL     1      30.468  43.438  54.653  1.00  0.00     0.002 A 
HETATM   10  C   UNL     1      29.581  44.365  55.181  1.00  0.00     0.002 A 
HETATM   11  C   UNL     1      28.325  44.526  54.595  1.00  0.00     0.034 A 
HETATM   12  C   UNL     1      26.663  41.645  50.252  1.00  0.00     0.104 C 
HETATM   13  C   UNL     1      25.393  42.206  50.187  1.00  0.00     0.123 C 
ENDROOT
BRANCH   1  14
HETATM   14  N   UNL     1      24.446  44.317  50.892  1.00  0.00    -0.176 NA
HETATM   15  C   UNL     1      24.865  45.224  50.066  1.00  0.00     0.150 C 
BRANCH  15  16
HETATM   16  C   UNL     1      24.012  46.315  49.568  1.00  0.00    -0.017 A 
HETATM   17  C   UNL     1      24.245  47.648  49.891  1.00  0.00     0.013 A 
HETATM   18  C   UNL     1      23.328  48.627  49.492  1.00  0.00     0.009 A 
HETATM   19  C   UNL     1      22.160  48.292  48.777  1.00  0.00    -0.051 A 
HETATM   20  C   UNL     1      21.963  46.935  48.454  1.00  0.00     0.009 A 
HETATM   21  C   UNL     1      22.880  45.957  48.837  1.00  0.00     0.013 A 
BRANCH  19  22
HETATM   22  C   UNL     1      21.093  49.327  48.380  1.00  0.00    -0.024 C 
HETATM   23  C   UNL     1      20.121  48.831  47.289  1.00  0.00     0.019 C 
HETATM   24  C   UNL     1      21.794  50.590  47.836  1.00  0.00     0.019 C 
HETATM   25  C   UNL     1      20.242  49.709  49.611  1.00  0.00     0.019 C 
ENDBRANCH  19  22
ENDBRANCH  15  16
ENDBRANCH   1  14
BRANCH  13  26
HETATM   26  N   UNL     1      24.332  41.947  49.363  1.00  0.00    -0.286 NA
HETATM   27  H   UNL     1      23.975  40.986  49.414  1.00  0.00     0.125 HD
HETATM   28  H   UNL     1      24.421  42.230  48.386  1.00  0.00     0.125 HD
ENDBRANCH  13  26
BRANCH  12  29
HETATM   29  C   UNL     1      27.268  40.720  49.303  1.00  0.00     0.257 C 
HETATM   30  N   UNL     1      27.286  41.178  47.999  1.00  0.00    -0.354 N 
HETATM   31  H   UNL     1      26.963  42.135  47.877  1.00  0.00     0.162 HD
HETATM   32  O   UNL     1      27.805  39.674  49.644  1.00  0.00    -0.267 OA
BRANCH  30  33
HETATM   33  C   UNL     1      28.249  40.698  47.025  1.00  0.00     0.155 C 
BRANCH  33  34
HETATM   34  C   UNL     1      27.666  40.170  45.711  1.00  0.00     0.139 C 
HETATM   35  O   UNL     1      26.228  40.062  45.855  1.00  0.00    -0.384 OA
HETATM   36  C   UNL     1      25.606  40.676  44.719  1.00  0.00     0.168 C 
HETATM   37  C   UNL     1      26.675  40.795  43.660  1.00  0.00     0.029 C 
HETATM   38  C   UNL     1      27.901  41.057  44.496  1.00  0.00     0.035 C 
ENDBRANCH  33  34
ENDBRANCH  30  33
ENDBRANCH  12  29
TORSDOF 7
ENDMDL
MODEL 8
REMARK VINA RESULT:      -8.7      3.792      7.301
REMARK  7 active torsions:
REMARK  status: ('A' for Active; 'I' for Inactive)
REMARK    1  A    between atoms: C_2  and  C_3 
REMARK    2  A    between atoms: C_6  and  C_7 
REMARK    3  A    between atoms: N_8  and  N_9 
REMARK    4  A    between atoms: C_20  and  C_21 
REMARK       I    between atoms: C_21  and  N_22 
REMARK    5  A    between atoms: N_22  and  C_23 
REMARK    6  A    between atoms: C_23  and  C_24 
REMARK    7  A    between atoms: C_30  and  N_31 
ROOT
HETATM    1  N   UNL     1      23.513  46.648  48.904  1.00  0.00    -0.202 N 
HETATM    2  C   UNL     1      23.979  45.347  48.868  1.00  0.00     0.183 A 
HETATM    3  C   UNL     1      24.718  45.142  50.027  1.00  0.00     0.124 A 
HETATM    4  N   UNL     1      25.180  43.906  50.344  1.00  0.00    -0.242 NA
HETATM    5  C   UNL     1      24.902  42.944  49.452  1.00  0.00     0.086 A 
HETATM    6  C   UNL     1      24.180  43.191  48.256  1.00  0.00     0.088 A 
HETATM    7  N   UNL     1      23.687  44.400  47.943  1.00  0.00    -0.225 NA
HETATM    8  C   UNL     1      25.332  41.651  49.721  1.00  0.00     0.034 A 
HETATM    9  C   UNL     1      25.083  40.599  48.838  1.00  0.00     0.002 A 
HETATM   10  C   UNL     1      24.397  40.845  47.658  1.00  0.00     0.002 A 
HETATM   11  C   UNL     1      23.951  42.138  47.380  1.00  0.00     0.034 A 
HETATM   12  C   UNL     1      24.782  46.374  50.739  1.00  0.00     0.104 C 
HETATM   13  C   UNL     1      24.177  47.323  49.924  1.00  0.00     0.123 C 
ENDROOT
BRANCH   1  14
HETATM   14  N   UNL     1      22.473  47.229  48.210  1.00  0.00    -0.176 NA
HETATM   15  C   UNL     1      21.335  47.044  48.803  1.00  0.00     0.150 C 
BRANCH  15  16
HETATM   16  C   UNL     1      20.093  47.717  48.391  1.00  0.00    -0.017 A 
HETATM   17  C   UNL     1      20.034  48.561  47.287  1.00  0.00     0.013 A 
HETATM   18  C   UNL     1      18.857  49.271  47.020  1.00  0.00     0.009 A 
HETATM   19  C   UNL     1      17.728  49.160  47.855  1.00  0.00    -0.051 A 
HETATM   20  C   UNL     1      17.817  48.287  48.957  1.00  0.00     0.009 A 
HETATM   21  C   UNL     1      18.981  47.566  49.220  1.00  0.00     0.013 A 
BRANCH  19  22
HETATM   22  C   UNL     1      16.441  49.975  47.637  1.00  0.00    -0.024 C 
HETATM   23  C   UNL     1      16.182  51.034  48.730  1.00  0.00     0.019 C 
HETATM   24  C   UNL     1      15.232  49.014  47.629  1.00  0.00     0.019 C 
HETATM   25  C   UNL     1      16.507  50.719  46.286  1.00  0.00     0.019 C 
ENDBRANCH  19  22
ENDBRANCH  15  16
ENDBRANCH   1  14
BRANCH  13  26
HETATM   26  N   UNL     1      24.032  48.676  50.066  1.00  0.00    -0.286 NA
HETATM   27  H   UNL     1      24.542  49.236  49.373  1.00  0.00     0.125 HD
HETATM   28  H   UNL     1      24.177  49.065  50.999  1.00  0.00     0.125 HD
ENDBRANCH  13  26
BRANCH  12  29
HETATM   29  C   UNL     1      25.285  46.566  52.093  1.00  0.00     0.257 C 
HETATM   30  N   UNL     1      25.867  45.441  52.646  1.00  0.00    -0.354 N 
HETATM   31  H   UNL     1      25.956  44.650  52.012  1.00  0.00     0.162 HD
HETATM   32  O   UNL     1      25.285  47.654  52.654  1.00  0.00    -0.267 OA
BRANCH  30  33
HETATM   33  C   UNL     1      26.850  45.523  53.710  1.00  0.00     0.155 C 
BRANCH  33  34
HETATM   34  C   UNL     1      27.644  44.243  53.988  1.00  0.00     0.139 C 
HETATM   35  O   UNL     1      27.982  43.626  52.721  1.00  0.00    -0.384 OA
HETATM   36  C   UNL     1      29.377  43.296  52.731  1.00  0.00     0.168 C 
HETATM   37  C   UNL     1      29.814  43.330  54.175  1.00  0.00     0.029 C 
HETATM   38  C   UNL     1      28.961  44.445  54.723  1.00  0.00     0.035 C 
ENDBRANCH  33  34
ENDBRANCH  30  33
ENDBRANCH  12  29
TORSDOF 7
ENDMDL
MODEL 9
REMARK VINA RESULT:      -8.7      3.514      7.345
REMARK  7 active torsions:
REMARK  status: ('A' for Active; 'I' for Inactive)
REMARK    1  A    between atoms: C_2  and  C_3 
REMARK    2  A    between atoms: C_6  and  C_7 
REMARK    3  A    between atoms: N_8  and  N_9 
REMARK    4  A    between atoms: C_20  and  C_21 
REMARK       I    between atoms: C_21  and  N_22 
REMARK    5  A    between atoms: N_22  and  C_23 
REMARK    6  A    between atoms: C_23  and  C_24 
REMARK    7  A    between atoms: C_30  and  N_31 
ROOT
HETATM    1  N   UNL     1      24.108  46.471  49.554  1.00  0.00    -0.202 N 
HETATM    2  C   UNL     1      23.961  45.194  49.045  1.00  0.00     0.183 A 
HETATM    3  C   UNL     1      24.434  44.311  50.008  1.00  0.00     0.124 A 
HETATM    4  N   UNL     1      24.282  42.971  49.852  1.00  0.00    -0.242 NA
HETATM    5  C   UNL     1      23.691  42.590  48.711  1.00  0.00     0.086 A 
HETATM    6  C   UNL     1      23.255  43.514  47.727  1.00  0.00     0.088 A 
HETATM    7  N   UNL     1      23.368  44.843  47.879  1.00  0.00    -0.225 NA
HETATM    8  C   UNL     1      23.489  41.233  48.493  1.00  0.00     0.034 A 
HETATM    9  C   UNL     1      22.883  40.761  47.327  1.00  0.00     0.002 A 
HETATM   10  C   UNL     1      22.478  41.664  46.355  1.00  0.00     0.002 A 
HETATM   11  C   UNL     1      22.667  43.030  46.564  1.00  0.00     0.034 A 
HETATM   12  C   UNL     1      24.967  45.071  51.089  1.00  0.00     0.104 C 
HETATM   13  C   UNL     1      24.909  46.401  50.690  1.00  0.00     0.123 C 
ENDROOT
BRANCH   1  14
HETATM   14  N   UNL     1      23.489  47.645  49.177  1.00  0.00    -0.176 NA
HETATM   15  C   UNL     1      22.208  47.494  49.049  1.00  0.00     0.150 C 
BRANCH  15  16
HETATM   16  C   UNL     1      21.280  48.619  48.849  1.00  0.00    -0.017 A 
HETATM   17  C   UNL     1      21.566  49.906  49.292  1.00  0.00     0.013 A 
HETATM   18  C   UNL     1      20.591  50.906  49.186  1.00  0.00     0.009 A 
HETATM   19  C   UNL     1      19.317  50.635  48.649  1.00  0.00    -0.051 A 
HETATM   20  C   UNL     1      19.067  49.325  48.197  1.00  0.00     0.009 A 
HETATM   21  C   UNL     1      20.038  48.328  48.287  1.00  0.00     0.013 A 
BRANCH  19  22
HETATM   22  C   UNL     1      18.195  51.687  48.578  1.00  0.00    -0.024 C 
HETATM   23  C   UNL     1      17.881  52.354  49.934  1.00  0.00     0.019 C 
HETATM   24  C   UNL     1      16.899  51.008  48.084  1.00  0.00     0.019 C 
HETATM   25  C   UNL     1      18.586  52.812  47.595  1.00  0.00     0.019 C 
ENDBRANCH  19  22
ENDBRANCH  15  16
ENDBRANCH   1  14
BRANCH  13  26
HETATM   26  N   UNL     1      25.356  47.545  51.293  1.00  0.00    -0.286 NA
HETATM   27  H   UNL     1      25.937  47.390  52.125  1.00  0.00     0.125 HD
HETATM   28  H   UNL     1      24.665  48.272  51.484  1.00  0.00     0.125 HD
ENDBRANCH  13  26
BRANCH  12  29
HETATM   29  C   UNL     1      25.384  44.556  52.386  1.00  0.00     0.257 C 
HETATM   30  N   UNL     1      26.743  44.651  52.623  1.00  0.00    -0.354 N 
HETATM   31  H   UNL     1      27.267  45.150  51.908  1.00  0.00     0.162 HD
HETATM   32  O   UNL     1      24.591  44.167  53.234  1.00  0.00    -0.267 OA
BRANCH  30  33
HETATM   33  C   UNL     1      27.292  44.691  53.966  1.00  0.00     0.155 C 
BRANCH  33  34
HETATM   34  C   UNL     1      28.805  44.481  54.077  1.00  0.00     0.139 C 
HETATM   35  O   UNL     1      29.313  45.332  55.134  1.00  0.00    -0.384 OA
HETATM   36  C   UNL     1      30.154  44.548  55.989  1.00  0.00     0.168 C 
HETATM   37  C   UNL     1      30.503  43.299  55.216  1.00  0.00     0.029 C 
HETATM   38  C   UNL     1      29.237  43.066  54.432  1.00  0.00     0.035 C 
ENDBRANCH  33  34
ENDBRANCH  30  33
ENDBRANCH  12  29
TORSDOF 7
ENDMDL
MODEL 10
REMARK VINA RESULT:      -8.7      3.913      8.535
REMARK  7 active torsions:
REMARK  status: ('A' for Active; 'I' for Inactive)
REMARK    1  A    between atoms: C_2  and  C_3 
REMARK    2  A    between atoms: C_6  and  C_7 
REMARK    3  A    between atoms: N_8  and  N_9 
REMARK    4  A    between atoms: C_20  and  C_21 
REMARK       I    between atoms: C_21  and  N_22 
REMARK    5  A    between atoms: N_22  and  C_23 
REMARK    6  A    between atoms: C_23  and  C_24 
REMARK    7  A    between atoms: C_30  and  N_31 
ROOT
HETATM    1  N   UNL     1      24.916  46.368  49.852  1.00  0.00    -0.202 N 
HETATM    2  C   UNL     1      23.965  47.277  49.426  1.00  0.00     0.183 A 
HETATM    3  C   UNL     1      22.938  46.550  48.836  1.00  0.00     0.124 A 
HETATM    4  N   UNL     1      21.789  47.162  48.453  1.00  0.00    -0.242 NA
HETATM    5  C   UNL     1      21.751  48.488  48.653  1.00  0.00     0.086 A 
HETATM    6  C   UNL     1      22.832  49.209  49.220  1.00  0.00     0.088 A 
HETATM    7  N   UNL     1      23.963  48.615  49.635  1.00  0.00    -0.225 NA
HETATM    8  C   UNL     1      20.598  49.176  48.298  1.00  0.00     0.034 A 
HETATM    9  C   UNL     1      20.486  50.556  48.474  1.00  0.00     0.002 A 
HETATM   10  C   UNL     1      21.553  51.265  49.007  1.00  0.00     0.002 A 
HETATM   11  C   UNL     1      22.714  50.585  49.376  1.00  0.00     0.034 A 
HETATM   12  C   UNL     1      23.315  45.177  48.818  1.00  0.00     0.104 C 
HETATM   13  C   UNL     1      24.620  45.129  49.293  1.00  0.00     0.123 C 
ENDROOT
BRANCH   1  14
HETATM   14  N   UNL     1      25.921  46.519  50.785  1.00  0.00    -0.176 NA
HETATM   15  C   UNL     1      25.524  46.200  51.977  1.00  0.00     0.150 C 
BRANCH  15  16
HETATM   16  C   UNL     1      26.436  46.079  53.125  1.00  0.00    -0.017 A 
HETATM   17  C   UNL     1      26.732  47.155  53.956  1.00  0.00     0.013 A 
HETATM   18  C   UNL     1      27.703  47.011  54.954  1.00  0.00     0.009 A 
HETATM   19  C   UNL     1      28.403  45.800  55.129  1.00  0.00    -0.051 A 
HETATM   20  C   UNL     1      28.068  44.728  54.279  1.00  0.00     0.009 A 
HETATM   21  C   UNL     1      27.092  44.860  53.292  1.00  0.00     0.013 A 
BRANCH  19  22
HETATM   22  C   UNL     1      29.525  45.621  56.166  1.00  0.00    -0.024 C 
HETATM   23  C   UNL     1      30.102  44.190  56.219  1.00  0.00     0.019 C 
HETATM   24  C   UNL     1      28.971  45.950  57.570  1.00  0.00     0.019 C 
HETATM   25  C   UNL     1      30.697  46.575  55.848  1.00  0.00     0.019 C 
ENDBRANCH  19  22
ENDBRANCH  15  16
ENDBRANCH   1  14
BRANCH  13  26
HETATM   26  N   UNL     1      25.500  44.088  49.412  1.00  0.00    -0.286 NA
HETATM   27  H   UNL     1      25.077  43.158  49.317  1.00  0.00     0.125 HD
HETATM   28  H   UNL     1      26.131  44.100  50.214  1.00  0.00     0.125 HD
ENDBRANCH  13  26
BRANCH  12  29
HETATM   29  C   UNL     1      22.459  44.048  48.473  1.00  0.00     0.257 C 
HETATM   30  N   UNL     1      21.823  44.173  47.252  1.00  0.00    -0.354 N 
HETATM   31  H   UNL     1      22.100  44.986  46.706  1.00  0.00     0.162 HD
HETATM   32  O   UNL     1      22.388  43.035  49.155  1.00  0.00    -0.267 OA
BRANCH  30  33
HETATM   33  C   UNL     1      21.367  43.020  46.498  1.00  0.00     0.155 C 
BRANCH  33  34
HETATM   34  C   UNL     1      22.026  42.810  45.132  1.00  0.00     0.139 C 
HETATM   35  O   UNL     1      23.440  43.104  45.252  1.00  0.00    -0.384 OA
HETATM   36  C   UNL     1      24.182  42.034  44.653  1.00  0.00     0.168 C 
HETATM   37  C   UNL     1      23.210  41.273  43.785  1.00  0.00     0.029 C 
HETATM   38  C   UNL     1      21.936  41.394  44.580  1.00  0.00     0.035 C 
ENDBRANCH  33  34
ENDBRANCH  30  33
ENDBRANCH  12  29
TORSDOF 7
ENDMDL
