MODEL 1
REMARK VINA RESULT:      -8.3      0.000      0.000
REMARK  3 active torsions:
REMARK  status: ('A' for Active; 'I' for Inactive)
REMARK    1  A    between atoms: O_2  and  C_3 
REMARK       I    between atoms: N_13  and  C_14 
REMARK       I    between atoms: C_14  and  N_15 
REMARK    2  A    between atoms: N_15  and  C_16 
REMARK    3  A    between atoms: C_22  and  C_23 
ROOT
HETATM    1  C   UNL     1      24.283  48.953  49.049  1.00  0.00     0.069 A 
HETATM    2  C   UNL     1      23.034  48.344  49.220  1.00  0.00     0.051 A 
HETATM    3  C   UNL     1      21.892  48.915  48.615  1.00  0.00     0.002 A 
HETATM    4  C   UNL     1      22.044  50.071  47.846  1.00  0.00     0.043 A 
HETATM    5  N   UNL     1      20.798  50.422  47.371  1.00  0.00    -0.356 N 
HETATM    6  H   UNL     1      20.616  51.225  46.785  1.00  0.00     0.166 HD
HETATM    7  C   UNL     1      19.857  49.550  47.849  1.00  0.00     0.045 A 
HETATM    8  C   UNL     1      20.513  48.578  48.585  1.00  0.00    -0.019 A 
HETATM    9  C   UNL     1      19.775  47.418  49.174  1.00  0.00     0.061 C 
HETATM   10  C   UNL     1      18.258  47.704  49.167  1.00  0.00     0.133 C 
HETATM   11  N   UNL     1      17.822  48.300  47.886  1.00  0.00    -0.320 N 
HETATM   12  C   UNL     1      17.315  47.437  46.927  1.00  0.00     0.319 C 
HETATM   13  N   UNL     1      16.946  48.030  45.746  1.00  0.00    -0.338 N 
HETATM   14  O   UNL     1      17.193  46.231  47.122  1.00  0.00    -0.247 OA
HETATM   15  C   UNL     1      18.376  49.642  47.592  1.00  0.00     0.172 C 
HETATM   16  C   UNL     1      23.285  50.682  47.645  1.00  0.00     0.033 A 
HETATM   17  C   UNL     1      24.397  50.100  48.263  1.00  0.00     0.039 A 
HETATM   18  H   UNL     1      16.593  48.967  45.843  1.00  0.00     0.164 HD
ENDROOT
BRANCH  15  19
HETATM   19  C   UNL     1      17.639  50.715  48.402  1.00  0.00    -0.029 A 
HETATM   20  C   UNL     1      18.299  51.675  49.192  1.00  0.00     0.012 A 
HETATM   21  C   UNL     1      17.580  52.631  49.914  1.00  0.00     0.043 A 
HETATM   22  C   UNL     1      16.194  52.633  49.861  1.00  0.00     0.116 A 
HETATM   23  F   UNL     1      15.506  53.547  50.559  1.00  0.00    -0.206 F 
HETATM   24  C   UNL     1      15.511  51.695  49.102  1.00  0.00     0.043 A 
HETATM   25  C   UNL     1      16.229  50.742  48.375  1.00  0.00     0.012 A 
ENDBRANCH  15  19
BRANCH  13  26
HETATM   26  C   UNL     1      16.390  47.299  44.621  1.00  0.00     0.086 C 
HETATM   27  C   UNL     1      14.862  47.324  44.515  1.00  0.00     0.025 C 
HETATM   28  C   UNL     1      14.612  47.055  43.039  1.00  0.00     0.002 C 
HETATM   29  C   UNL     1      15.694  47.871  42.349  1.00  0.00     0.002 C 
HETATM   30  C   UNL     1      16.922  47.738  43.248  1.00  0.00     0.025 C 
ENDBRANCH  13  26
BRANCH   1  31
HETATM   31  O   UNL     1      25.462  48.518  49.592  1.00  0.00    -0.356 OA
HETATM   32  C   UNL     1      26.659  48.993  48.986  1.00  0.00     0.210 C 
ENDBRANCH   1  31
TORSDOF 3
ENDMDL
MODEL 2
REMARK VINA RESULT:      -8.0      2.435      2.816
REMARK  3 active torsions:
REMARK  status: ('A' for Active; 'I' for Inactive)
REMARK    1  A    between atoms: O_2  and  C_3 
REMARK       I    between atoms: N_13  and  C_14 
REMARK       I    between atoms: C_14  and  N_15 
REMARK    2  A    between atoms: N_15  and  C_16 
REMARK    3  A    between atoms: C_22  and  C_23 
ROOT
HETATM    1  C   UNL     1      23.694  47.697  49.148  1.00  0.00     0.069 A 
HETATM    2  C   UNL     1      22.439  47.479  48.567  1.00  0.00     0.051 A 
HETATM    3  C   UNL     1      21.672  48.583  48.132  1.00  0.00     0.002 A 
HETATM    4  C   UNL     1      22.197  49.869  48.283  1.00  0.00     0.043 A 
HETATM    5  N   UNL     1      21.267  50.759  47.786  1.00  0.00    -0.356 N 
HETATM    6  H   UNL     1      21.388  51.762  47.771  1.00  0.00     0.166 HD
HETATM    7  C   UNL     1      20.155  50.080  47.365  1.00  0.00     0.045 A 
HETATM    8  C   UNL     1      20.396  48.727  47.524  1.00  0.00    -0.019 A 
HETATM    9  C   UNL     1      19.406  47.702  47.073  1.00  0.00     0.061 C 
HETATM   10  C   UNL     1      18.039  48.371  46.815  1.00  0.00     0.133 C 
HETATM   11  N   UNL     1      18.187  49.646  46.082  1.00  0.00    -0.320 N 
HETATM   12  C   UNL     1      18.041  49.606  44.705  1.00  0.00     0.319 C 
HETATM   13  N   UNL     1      18.210  50.807  44.064  1.00  0.00    -0.338 N 
HETATM   14  O   UNL     1      17.766  48.573  44.100  1.00  0.00    -0.247 OA
HETATM   15  C   UNL     1      18.906  50.716  46.814  1.00  0.00     0.172 C 
HETATM   16  C   UNL     1      23.456  50.107  48.841  1.00  0.00     0.033 A 
HETATM   17  C   UNL     1      24.190  48.996  49.270  1.00  0.00     0.039 A 
HETATM   18  H   UNL     1      17.915  51.608  44.597  1.00  0.00     0.164 HD
ENDROOT
BRANCH  15  19
HETATM   19  C   UNL     1      17.987  51.362  47.857  1.00  0.00    -0.029 A 
HETATM   20  C   UNL     1      18.466  52.019  49.007  1.00  0.00     0.012 A 
HETATM   21  C   UNL     1      17.586  52.589  49.930  1.00  0.00     0.043 A 
HETATM   22  C   UNL     1      16.218  52.502  49.719  1.00  0.00     0.116 A 
HETATM   23  F   UNL     1      15.374  53.045  50.608  1.00  0.00    -0.206 F 
HETATM   24  C   UNL     1      15.711  51.854  48.602  1.00  0.00     0.043 A 
HETATM   25  C   UNL     1      16.591  51.288  47.676  1.00  0.00     0.012 A 
ENDBRANCH  15  19
BRANCH  13  26
HETATM   26  C   UNL     1      18.093  50.974  42.626  1.00  0.00     0.086 C 
HETATM   27  C   UNL     1      17.657  52.366  42.162  1.00  0.00     0.025 C 
HETATM   28  C   UNL     1      18.188  52.440  40.739  1.00  0.00     0.002 C 
HETATM   29  C   UNL     1      19.556  51.785  40.845  1.00  0.00     0.002 C 
HETATM   30  C   UNL     1      19.368  50.639  41.838  1.00  0.00     0.025 C 
ENDBRANCH  13  26
BRANCH   1  31
HETATM   31  O   UNL     1      24.530  46.724  49.627  1.00  0.00    -0.356 OA
HETATM   32  C   UNL     1      25.062  46.923  50.932  1.00  0.00     0.210 C 
ENDBRANCH   1  31
TORSDOF 3
ENDMDL
MODEL 3
REMARK VINA RESULT:      -7.9      8.139     11.505
REMARK  3 active torsions:
REMARK  status: ('A' for Active; 'I' for Inactive)
REMARK    1  A    between atoms: O_2  and  C_3 
REMARK       I    between atoms: N_13  and  C_14 
REMARK       I    between atoms: C_14  and  N_15 
REMARK    2  A    between atoms: N_15  and  C_16 
REMARK    3  A    between atoms: C_22  and  C_23 
ROOT
HETATM    1  C   UNL     1      23.791  40.115  47.277  1.00  0.00     0.069 A 
HETATM    2  C   UNL     1      23.587  41.065  48.286  1.00  0.00     0.051 A 
HETATM    3  C   UNL     1      24.674  41.846  48.737  1.00  0.00     0.002 A 
HETATM    4  C   UNL     1      25.929  41.658  48.151  1.00  0.00     0.043 A 
HETATM    5  N   UNL     1      26.808  42.530  48.758  1.00  0.00    -0.356 N 
HETATM    6  H   UNL     1      27.789  42.605  48.527  1.00  0.00     0.166 HD
HETATM    7  C   UNL     1      26.159  43.234  49.737  1.00  0.00     0.045 A 
HETATM    8  C   UNL     1      24.826  42.864  49.715  1.00  0.00    -0.019 A 
HETATM    9  C   UNL     1      23.822  43.520  50.609  1.00  0.00     0.061 C 
HETATM   10  C   UNL     1      24.547  44.296  51.730  1.00  0.00     0.133 C 
HETATM   11  N   UNL     1      25.698  45.061  51.206  1.00  0.00    -0.320 N 
HETATM   12  C   UNL     1      25.484  46.394  50.892  1.00  0.00     0.319 C 
HETATM   13  N   UNL     1      26.573  47.057  50.387  1.00  0.00    -0.338 N 
HETATM   14  O   UNL     1      24.401  46.947  51.066  1.00  0.00    -0.247 OA
HETATM   15  C   UNL     1      26.803  44.241  50.654  1.00  0.00     0.172 C 
HETATM   16  C   UNL     1      26.149  40.730  47.129  1.00  0.00     0.033 A 
HETATM   17  C   UNL     1      25.056  39.965  46.708  1.00  0.00     0.039 A 
HETATM   18  H   UNL     1      27.457  46.742  50.750  1.00  0.00     0.164 HD
ENDROOT
BRANCH  15  19
HETATM   19  C   UNL     1      27.646  43.647  51.788  1.00  0.00    -0.029 A 
HETATM   20  C   UNL     1      28.132  42.324  51.777  1.00  0.00     0.012 A 
HETATM   21  C   UNL     1      28.895  41.829  52.837  1.00  0.00     0.043 A 
HETATM   22  C   UNL     1      29.174  42.646  53.923  1.00  0.00     0.116 A 
HETATM   23  F   UNL     1      29.901  42.167  54.942  1.00  0.00    -0.206 F 
HETATM   24  C   UNL     1      28.703  43.949  53.971  1.00  0.00     0.043 A 
HETATM   25  C   UNL     1      27.944  44.447  52.909  1.00  0.00     0.012 A 
ENDBRANCH  15  19
BRANCH  13  26
HETATM   26  C   UNL     1      26.553  48.458  50.003  1.00  0.00     0.086 C 
HETATM   27  C   UNL     1      27.809  48.957  49.284  1.00  0.00     0.025 C 
HETATM   28  C   UNL     1      27.306  50.161  48.502  1.00  0.00     0.002 C 
HETATM   29  C   UNL     1      25.954  49.698  47.985  1.00  0.00     0.002 C 
HETATM   30  C   UNL     1      25.364  48.860  49.118  1.00  0.00     0.025 C 
ENDBRANCH  13  26
BRANCH   1  31
HETATM   31  O   UNL     1      22.835  39.283  46.762  1.00  0.00    -0.356 OA
HETATM   32  C   UNL     1      21.718  39.902  46.134  1.00  0.00     0.210 C 
ENDBRANCH   1  31
TORSDOF 3
ENDMDL
MODEL 4
REMARK VINA RESULT:      -7.7      1.506      1.858
REMARK  3 active torsions:
REMARK  status: ('A' for Active; 'I' for Inactive)
REMARK    1  A    between atoms: O_2  and  C_3 
REMARK       I    between atoms: N_13  and  C_14 
REMARK       I    between atoms: C_14  and  N_15 
REMARK    2  A    between atoms: N_15  and  C_16 
REMARK    3  A    between atoms: C_22  and  C_23 
ROOT
HETATM    1  C   UNL     1      25.078  47.900  49.466  1.00  0.00     0.069 A 
HETATM    2  C   UNL     1      23.778  47.411  49.291  1.00  0.00     0.051 A 
HETATM    3  C   UNL     1      22.817  48.211  48.635  1.00  0.00     0.002 A 
HETATM    4  C   UNL     1      23.196  49.470  48.162  1.00  0.00     0.043 A 
HETATM    5  N   UNL     1      22.091  50.042  47.567  1.00  0.00    -0.356 N 
HETATM    6  H   UNL     1      22.083  50.958  47.140  1.00  0.00     0.166 HD
HETATM    7  C   UNL     1      21.015  49.203  47.684  1.00  0.00     0.045 A 
HETATM    8  C   UNL     1      21.446  48.041  48.300  1.00  0.00    -0.019 A 
HETATM    9  C   UNL     1      20.527  46.879  48.499  1.00  0.00     0.061 C 
HETATM   10  C   UNL     1      19.064  47.327  48.294  1.00  0.00     0.133 C 
HETATM   11  N   UNL     1      18.923  48.203  47.112  1.00  0.00    -0.320 N 
HETATM   12  C   UNL     1      18.544  47.603  45.921  1.00  0.00     0.319 C 
HETATM   13  N   UNL     1      18.449  48.450  44.845  1.00  0.00    -0.338 N 
HETATM   14  O   UNL     1      18.298  46.403  45.835  1.00  0.00    -0.247 OA
HETATM   15  C   UNL     1      19.620  49.507  47.204  1.00  0.00     0.172 C 
HETATM   16  C   UNL     1      24.494  49.967  48.308  1.00  0.00     0.033 A 
HETATM   17  C   UNL     1      25.423  49.157  48.969  1.00  0.00     0.039 A 
HETATM   18  H   UNL     1      18.155  49.384  45.076  1.00  0.00     0.164 HD
ENDROOT
BRANCH  15  19
HETATM   19  C   UNL     1      18.825  50.479  48.084  1.00  0.00    -0.029 A 
HETATM   20  C   UNL     1      19.425  51.332  49.030  1.00  0.00     0.012 A 
HETATM   21  C   UNL     1      18.654  52.198  49.810  1.00  0.00     0.043 A 
HETATM   22  C   UNL     1      17.275  52.214  49.660  1.00  0.00     0.116 A 
HETATM   23  F   UNL     1      16.537  53.041  50.413  1.00  0.00    -0.206 F 
HETATM   24  C   UNL     1      16.650  51.380  48.746  1.00  0.00     0.043 A 
HETATM   25  C   UNL     1      17.421  50.517  47.962  1.00  0.00     0.012 A 
ENDBRANCH  15  19
BRANCH  13  26
HETATM   26  C   UNL     1      18.063  48.016  43.514  1.00  0.00     0.086 C 
HETATM   27  C   UNL     1      17.323  49.061  42.674  1.00  0.00     0.025 C 
HETATM   28  C   UNL     1      17.586  48.608  41.247  1.00  0.00     0.002 C 
HETATM   29  C   UNL     1      19.043  48.177  41.282  1.00  0.00     0.002 C 
HETATM   30  C   UNL     1      19.225  47.512  42.645  1.00  0.00     0.025 C 
ENDBRANCH  13  26
BRANCH   1  31
HETATM   31  O   UNL     1      26.099  47.241  50.098  1.00  0.00    -0.356 OA
HETATM   32  C   UNL     1      26.000  47.113  51.512  1.00  0.00     0.210 C 
ENDBRANCH   1  31
TORSDOF 3
ENDMDL
MODEL 5
REMARK VINA RESULT:      -7.3      3.406      4.297
REMARK  3 active torsions:
REMARK  status: ('A' for Active; 'I' for Inactive)
REMARK    1  A    between atoms: O_2  and  C_3 
REMARK       I    between atoms: N_13  and  C_14 
REMARK       I    between atoms: C_14  and  N_15 
REMARK    2  A    between atoms: N_15  and  C_16 
REMARK    3  A    between atoms: C_22  and  C_23 
ROOT
HETATM    1  C   UNL     1      20.971  49.242  48.837  1.00  0.00     0.069 A 
HETATM    2  C   UNL     1      19.681  49.026  48.337  1.00  0.00     0.051 A 
HETATM    3  C   UNL     1      18.877  50.132  47.985  1.00  0.00     0.002 A 
HETATM    4  C   UNL     1      19.400  51.420  48.133  1.00  0.00     0.043 A 
HETATM    5  N   UNL     1      18.431  52.312  47.725  1.00  0.00    -0.356 N 
HETATM    6  H   UNL     1      18.542  53.317  47.728  1.00  0.00     0.166 HD
HETATM    7  C   UNL     1      17.298  51.633  47.364  1.00  0.00     0.045 A 
HETATM    8  C   UNL     1      17.561  50.278  47.471  1.00  0.00    -0.019 A 
HETATM    9  C   UNL     1      16.551  49.255  47.062  1.00  0.00     0.061 C 
HETATM   10  C   UNL     1      15.164  49.917  46.916  1.00  0.00     0.133 C 
HETATM   11  N   UNL     1      15.250  51.212  46.208  1.00  0.00    -0.320 N 
HETATM   12  C   UNL     1      15.009  51.205  44.843  1.00  0.00     0.319 C 
HETATM   13  N   UNL     1      15.124  52.424  44.224  1.00  0.00    -0.338 N 
HETATM   14  O   UNL     1      14.702  50.185  44.232  1.00  0.00    -0.247 OA
HETATM   15  C   UNL     1      16.009  52.270  46.916  1.00  0.00     0.172 C 
HETATM   16  C   UNL     1      20.692  51.656  48.610  1.00  0.00     0.033 A 
HETATM   17  C   UNL     1      21.463  50.542  48.958  1.00  0.00     0.039 A 
HETATM   18  H   UNL     1      14.859  53.208  44.797  1.00  0.00     0.164 HD
ENDROOT
BRANCH  15  19
HETATM   19  C   UNL     1      15.158  52.880  48.037  1.00  0.00    -0.029 A 
HETATM   20  C   UNL     1      14.252  53.938  47.829  1.00  0.00     0.012 A 
HETATM   21  C   UNL     1      13.502  54.461  48.886  1.00  0.00     0.043 A 
HETATM   22  C   UNL     1      13.654  53.938  50.162  1.00  0.00     0.116 A 
HETATM   23  F   UNL     1      12.938  54.445  51.174  1.00  0.00    -0.206 F 
HETATM   24  C   UNL     1      14.544  52.903  50.403  1.00  0.00     0.043 A 
HETATM   25  C   UNL     1      15.292  52.376  49.347  1.00  0.00     0.012 A 
ENDBRANCH  15  19
BRANCH  13  26
HETATM   26  C   UNL     1      14.906  52.626  42.803  1.00  0.00     0.086 C 
HETATM   27  C   UNL     1      13.617  53.367  42.437  1.00  0.00     0.025 C 
HETATM   28  C   UNL     1      13.930  53.951  41.068  1.00  0.00     0.002 C 
HETATM   29  C   UNL     1      15.368  54.422  41.211  1.00  0.00     0.002 C 
HETATM   30  C   UNL     1      16.044  53.363  42.081  1.00  0.00     0.025 C 
ENDBRANCH  13  26
BRANCH   1  31
HETATM   31  O   UNL     1      21.846  48.265  49.232  1.00  0.00    -0.356 OA
HETATM   32  C   UNL     1      23.215  48.638  49.339  1.00  0.00     0.210 C 
ENDBRANCH   1  31
TORSDOF 3
ENDMDL
MODEL 6
REMARK VINA RESULT:      -7.3     14.008     19.215
REMARK  3 active torsions:
REMARK  status: ('A' for Active; 'I' for Inactive)
REMARK    1  A    between atoms: O_2  and  C_3 
REMARK       I    between atoms: N_13  and  C_14 
REMARK       I    between atoms: C_14  and  N_15 
REMARK    2  A    between atoms: N_15  and  C_16 
REMARK    3  A    between atoms: C_22  and  C_23 
ROOT
HETATM    1  C   UNL     1      30.248  49.863  40.746  1.00  0.00     0.069 A 
HETATM    2  C   UNL     1      31.235  50.758  40.314  1.00  0.00     0.051 A 
HETATM    3  C   UNL     1      32.593  50.479  40.584  1.00  0.00     0.002 A 
HETATM    4  C   UNL     1      32.917  49.305  41.267  1.00  0.00     0.043 A 
HETATM    5  N   UNL     1      34.289  49.267  41.402  1.00  0.00    -0.356 N 
HETATM    6  H   UNL     1      34.797  48.524  41.862  1.00  0.00     0.166 HD
HETATM    7  C   UNL     1      34.839  50.399  40.863  1.00  0.00     0.045 A 
HETATM    8  C   UNL     1      33.816  51.147  40.307  1.00  0.00    -0.019 A 
HETATM    9  C   UNL     1      34.095  52.409  39.556  1.00  0.00     0.061 C 
HETATM   10  C   UNL     1      35.532  52.888  39.851  1.00  0.00     0.133 C 
HETATM   11  N   UNL     1      36.496  51.768  39.820  1.00  0.00    -0.320 N 
HETATM   12  C   UNL     1      37.179  51.552  38.633  1.00  0.00     0.319 C 
HETATM   13  N   UNL     1      38.045  50.487  38.643  1.00  0.00    -0.338 N 
HETATM   14  O   UNL     1      37.031  52.268  37.647  1.00  0.00    -0.247 OA
HETATM   15  C   UNL     1      36.306  50.741  40.872  1.00  0.00     0.172 C 
HETATM   16  C   UNL     1      31.949  48.389  41.689  1.00  0.00     0.033 A 
HETATM   17  C   UNL     1      30.612  48.694  41.415  1.00  0.00     0.039 A 
HETATM   18  H   UNL     1      38.478  50.312  39.534  1.00  0.00     0.164 HD
ENDROOT
BRANCH  15  19
HETATM   19  C   UNL     1      36.852  51.243  42.214  1.00  0.00    -0.029 A 
HETATM   20  C   UNL     1      38.158  50.971  42.666  1.00  0.00     0.012 A 
HETATM   21  C   UNL     1      38.607  51.449  43.900  1.00  0.00     0.043 A 
HETATM   22  C   UNL     1      37.754  52.196  44.699  1.00  0.00     0.116 A 
HETATM   23  F   UNL     1      38.184  52.649  45.884  1.00  0.00    -0.206 F 
HETATM   24  C   UNL     1      36.458  52.473  44.289  1.00  0.00     0.043 A 
HETATM   25  C   UNL     1      36.010  52.000  43.054  1.00  0.00     0.012 A 
ENDBRANCH  15  19
BRANCH  13  26
HETATM   26  C   UNL     1      38.854  50.100  37.501  1.00  0.00     0.086 C 
HETATM   27  C   UNL     1      40.335  49.851  37.803  1.00  0.00     0.025 C 
HETATM   28  C   UNL     1      40.767  48.927  36.675  1.00  0.00     0.002 C 
HETATM   29  C   UNL     1      39.586  47.982  36.527  1.00  0.00     0.002 C 
HETATM   30  C   UNL     1      38.353  48.854  36.755  1.00  0.00     0.025 C 
ENDBRANCH  13  26
BRANCH   1  31
HETATM   31  O   UNL     1      28.899  50.019  40.569  1.00  0.00    -0.356 OA
HETATM   32  C   UNL     1      28.260  51.014  41.359  1.00  0.00     0.210 C 
ENDBRANCH   1  31
TORSDOF 3
ENDMDL
MODEL 7
REMARK VINA RESULT:      -7.2     16.598     20.595
REMARK  3 active torsions:
REMARK  status: ('A' for Active; 'I' for Inactive)
REMARK    1  A    between atoms: O_2  and  C_3 
REMARK       I    between atoms: N_13  and  C_14 
REMARK       I    between atoms: C_14  and  N_15 
REMARK    2  A    between atoms: N_15  and  C_16 
REMARK    3  A    between atoms: C_22  and  C_23 
ROOT
HETATM    1  C   UNL     1      33.937  51.635  39.530  1.00  0.00     0.069 A 
HETATM    2  C   UNL     1      35.325  51.666  39.711  1.00  0.00     0.051 A 
HETATM    3  C   UNL     1      35.863  51.455  40.999  1.00  0.00     0.002 A 
HETATM    4  C   UNL     1      34.991  51.206  42.062  1.00  0.00     0.043 A 
HETATM    5  N   UNL     1      35.756  51.035  43.197  1.00  0.00    -0.356 N 
HETATM    6  H   UNL     1      35.379  50.843  44.115  1.00  0.00     0.166 HD
HETATM    7  C   UNL     1      37.079  51.209  42.895  1.00  0.00     0.045 A 
HETATM    8  C   UNL     1      37.180  51.425  41.531  1.00  0.00    -0.019 A 
HETATM    9  C   UNL     1      38.510  51.565  40.862  1.00  0.00     0.061 C 
HETATM   10  C   UNL     1      39.605  51.820  41.920  1.00  0.00     0.133 C 
HETATM   11  N   UNL     1      39.444  50.936  43.094  1.00  0.00    -0.320 N 
HETATM   12  C   UNL     1      40.184  49.764  43.110  1.00  0.00     0.319 C 
HETATM   13  N   UNL     1      39.986  48.963  44.207  1.00  0.00    -0.338 N 
HETATM   14  O   UNL     1      40.971  49.468  42.215  1.00  0.00    -0.247 OA
HETATM   15  C   UNL     1      38.212  51.155  43.887  1.00  0.00     0.172 C 
HETATM   16  C   UNL     1      33.604  51.150  41.898  1.00  0.00     0.033 A 
HETATM   17  C   UNL     1      33.099  51.371  40.613  1.00  0.00     0.039 A 
HETATM   18  H   UNL     1      39.782  49.464  45.055  1.00  0.00     0.164 HD
ENDROOT
BRANCH  15  19
HETATM   19  C   UNL     1      38.361  52.396  44.776  1.00  0.00    -0.029 A 
HETATM   20  C   UNL     1      37.592  53.564  44.606  1.00  0.00     0.012 A 
HETATM   21  C   UNL     1      37.769  54.669  45.442  1.00  0.00     0.043 A 
HETATM   22  C   UNL     1      38.720  54.623  46.451  1.00  0.00     0.116 A 
HETATM   23  F   UNL     1      38.892  55.687  47.248  1.00  0.00    -0.206 F 
HETATM   24  C   UNL     1      39.501  53.493  46.639  1.00  0.00     0.043 A 
HETATM   25  C   UNL     1      39.322  52.385  45.807  1.00  0.00     0.012 A 
ENDBRANCH  15  19
BRANCH  13  26
HETATM   26  C   UNL     1      40.669  47.699  44.411  1.00  0.00     0.086 C 
HETATM   27  C   UNL     1      41.964  47.779  45.225  1.00  0.00     0.025 C 
HETATM   28  C   UNL     1      42.112  46.371  45.780  1.00  0.00     0.002 C 
HETATM   29  C   UNL     1      40.690  45.998  46.165  1.00  0.00     0.002 C 
HETATM   30  C   UNL     1      39.813  46.609  45.074  1.00  0.00     0.025 C 
ENDBRANCH  13  26
BRANCH   1  31
HETATM   31  O   UNL     1      33.284  51.840  38.344  1.00  0.00    -0.356 OA
HETATM   32  C   UNL     1      32.004  51.235  38.205  1.00  0.00     0.210 C 
ENDBRANCH   1  31
TORSDOF 3
ENDMDL
MODEL 8
REMARK VINA RESULT:      -7.2      9.189     11.192
REMARK  3 active torsions:
REMARK  status: ('A' for Active; 'I' for Inactive)
REMARK    1  A    between atoms: O_2  and  C_3 
REMARK       I    between atoms: N_13  and  C_14 
REMARK       I    between atoms: C_14  and  N_15 
REMARK    2  A    between atoms: N_15  and  C_16 
REMARK    3  A    between atoms: C_22  and  C_23 
ROOT
HETATM    1  C   UNL     1      30.439  51.304  39.587  1.00  0.00     0.069 A 
HETATM    2  C   UNL     1      29.418  50.621  38.913  1.00  0.00     0.051 A 
HETATM    3  C   UNL     1      28.391  49.998  39.655  1.00  0.00     0.002 A 
HETATM    4  C   UNL     1      28.413  50.093  41.049  1.00  0.00     0.043 A 
HETATM    5  N   UNL     1      27.315  49.411  41.531  1.00  0.00    -0.356 N 
HETATM    6  H   UNL     1      27.086  49.318  42.511  1.00  0.00     0.166 HD
HETATM    7  C   UNL     1      26.623  48.854  40.490  1.00  0.00     0.045 A 
HETATM    8  C   UNL     1      27.240  49.240  39.312  1.00  0.00    -0.019 A 
HETATM    9  C   UNL     1      26.674  48.868  37.979  1.00  0.00     0.061 C 
HETATM   10  C   UNL     1      25.630  47.744  38.148  1.00  0.00     0.133 C 
HETATM   11  N   UNL     1      24.737  47.998  39.299  1.00  0.00    -0.320 N 
HETATM   12  C   UNL     1      23.524  48.615  39.035  1.00  0.00     0.319 C 
HETATM   13  N   UNL     1      22.739  48.853  40.135  1.00  0.00    -0.338 N 
HETATM   14  O   UNL     1      23.170  48.916  37.899  1.00  0.00    -0.247 OA
HETATM   15  C   UNL     1      25.397  47.989  40.626  1.00  0.00     0.172 C 
HETATM   16  C   UNL     1      29.411  50.787  41.739  1.00  0.00     0.033 A 
HETATM   17  C   UNL     1      30.420  51.388  40.979  1.00  0.00     0.039 A 
HETATM   18  H   UNL     1      22.828  48.166  40.866  1.00  0.00     0.164 HD
ENDROOT
BRANCH  15  19
HETATM   19  C   UNL     1      25.661  46.549  41.082  1.00  0.00    -0.029 A 
HETATM   20  C   UNL     1      26.862  45.863  40.815  1.00  0.00     0.012 A 
HETATM   21  C   UNL     1      27.052  44.549  41.251  1.00  0.00     0.043 A 
HETATM   22  C   UNL     1      26.043  43.904  41.950  1.00  0.00     0.116 A 
HETATM   23  F   UNL     1      26.225  42.642  42.362  1.00  0.00    -0.206 F 
HETATM   24  C   UNL     1      24.844  44.546  42.221  1.00  0.00     0.043 A 
HETATM   25  C   UNL     1      24.654  45.861  41.790  1.00  0.00     0.012 A 
ENDBRANCH  15  19
BRANCH  13  26
HETATM   26  C   UNL     1      21.433  49.484  40.067  1.00  0.00     0.086 C 
HETATM   27  C   UNL     1      20.331  48.799  40.881  1.00  0.00     0.025 C 
HETATM   28  C   UNL     1      19.332  49.919  41.125  1.00  0.00     0.002 C 
HETATM   29  C   UNL     1      20.220  51.117  41.421  1.00  0.00     0.002 C 
HETATM   30  C   UNL     1      21.416  50.963  40.483  1.00  0.00     0.025 C 
ENDBRANCH  13  26
BRANCH   1  31
HETATM   31  O   UNL     1      31.500  51.934  38.995  1.00  0.00    -0.356 OA
HETATM   32  C   UNL     1      32.220  51.193  38.017  1.00  0.00     0.210 C 
ENDBRANCH   1  31
TORSDOF 3
ENDMDL
MODEL 9
REMARK VINA RESULT:      -7.1      3.691      7.876
REMARK  3 active torsions:
REMARK  status: ('A' for Active; 'I' for Inactive)
REMARK    1  A    between atoms: O_2  and  C_3 
REMARK       I    between atoms: N_13  and  C_14 
REMARK       I    between atoms: C_14  and  N_15 
REMARK    2  A    between atoms: N_15  and  C_16 
REMARK    3  A    between atoms: C_22  and  C_23 
ROOT
HETATM    1  C   UNL     1      15.459  53.575  45.050  1.00  0.00     0.069 A 
HETATM    2  C   UNL     1      15.810  52.813  46.171  1.00  0.00     0.051 A 
HETATM    3  C   UNL     1      16.773  51.788  46.042  1.00  0.00     0.002 A 
HETATM    4  C   UNL     1      17.363  51.571  44.794  1.00  0.00     0.043 A 
HETATM    5  N   UNL     1      18.258  50.531  44.932  1.00  0.00    -0.356 N 
HETATM    6  H   UNL     1      18.825  50.162  44.181  1.00  0.00     0.166 HD
HETATM    7  C   UNL     1      18.222  50.056  46.216  1.00  0.00     0.045 A 
HETATM    8  C   UNL     1      17.345  50.847  46.938  1.00  0.00    -0.019 A 
HETATM    9  C   UNL     1      17.146  50.645  48.406  1.00  0.00     0.061 C 
HETATM   10  C   UNL     1      17.715  49.275  48.830  1.00  0.00     0.133 C 
HETATM   11  N   UNL     1      19.032  49.017  48.208  1.00  0.00    -0.320 N 
HETATM   12  C   UNL     1      20.157  49.329  48.955  1.00  0.00     0.319 C 
HETATM   13  N   UNL     1      21.356  49.096  48.330  1.00  0.00    -0.338 N 
HETATM   14  O   UNL     1      20.088  49.771  50.099  1.00  0.00    -0.247 OA
HETATM   15  C   UNL     1      19.019  48.887  46.732  1.00  0.00     0.172 C 
HETATM   16  C   UNL     1      17.041  52.334  43.668  1.00  0.00     0.033 A 
HETATM   17  C   UNL     1      16.079  53.337  43.823  1.00  0.00     0.039 A 
HETATM   18  H   UNL     1      21.350  48.313  47.698  1.00  0.00     0.164 HD
ENDROOT
BRANCH  15  19
HETATM   19  C   UNL     1      18.496  47.506  46.320  1.00  0.00    -0.029 A 
HETATM   20  C   UNL     1      17.319  47.320  45.569  1.00  0.00     0.012 A 
HETATM   21  C   UNL     1      16.882  46.039  45.221  1.00  0.00     0.043 A 
HETATM   22  C   UNL     1      17.612  44.931  45.627  1.00  0.00     0.116 A 
HETATM   23  F   UNL     1      17.188  43.703  45.298  1.00  0.00    -0.206 F 
HETATM   24  C   UNL     1      18.769  45.078  46.377  1.00  0.00     0.043 A 
HETATM   25  C   UNL     1      19.209  46.358  46.721  1.00  0.00     0.012 A 
ENDBRANCH  15  19
BRANCH  13  26
HETATM   26  C   UNL     1      22.646  49.354  48.946  1.00  0.00     0.086 C 
HETATM   27  C   UNL     1      23.626  48.177  48.928  1.00  0.00     0.025 C 
HETATM   28  C   UNL     1      24.982  48.854  49.044  1.00  0.00     0.002 C 
HETATM   29  C   UNL     1      24.840  50.073  48.147  1.00  0.00     0.002 C 
HETATM   30  C   UNL     1      23.405  50.553  48.359  1.00  0.00     0.025 C 
ENDBRANCH  13  26
BRANCH   1  31
HETATM   31  O   UNL     1      14.531  54.583  45.030  1.00  0.00    -0.356 OA
HETATM   32  C   UNL     1      13.931  54.924  46.274  1.00  0.00     0.210 C 
ENDBRANCH   1  31
TORSDOF 3
ENDMDL
MODEL 10
REMARK VINA RESULT:      -7.0     10.559     12.827
REMARK  3 active torsions:
REMARK  status: ('A' for Active; 'I' for Inactive)
REMARK    1  A    between atoms: O_2  and  C_3 
REMARK       I    between atoms: N_13  and  C_14 
REMARK       I    between atoms: C_14  and  N_15 
REMARK    2  A    between atoms: N_15  and  C_16 
REMARK    3  A    between atoms: C_22  and  C_23 
ROOT
HETATM    1  C   UNL     1      27.339  42.256  41.694  1.00  0.00     0.069 A 
HETATM    2  C   UNL     1      27.723  43.136  40.674  1.00  0.00     0.051 A 
HETATM    3  C   UNL     1      27.292  44.480  40.718  1.00  0.00     0.002 A 
HETATM    4  C   UNL     1      26.501  44.901  41.790  1.00  0.00     0.043 A 
HETATM    5  N   UNL     1      26.218  46.238  41.601  1.00  0.00    -0.356 N 
HETATM    6  H   UNL     1      25.659  46.797  42.229  1.00  0.00     0.166 HD
HETATM    7  C   UNL     1      26.769  46.665  40.422  1.00  0.00     0.045 A 
HETATM    8  C   UNL     1      27.479  45.610  39.876  1.00  0.00    -0.019 A 
HETATM    9  C   UNL     1      28.278  45.775  38.624  1.00  0.00     0.061 C 
HETATM   10  C   UNL     1      27.865  47.078  37.906  1.00  0.00     0.133 C 
HETATM   11  N   UNL     1      27.718  48.200  38.857  1.00  0.00    -0.320 N 
HETATM   12  C   UNL     1      28.809  49.040  39.018  1.00  0.00     0.319 C 
HETATM   13  N   UNL     1      28.636  50.053  39.928  1.00  0.00    -0.338 N 
HETATM   14  O   UNL     1      29.851  48.899  38.384  1.00  0.00    -0.247 OA
HETATM   15  C   UNL     1      26.627  48.050  39.849  1.00  0.00     0.172 C 
HETATM   16  C   UNL     1      26.125  44.043  42.828  1.00  0.00     0.033 A 
HETATM   17  C   UNL     1      26.559  42.716  42.755  1.00  0.00     0.039 A 
HETATM   18  H   UNL     1      27.695  50.403  39.987  1.00  0.00     0.164 HD
ENDROOT
BRANCH  15  19
HETATM   19  C   UNL     1      25.271  48.353  39.201  1.00  0.00    -0.029 A 
HETATM   20  C   UNL     1      24.301  47.365  38.943  1.00  0.00     0.012 A 
HETATM   21  C   UNL     1      23.080  47.693  38.348  1.00  0.00     0.043 A 
HETATM   22  C   UNL     1      22.818  49.009  37.997  1.00  0.00     0.116 A 
HETATM   23  F   UNL     1      21.649  49.321  37.420  1.00  0.00    -0.206 F 
HETATM   24  C   UNL     1      23.755  50.005  38.227  1.00  0.00     0.043 A 
HETATM   25  C   UNL     1      24.974  49.680  38.827  1.00  0.00     0.012 A 
ENDBRANCH  15  19
BRANCH  13  26
HETATM   26  C   UNL     1      29.658  51.039  40.235  1.00  0.00     0.086 C 
HETATM   27  C   UNL     1      29.316  52.479  39.842  1.00  0.00     0.025 C 
HETATM   28  C   UNL     1      30.191  53.309  40.768  1.00  0.00     0.002 C 
HETATM   29  C   UNL     1      30.098  52.565  42.091  1.00  0.00     0.002 C 
HETATM   30  C   UNL     1      30.077  51.086  41.712  1.00  0.00     0.025 C 
ENDBRANCH  13  26
BRANCH   1  31
HETATM   31  O   UNL     1      27.670  40.929  41.766  1.00  0.00    -0.356 OA
HETATM   32  C   UNL     1      28.803  40.594  42.558  1.00  0.00     0.210 C 
ENDBRANCH   1  31
TORSDOF 3
ENDMDL
