MODEL 1
REMARK VINA RESULT:      -8.6      0.000      0.000
REMARK  4 active torsions:
REMARK  status: ('A' for Active; 'I' for Inactive)
REMARK    1  A    between atoms: C_6  and  N_7 
REMARK       I    between atoms: N_7  and  C_8 
REMARK    2  A    between atoms: C_8  and  C_9 
REMARK    3  A    between atoms: C_10  and  C_11 
REMARK    4  A    between atoms: C_14  and  O_15 
ROOT
HETATM    1  C   UNL     1      37.951  44.480  63.563  1.00  0.00     0.131 C 
HETATM    2  C   UNL     1      36.658  45.026  64.225  1.00  0.00     0.177 C 
HETATM    3  N   UNL     1      36.012  44.025  65.079  1.00  0.00    -0.088 N 
HETATM    4  C   UNL     1      36.309  42.685  65.051  1.00  0.00     0.721 A 
HETATM    5  N   UNL     1      37.335  42.210  64.311  1.00  0.00    -0.218 N 
HETATM    6  C   UNL     1      37.759  43.006  63.155  1.00  0.00     0.111 C 
HETATM    7  C   UNL     1      39.000  42.383  62.520  1.00  0.00     0.034 C 
HETATM    8  N   UNL     1      34.902  44.250  65.807  1.00  0.00    -0.149 NA
HETATM    9  C   UNL     1      34.649  43.024  66.276  1.00  0.00     0.275 A 
HETATM   10  N   UNL     1      35.493  42.039  65.838  1.00  0.00    -0.055 NA
HETATM   11  H   UNL     1      37.306  41.201  64.156  1.00  0.00     0.178 HD
ENDROOT
BRANCH   1  12
HETATM   12  C   UNL     1      39.208  44.726  64.403  1.00  0.00     0.230 C 
HETATM   13  N   UNL     1      40.075  45.673  63.908  1.00  0.00    -0.326 N 
HETATM   14  H   UNL     1      39.842  46.061  62.998  1.00  0.00     0.169 HD
HETATM   15  O   UNL     1      39.383  44.033  65.403  1.00  0.00    -0.273 OA
BRANCH  13  16
HETATM   16  C   UNL     1      41.349  46.049  64.392  1.00  0.00     0.040 A 
HETATM   17  C   UNL     1      41.639  47.120  65.252  1.00  0.00    -0.035 A 
HETATM   18  C   UNL     1      42.966  47.287  65.703  1.00  0.00     0.015 A 
HETATM   19  C   UNL     1      40.649  48.160  65.694  1.00  0.00     0.050 C 
HETATM   20  C   UNL     1      44.009  46.467  65.259  1.00  0.00    -0.061 A 
HETATM   21  C   UNL     1      45.401  46.648  65.788  1.00  0.00     0.048 C 
HETATM   22  C   UNL     1      43.720  45.448  64.355  1.00  0.00     0.009 A 
HETATM   23  C   UNL     1      42.408  45.255  63.917  1.00  0.00     0.030 A 
ENDBRANCH  13  16
ENDBRANCH   1  12
BRANCH   2  24
HETATM   24  C   UNL     1      36.818  46.400  64.865  1.00  0.00    -0.032 A 
HETATM   25  C   UNL     1      36.870  46.493  66.266  1.00  0.00     0.012 A 
HETATM   26  C   UNL     1      37.018  47.730  66.897  1.00  0.00     0.037 A 
HETATM   27  C   UNL     1      37.132  48.897  66.146  1.00  0.00     0.068 A 
HETATM   28  C   UNL     1      37.038  48.829  64.758  1.00  0.00     0.037 A 
HETATM   29  C   UNL     1      36.875  47.591  64.123  1.00  0.00     0.012 A 
BRANCH  27  30
HETATM   30  O   UNL     1      37.301  50.046  66.870  1.00  0.00    -0.356 OA
HETATM   31  C   UNL     1      37.873  51.135  66.153  1.00  0.00     0.210 C 
ENDBRANCH  27  30
ENDBRANCH   2  24
TORSDOF 4
ENDMDL
MODEL 2
REMARK VINA RESULT:      -8.0     23.548     26.041
REMARK  4 active torsions:
REMARK  status: ('A' for Active; 'I' for Inactive)
REMARK    1  A    between atoms: C_6  and  N_7 
REMARK       I    between atoms: N_7  and  C_8 
REMARK    2  A    between atoms: C_8  and  C_9 
REMARK    3  A    between atoms: C_10  and  C_11 
REMARK    4  A    between atoms: C_14  and  O_15 
ROOT
HETATM    1  C   UNL     1      21.987  48.922  47.738  1.00  0.00     0.131 C 
HETATM    2  C   UNL     1      22.163  47.381  47.695  1.00  0.00     0.177 C 
HETATM    3  N   UNL     1      22.989  46.890  48.803  1.00  0.00    -0.088 N 
HETATM    4  C   UNL     1      23.777  47.694  49.587  1.00  0.00     0.721 A 
HETATM    5  N   UNL     1      23.740  49.040  49.472  1.00  0.00    -0.218 N 
HETATM    6  C   UNL     1      23.299  49.595  48.189  1.00  0.00     0.111 C 
HETATM    7  C   UNL     1      23.200  51.116  48.285  1.00  0.00     0.034 C 
HETATM    8  N   UNL     1      23.261  45.591  49.031  1.00  0.00    -0.149 NA
HETATM    9  C   UNL     1      24.137  45.684  50.036  1.00  0.00     0.275 A 
HETATM   10  N   UNL     1      24.475  46.957  50.408  1.00  0.00    -0.055 NA
HETATM   11  H   UNL     1      24.533  49.519  49.902  1.00  0.00     0.178 HD
ENDROOT
BRANCH   1  12
HETATM   12  C   UNL     1      20.761  49.366  48.541  1.00  0.00     0.230 C 
HETATM   13  N   UNL     1      19.781  50.008  47.819  1.00  0.00    -0.326 N 
HETATM   14  H   UNL     1      19.994  50.196  46.843  1.00  0.00     0.169 HD
HETATM   15  O   UNL     1      20.764  49.181  49.756  1.00  0.00    -0.273 OA
BRANCH  13  16
HETATM   16  C   UNL     1      18.593  50.617  48.282  1.00  0.00     0.040 A 
HETATM   17  C   UNL     1      17.300  50.070  48.252  1.00  0.00    -0.035 A 
HETATM   18  C   UNL     1      16.243  50.792  48.847  1.00  0.00     0.015 A 
HETATM   19  C   UNL     1      16.928  48.781  47.574  1.00  0.00     0.050 C 
HETATM   20  C   UNL     1      16.432  52.066  49.394  1.00  0.00    -0.061 A 
HETATM   21  C   UNL     1      15.296  52.791  50.052  1.00  0.00     0.048 C 
HETATM   22  C   UNL     1      17.706  52.626  49.359  1.00  0.00     0.009 A 
HETATM   23  C   UNL     1      18.768  51.915  48.795  1.00  0.00     0.030 A 
ENDBRANCH  13  16
ENDBRANCH   1  12
BRANCH   2  24
HETATM   24  C   UNL     1      20.865  46.611  47.480  1.00  0.00    -0.032 A 
HETATM   25  C   UNL     1      20.310  46.565  46.191  1.00  0.00     0.012 A 
HETATM   26  C   UNL     1      19.123  45.871  45.946  1.00  0.00     0.037 A 
HETATM   27  C   UNL     1      18.474  45.195  46.976  1.00  0.00     0.068 A 
HETATM   28  C   UNL     1      18.986  45.267  48.270  1.00  0.00     0.037 A 
HETATM   29  C   UNL     1      20.168  45.975  48.521  1.00  0.00     0.012 A 
BRANCH  27  30
HETATM   30  O   UNL     1      17.337  44.527  46.614  1.00  0.00    -0.356 OA
HETATM   31  C   UNL     1      17.039  44.547  45.222  1.00  0.00     0.210 C 
ENDBRANCH  27  30
ENDBRANCH   2  24
TORSDOF 4
ENDMDL
MODEL 3
REMARK VINA RESULT:      -7.9     17.935     20.572
REMARK  4 active torsions:
REMARK  status: ('A' for Active; 'I' for Inactive)
REMARK    1  A    between atoms: C_6  and  N_7 
REMARK       I    between atoms: N_7  and  C_8 
REMARK    2  A    between atoms: C_8  and  C_9 
REMARK    3  A    between atoms: C_10  and  C_11 
REMARK    4  A    between atoms: C_14  and  O_15 
ROOT
HETATM    1  C   UNL     1      25.573  40.533  48.758  1.00  0.00     0.131 C 
HETATM    2  C   UNL     1      26.278  39.379  47.997  1.00  0.00     0.177 C 
HETATM    3  N   UNL     1      26.619  39.755  46.621  1.00  0.00    -0.088 N 
HETATM    4  C   UNL     1      26.103  40.849  45.974  1.00  0.00     0.721 A 
HETATM    5  N   UNL     1      25.329  41.747  46.623  1.00  0.00    -0.218 N 
HETATM    6  C   UNL     1      24.612  41.284  47.814  1.00  0.00     0.111 C 
HETATM    7  C   UNL     1      23.898  42.457  48.481  1.00  0.00     0.034 C 
HETATM    8  N   UNL     1      27.278  38.959  45.757  1.00  0.00    -0.149 NA
HETATM    9  C   UNL     1      27.212  39.686  44.637  1.00  0.00     0.275 A 
HETATM   10  N   UNL     1      26.504  40.853  44.732  1.00  0.00    -0.055 NA
HETATM   11  H   UNL     1      24.795  42.362  46.006  1.00  0.00     0.178 HD
ENDROOT
BRANCH   1  12
HETATM   12  C   UNL     1      26.549  41.451  49.498  1.00  0.00     0.230 C 
HETATM   13  N   UNL     1      26.640  41.246  50.857  1.00  0.00    -0.326 N 
HETATM   14  H   UNL     1      25.999  40.564  51.250  1.00  0.00     0.169 HD
HETATM   15  O   UNL     1      27.123  42.329  48.857  1.00  0.00    -0.273 OA
BRANCH  13  16
HETATM   16  C   UNL     1      27.367  41.985  51.818  1.00  0.00     0.040 A 
HETATM   17  C   UNL     1      26.938  43.141  52.490  1.00  0.00    -0.035 A 
HETATM   18  C   UNL     1      27.770  43.693  53.488  1.00  0.00     0.015 A 
HETATM   19  C   UNL     1      25.671  43.890  52.189  1.00  0.00     0.050 C 
HETATM   20  C   UNL     1      29.036  43.169  53.772  1.00  0.00    -0.061 A 
HETATM   21  C   UNL     1      29.879  43.756  54.865  1.00  0.00     0.048 C 
HETATM   22  C   UNL     1      29.477  42.062  53.052  1.00  0.00     0.009 A 
HETATM   23  C   UNL     1      28.657  41.489  52.077  1.00  0.00     0.030 A 
ENDBRANCH  13  16
ENDBRANCH   1  12
BRANCH   2  24
HETATM   24  C   UNL     1      27.410  38.720  48.775  1.00  0.00    -0.032 A 
HETATM   25  C   UNL     1      27.117  37.616  49.593  1.00  0.00     0.012 A 
HETATM   26  C   UNL     1      28.123  36.978  50.324  1.00  0.00     0.037 A 
HETATM   27  C   UNL     1      29.442  37.417  50.242  1.00  0.00     0.068 A 
HETATM   28  C   UNL     1      29.743  38.537  49.471  1.00  0.00     0.037 A 
HETATM   29  C   UNL     1      28.735  39.187  48.749  1.00  0.00     0.012 A 
BRANCH  27  30
HETATM   30  O   UNL     1      30.345  36.700  50.977  1.00  0.00    -0.356 OA
HETATM   31  C   UNL     1      29.781  35.708  51.829  1.00  0.00     0.210 C 
ENDBRANCH  27  30
ENDBRANCH   2  24
TORSDOF 4
ENDMDL
MODEL 4
REMARK VINA RESULT:      -7.9     17.930     20.106
REMARK  4 active torsions:
REMARK  status: ('A' for Active; 'I' for Inactive)
REMARK    1  A    between atoms: C_6  and  N_7 
REMARK       I    between atoms: N_7  and  C_8 
REMARK    2  A    between atoms: C_8  and  C_9 
REMARK    3  A    between atoms: C_10  and  C_11 
REMARK    4  A    between atoms: C_14  and  O_15 
ROOT
HETATM    1  C   UNL     1      24.463  43.054  50.448  1.00  0.00     0.131 C 
HETATM    2  C   UNL     1      25.522  42.539  51.460  1.00  0.00     0.177 C 
HETATM    3  N   UNL     1      26.549  41.719  50.812  1.00  0.00    -0.088 N 
HETATM    4  C   UNL     1      26.429  41.194  49.549  1.00  0.00     0.721 A 
HETATM    5  N   UNL     1      25.388  41.517  48.752  1.00  0.00    -0.218 N 
HETATM    6  C   UNL     1      24.153  41.964  49.402  1.00  0.00     0.111 C 
HETATM    7  C   UNL     1      23.138  42.402  48.349  1.00  0.00     0.034 C 
HETATM    8  N   UNL     1      27.610  41.186  51.449  1.00  0.00    -0.149 NA
HETATM    9  C   UNL     1      28.143  40.437  50.479  1.00  0.00     0.275 A 
HETATM   10  N   UNL     1      27.450  40.420  49.298  1.00  0.00    -0.055 NA
HETATM   11  H   UNL     1      25.257  40.887  47.959  1.00  0.00     0.178 HD
ENDROOT
BRANCH   1  12
HETATM   12  C   UNL     1      24.827  44.408  49.833  1.00  0.00     0.230 C 
HETATM   13  N   UNL     1      23.968  45.443  50.130  1.00  0.00    -0.326 N 
HETATM   14  H   UNL     1      23.137  45.196  50.661  1.00  0.00     0.169 HD
HETATM   15  O   UNL     1      25.799  44.465  49.084  1.00  0.00    -0.273 OA
BRANCH  13  16
HETATM   16  C   UNL     1      23.975  46.769  49.642  1.00  0.00     0.040 A 
HETATM   17  C   UNL     1      24.975  47.733  49.842  1.00  0.00    -0.035 A 
HETATM   18  C   UNL     1      24.851  48.983  49.198  1.00  0.00     0.015 A 
HETATM   19  C   UNL     1      26.162  47.566  50.749  1.00  0.00     0.050 C 
HETATM   20  C   UNL     1      23.727  49.315  48.433  1.00  0.00    -0.061 A 
HETATM   21  C   UNL     1      23.644  50.638  47.732  1.00  0.00     0.048 C 
HETATM   22  C   UNL     1      22.710  48.373  48.297  1.00  0.00     0.009 A 
HETATM   23  C   UNL     1      22.829  47.123  48.908  1.00  0.00     0.030 A 
ENDBRANCH  13  16
ENDBRANCH   1  12
BRANCH   2  24
HETATM   24  C   UNL     1      26.062  43.613  52.396  1.00  0.00    -0.032 A 
HETATM   25  C   UNL     1      25.174  44.259  53.271  1.00  0.00     0.012 A 
HETATM   26  C   UNL     1      25.624  45.249  54.149  1.00  0.00     0.037 A 
HETATM   27  C   UNL     1      26.971  45.603  54.182  1.00  0.00     0.068 A 
HETATM   28  C   UNL     1      27.857  45.005  53.290  1.00  0.00     0.037 A 
HETATM   29  C   UNL     1      27.406  44.024  52.400  1.00  0.00     0.012 A 
BRANCH  27  30
HETATM   30  O   UNL     1      27.301  46.562  55.100  1.00  0.00    -0.356 OA
HETATM   31  C   UNL     1      28.645  46.515  55.568  1.00  0.00     0.210 C 
ENDBRANCH  27  30
ENDBRANCH   2  24
TORSDOF 4
ENDMDL
MODEL 5
REMARK VINA RESULT:      -7.7     25.281     27.438
REMARK  4 active torsions:
REMARK  status: ('A' for Active; 'I' for Inactive)
REMARK    1  A    between atoms: C_6  and  N_7 
REMARK       I    between atoms: N_7  and  C_8 
REMARK    2  A    between atoms: C_8  and  C_9 
REMARK    3  A    between atoms: C_10  and  C_11 
REMARK    4  A    between atoms: C_14  and  O_15 
ROOT
HETATM    1  C   UNL     1      17.017  50.503  48.732  1.00  0.00     0.131 C 
HETATM    2  C   UNL     1      16.032  49.603  47.938  1.00  0.00     0.177 C 
HETATM    3  N   UNL     1      15.413  50.320  46.819  1.00  0.00    -0.088 N 
HETATM    4  C   UNL     1      15.435  51.684  46.674  1.00  0.00     0.721 A 
HETATM    5  N   UNL     1      16.160  52.466  47.504  1.00  0.00    -0.218 N 
HETATM    6  C   UNL     1      16.460  51.937  48.838  1.00  0.00     0.111 C 
HETATM    7  C   UNL     1      17.386  52.895  49.583  1.00  0.00     0.034 C 
HETATM    8  N   UNL     1      14.556  49.763  45.940  1.00  0.00    -0.149 NA
HETATM    9  C   UNL     1      14.184  50.833  45.231  1.00  0.00     0.275 A 
HETATM   10  N   UNL     1      14.705  52.028  45.647  1.00  0.00    -0.055 NA
HETATM   11  H   UNL     1      15.905  53.454  47.477  1.00  0.00     0.178 HD
ENDROOT
BRANCH   1  12
HETATM   12  C   UNL     1      18.452  50.439  48.201  1.00  0.00     0.230 C 
HETATM   13  N   UNL     1      19.368  49.848  49.041  1.00  0.00    -0.326 N 
HETATM   14  H   UNL     1      19.026  49.581  49.960  1.00  0.00     0.169 HD
HETATM   15  O   UNL     1      18.695  50.964  47.117  1.00  0.00    -0.273 OA
BRANCH  13  16
HETATM   16  C   UNL     1      20.767  49.728  48.883  1.00  0.00     0.040 A 
HETATM   17  C   UNL     1      21.476  48.576  48.508  1.00  0.00    -0.035 A 
HETATM   18  C   UNL     1      22.871  48.671  48.313  1.00  0.00     0.015 A 
HETATM   19  C   UNL     1      20.872  47.209  48.349  1.00  0.00     0.050 C 
HETATM   20  C   UNL     1      23.575  49.855  48.557  1.00  0.00    -0.061 A 
HETATM   21  C   UNL     1      25.051  49.932  48.304  1.00  0.00     0.048 C 
HETATM   22  C   UNL     1      22.870  50.973  48.994  1.00  0.00     0.009 A 
HETATM   23  C   UNL     1      21.486  50.903  49.169  1.00  0.00     0.030 A 
ENDBRANCH  13  16
ENDBRANCH   1  12
BRANCH   2  24
HETATM   24  C   UNL     1      16.590  48.230  47.583  1.00  0.00    -0.032 A 
HETATM   25  C   UNL     1      16.772  47.287  48.608  1.00  0.00     0.012 A 
HETATM   26  C   UNL     1      17.279  46.015  48.331  1.00  0.00     0.037 A 
HETATM   27  C   UNL     1      17.600  45.652  47.025  1.00  0.00     0.068 A 
HETATM   28  C   UNL     1      17.468  46.590  46.003  1.00  0.00     0.037 A 
HETATM   29  C   UNL     1      16.974  47.870  46.281  1.00  0.00     0.012 A 
BRANCH  27  30
HETATM   30  O   UNL     1      18.060  44.374  46.868  1.00  0.00    -0.356 OA
HETATM   31  C   UNL     1      19.416  44.266  46.446  1.00  0.00     0.210 C 
ENDBRANCH  27  30
ENDBRANCH   2  24
TORSDOF 4
ENDMDL
MODEL 6
REMARK VINA RESULT:      -7.6     18.322     20.712
REMARK  4 active torsions:
REMARK  status: ('A' for Active; 'I' for Inactive)
REMARK    1  A    between atoms: C_6  and  N_7 
REMARK       I    between atoms: N_7  and  C_8 
REMARK    2  A    between atoms: C_8  and  C_9 
REMARK    3  A    between atoms: C_10  and  C_11 
REMARK    4  A    between atoms: C_14  and  O_15 
ROOT
HETATM    1  C   UNL     1      24.994  44.119  51.864  1.00  0.00     0.131 C 
HETATM    2  C   UNL     1      24.025  44.722  50.812  1.00  0.00     0.177 C 
HETATM    3  N   UNL     1      24.417  46.078  50.417  1.00  0.00    -0.088 N 
HETATM    4  C   UNL     1      25.318  46.849  51.108  1.00  0.00     0.721 A 
HETATM    5  N   UNL     1      26.017  46.347  52.149  1.00  0.00    -0.218 N 
HETATM    6  C   UNL     1      25.438  45.206  52.864  1.00  0.00     0.111 C 
HETATM    7  C   UNL     1      26.419  44.698  53.918  1.00  0.00     0.034 C 
HETATM    8  N   UNL     1      23.778  46.813  49.486  1.00  0.00    -0.149 NA
HETATM    9  C   UNL     1      24.418  47.982  49.598  1.00  0.00     0.275 A 
HETATM   10  N   UNL     1      25.372  48.041  50.578  1.00  0.00    -0.055 NA
HETATM   11  H   UNL     1      26.451  47.056  52.743  1.00  0.00     0.178 HD
ENDROOT
BRANCH   1  12
HETATM   12  C   UNL     1      26.159  43.348  51.237  1.00  0.00     0.230 C 
HETATM   13  N   UNL     1      26.198  42.001  51.519  1.00  0.00    -0.326 N 
HETATM   14  H   UNL     1      25.501  41.661  52.176  1.00  0.00     0.169 HD
HETATM   15  O   UNL     1      26.994  43.979  50.593  1.00  0.00    -0.273 OA
BRANCH  13  16
HETATM   16  C   UNL     1      27.187  41.052  51.176  1.00  0.00     0.040 A 
HETATM   17  C   UNL     1      28.387  40.801  51.862  1.00  0.00    -0.035 A 
HETATM   18  C   UNL     1      29.213  39.746  51.419  1.00  0.00     0.015 A 
HETATM   19  C   UNL     1      28.904  41.616  53.013  1.00  0.00     0.050 C 
HETATM   20  C   UNL     1      28.911  38.997  50.277  1.00  0.00    -0.061 A 
HETATM   21  C   UNL     1      29.791  37.858  49.856  1.00  0.00     0.048 C 
HETATM   22  C   UNL     1      27.752  39.298  49.567  1.00  0.00     0.009 A 
HETATM   23  C   UNL     1      26.911  40.324  50.005  1.00  0.00     0.030 A 
ENDBRANCH  13  16
ENDBRANCH   1  12
BRANCH   2  24
HETATM   24  C   UNL     1      23.706  43.788  49.651  1.00  0.00    -0.032 A 
HETATM   25  C   UNL     1      23.046  42.577  49.917  1.00  0.00     0.012 A 
HETATM   26  C   UNL     1      22.732  41.690  48.884  1.00  0.00     0.037 A 
HETATM   27  C   UNL     1      23.054  42.000  47.565  1.00  0.00     0.068 A 
HETATM   28  C   UNL     1      23.748  43.175  47.288  1.00  0.00     0.037 A 
HETATM   29  C   UNL     1      24.077  44.059  48.323  1.00  0.00     0.012 A 
BRANCH  27  30
HETATM   30  O   UNL     1      22.672  41.072  46.635  1.00  0.00    -0.356 OA
HETATM   31  C   UNL     1      21.926  39.973  47.148  1.00  0.00     0.210 C 
ENDBRANCH  27  30
ENDBRANCH   2  24
TORSDOF 4
ENDMDL
MODEL 7
REMARK VINA RESULT:      -7.2     24.922     27.255
REMARK  4 active torsions:
REMARK  status: ('A' for Active; 'I' for Inactive)
REMARK    1  A    between atoms: C_6  and  N_7 
REMARK       I    between atoms: N_7  and  C_8 
REMARK    2  A    between atoms: C_8  and  C_9 
REMARK    3  A    between atoms: C_10  and  C_11 
REMARK    4  A    between atoms: C_14  and  O_15 
ROOT
HETATM    1  C   UNL     1      20.145  48.110  48.775  1.00  0.00     0.131 C 
HETATM    2  C   UNL     1      20.627  49.509  49.244  1.00  0.00     0.177 C 
HETATM    3  N   UNL     1      21.896  49.892  48.618  1.00  0.00    -0.088 N 
HETATM    4  C   UNL     1      22.723  49.016  47.960  1.00  0.00     0.721 A 
HETATM    5  N   UNL     1      22.349  47.739  47.728  1.00  0.00    -0.218 N 
HETATM    6  C   UNL     1      21.346  47.156  48.624  1.00  0.00     0.111 C 
HETATM    7  C   UNL     1      20.959  45.762  48.135  1.00  0.00     0.034 C 
HETATM    8  N   UNL     1      22.513  51.074  48.812  1.00  0.00    -0.149 NA
HETATM    9  C   UNL     1      23.660  50.876  48.154  1.00  0.00     0.275 A 
HETATM   10  N   UNL     1      23.823  49.629  47.614  1.00  0.00    -0.055 NA
HETATM   11  H   UNL     1      23.119  47.117  47.475  1.00  0.00     0.178 HD
ENDROOT
BRANCH   1  12
HETATM   12  C   UNL     1      19.247  48.167  47.536  1.00  0.00     0.230 C 
HETATM   13  N   UNL     1      17.968  47.688  47.708  1.00  0.00    -0.326 N 
HETATM   14  H   UNL     1      17.765  47.271  48.612  1.00  0.00     0.169 HD
HETATM   15  O   UNL     1      19.736  48.568  46.482  1.00  0.00    -0.273 OA
BRANCH  13  16
HETATM   16  C   UNL     1      16.948  47.516  46.745  1.00  0.00     0.040 A 
HETATM   17  C   UNL     1      15.781  48.286  46.610  1.00  0.00    -0.035 A 
HETATM   18  C   UNL     1      14.917  48.021  45.526  1.00  0.00     0.015 A 
HETATM   19  C   UNL     1      15.336  49.349  47.574  1.00  0.00     0.050 C 
HETATM   20  C   UNL     1      15.148  46.970  44.632  1.00  0.00    -0.061 A 
HETATM   21  C   UNL     1      14.230  46.740  43.469  1.00  0.00     0.048 C 
HETATM   22  C   UNL     1      16.274  46.172  44.816  1.00  0.00     0.009 A 
HETATM   23  C   UNL     1      17.152  46.435  45.870  1.00  0.00     0.030 A 
ENDBRANCH  13  16
ENDBRANCH   1  12
BRANCH   2  24
HETATM   24  C   UNL     1      19.548  50.585  49.207  1.00  0.00    -0.032 A 
HETATM   25  C   UNL     1      18.412  50.434  50.020  1.00  0.00     0.012 A 
HETATM   26  C   UNL     1      17.399  51.395  50.020  1.00  0.00     0.037 A 
HETATM   27  C   UNL     1      17.504  52.533  49.223  1.00  0.00     0.068 A 
HETATM   28  C   UNL     1      18.602  52.676  48.378  1.00  0.00     0.037 A 
HETATM   29  C   UNL     1      19.612  51.707  48.365  1.00  0.00     0.012 A 
BRANCH  27  30
HETATM   30  O   UNL     1      16.466  53.418  49.327  1.00  0.00    -0.356 OA
HETATM   31  C   UNL     1      15.571  53.178  50.407  1.00  0.00     0.210 C 
ENDBRANCH  27  30
ENDBRANCH   2  24
TORSDOF 4
ENDMDL
MODEL 8
REMARK VINA RESULT:      -6.8     24.757     27.141
REMARK  4 active torsions:
REMARK  status: ('A' for Active; 'I' for Inactive)
REMARK    1  A    between atoms: C_6  and  N_7 
REMARK       I    between atoms: N_7  and  C_8 
REMARK    2  A    between atoms: C_8  and  C_9 
REMARK    3  A    between atoms: C_10  and  C_11 
REMARK    4  A    between atoms: C_14  and  O_15 
ROOT
HETATM    1  C   UNL     1      20.986  48.745  47.469  1.00  0.00     0.131 C 
HETATM    2  C   UNL     1      20.830  47.316  46.885  1.00  0.00     0.177 C 
HETATM    3  N   UNL     1      21.395  46.294  47.770  1.00  0.00    -0.088 N 
HETATM    4  C   UNL     1      22.241  46.567  48.816  1.00  0.00     0.721 A 
HETATM    5  N   UNL     1      22.509  47.838  49.187  1.00  0.00    -0.218 N 
HETATM    6  C   UNL     1      22.351  48.885  48.174  1.00  0.00     0.111 C 
HETATM    7  C   UNL     1      22.572  50.258  48.803  1.00  0.00     0.034 C 
HETATM    8  N   UNL     1      21.353  44.969  47.528  1.00  0.00    -0.149 NA
HETATM    9  C   UNL     1      22.105  44.500  48.528  1.00  0.00     0.275 A 
HETATM   10  N   UNL     1      22.664  45.449  49.342  1.00  0.00    -0.055 NA
HETATM   11  H   UNL     1      23.331  47.935  49.786  1.00  0.00     0.178 HD
ENDROOT
BRANCH   1  12
HETATM   12  C   UNL     1      19.800  49.174  48.337  1.00  0.00     0.230 C 
HETATM   13  N   UNL     1      19.029  50.192  47.824  1.00  0.00    -0.326 N 
HETATM   14  H   UNL     1      19.361  50.614  46.962  1.00  0.00     0.169 HD
HETATM   15  O   UNL     1      19.658  48.637  49.434  1.00  0.00    -0.273 OA
BRANCH  13  16
HETATM   16  C   UNL     1      17.941  50.868  48.422  1.00  0.00     0.040 A 
HETATM   17  C   UNL     1      16.584  50.517  48.338  1.00  0.00    -0.035 A 
HETATM   18  C   UNL     1      15.643  51.263  49.081  1.00  0.00     0.015 A 
HETATM   19  C   UNL     1      16.030  49.430  47.461  1.00  0.00     0.050 C 
HETATM   20  C   UNL     1      16.012  52.384  49.833  1.00  0.00    -0.061 A 
HETATM   21  C   UNL     1      14.993  53.131  50.640  1.00  0.00     0.048 C 
HETATM   22  C   UNL     1      17.352  52.761  49.855  1.00  0.00     0.009 A 
HETATM   23  C   UNL     1      18.300  52.019  49.145  1.00  0.00     0.030 A 
ENDBRANCH  13  16
ENDBRANCH   1  12
BRANCH   2  24
HETATM   24  C   UNL     1      19.431  47.004  46.367  1.00  0.00    -0.032 A 
HETATM   25  C   UNL     1      19.027  47.548  45.135  1.00  0.00     0.012 A 
HETATM   26  C   UNL     1      17.755  47.288  44.620  1.00  0.00     0.037 A 
HETATM   27  C   UNL     1      16.866  46.470  45.312  1.00  0.00     0.068 A 
HETATM   28  C   UNL     1      17.233  45.959  46.555  1.00  0.00     0.037 A 
HETATM   29  C   UNL     1      18.502  46.230  47.081  1.00  0.00     0.012 A 
BRANCH  27  30
HETATM   30  O   UNL     1      15.661  46.263  44.699  1.00  0.00    -0.356 OA
HETATM   31  C   UNL     1      14.933  47.444  44.381  1.00  0.00     0.210 C 
ENDBRANCH  27  30
ENDBRANCH   2  24
TORSDOF 4
ENDMDL
MODEL 9
REMARK VINA RESULT:      -6.7     18.860     21.731
REMARK  4 active torsions:
REMARK  status: ('A' for Active; 'I' for Inactive)
REMARK    1  A    between atoms: C_6  and  N_7 
REMARK       I    between atoms: N_7  and  C_8 
REMARK    2  A    between atoms: C_8  and  C_9 
REMARK    3  A    between atoms: C_10  and  C_11 
REMARK    4  A    between atoms: C_14  and  O_15 
ROOT
HETATM    1  C   UNL     1      26.495  44.329  50.202  1.00  0.00     0.131 C 
HETATM    2  C   UNL     1      27.297  43.235  50.955  1.00  0.00     0.177 C 
HETATM    3  N   UNL     1      27.095  43.305  52.406  1.00  0.00    -0.088 N 
HETATM    4  C   UNL     1      26.543  44.383  53.052  1.00  0.00     0.721 A 
HETATM    5  N   UNL     1      26.016  45.419  52.364  1.00  0.00    -0.218 N 
HETATM    6  C   UNL     1      26.510  45.647  51.003  1.00  0.00     0.111 C 
HETATM    7  C   UNL     1      25.716  46.771  50.342  1.00  0.00     0.034 C 
HETATM    8  N   UNL     1      27.635  42.445  53.291  1.00  0.00    -0.149 NA
HETATM    9  C   UNL     1      27.276  43.010  54.449  1.00  0.00     0.275 A 
HETATM   10  N   UNL     1      26.602  44.196  54.343  1.00  0.00    -0.055 NA
HETATM   11  H   UNL     1      25.875  46.263  52.922  1.00  0.00     0.178 HD
ENDROOT
BRANCH   1  12
HETATM   12  C   UNL     1      25.091  43.875  49.794  1.00  0.00     0.230 C 
HETATM   13  N   UNL     1      24.886  43.730  48.440  1.00  0.00    -0.326 N 
HETATM   14  H   UNL     1      25.654  44.011  47.839  1.00  0.00     0.169 HD
HETATM   15  O   UNL     1      24.246  43.735  50.675  1.00  0.00    -0.273 OA
BRANCH  13  16
HETATM   16  C   UNL     1      23.689  43.424  47.753  1.00  0.00     0.040 A 
HETATM   17  C   UNL     1      23.191  42.145  47.459  1.00  0.00    -0.035 A 
HETATM   18  C   UNL     1      21.926  42.035  46.841  1.00  0.00     0.015 A 
HETATM   19  C   UNL     1      23.930  40.859  47.699  1.00  0.00     0.050 C 
HETATM   20  C   UNL     1      21.195  43.160  46.444  1.00  0.00    -0.061 A 
HETATM   21  C   UNL     1      19.838  43.009  45.824  1.00  0.00     0.048 C 
HETATM   22  C   UNL     1      21.730  44.423  46.682  1.00  0.00     0.009 A 
HETATM   23  C   UNL     1      22.969  44.550  47.314  1.00  0.00     0.030 A 
ENDBRANCH  13  16
ENDBRANCH   1  12
BRANCH   2  24
HETATM   24  C   UNL     1      27.155  41.839  50.361  1.00  0.00    -0.032 A 
HETATM   25  C   UNL     1      27.870  41.524  49.193  1.00  0.00     0.012 A 
HETATM   26  C   UNL     1      27.773  40.256  48.613  1.00  0.00     0.037 A 
HETATM   27  C   UNL     1      26.975  39.273  49.193  1.00  0.00     0.068 A 
HETATM   28  C   UNL     1      26.225  39.582  50.326  1.00  0.00     0.037 A 
HETATM   29  C   UNL     1      26.309  40.856  50.900  1.00  0.00     0.012 A 
BRANCH  27  30
HETATM   30  O   UNL     1      26.979  38.063  48.556  1.00  0.00    -0.356 OA
HETATM   31  C   UNL     1      26.895  36.928  49.411  1.00  0.00     0.210 C 
ENDBRANCH  27  30
ENDBRANCH   2  24
TORSDOF 4
ENDMDL
MODEL 10
REMARK VINA RESULT:      -6.5     26.720     28.914
REMARK  4 active torsions:
REMARK  status: ('A' for Active; 'I' for Inactive)
REMARK    1  A    between atoms: C_6  and  N_7 
REMARK       I    between atoms: N_7  and  C_8 
REMARK    2  A    between atoms: C_8  and  C_9 
REMARK    3  A    between atoms: C_10  and  C_11 
REMARK    4  A    between atoms: C_14  and  O_15 
ROOT
HETATM    1  C   UNL     1      28.676  49.657  38.679  1.00  0.00     0.131 C 
HETATM    2  C   UNL     1      29.696  48.521  38.958  1.00  0.00     0.177 C 
HETATM    3  N   UNL     1      30.576  48.837  40.087  1.00  0.00    -0.088 N 
HETATM    4  C   UNL     1      30.714  50.092  40.625  1.00  0.00     0.721 A 
HETATM    5  N   UNL     1      29.930  51.117  40.224  1.00  0.00    -0.218 N 
HETATM    6  C   UNL     1      29.341  51.033  38.885  1.00  0.00     0.111 C 
HETATM    7  C   UNL     1      28.393  52.208  38.657  1.00  0.00     0.034 C 
HETATM    8  N   UNL     1      31.519  48.006  40.571  1.00  0.00    -0.149 NA
HETATM    9  C   UNL     1      32.118  48.793  41.471  1.00  0.00     0.275 A 
HETATM   10  N   UNL     1      31.648  50.077  41.536  1.00  0.00    -0.055 NA
HETATM   11  H   UNL     1      30.281  52.039  40.487  1.00  0.00     0.178 HD
ENDROOT
BRANCH   1  12
HETATM   12  C   UNL     1      27.362  49.489  39.448  1.00  0.00     0.230 C 
HETATM   13  N   UNL     1      26.258  49.199  38.678  1.00  0.00    -0.326 N 
HETATM   14  H   UNL     1      26.401  49.201  37.672  1.00  0.00     0.169 HD
HETATM   15  O   UNL     1      27.370  49.683  40.661  1.00  0.00    -0.273 OA
BRANCH  13  16
HETATM   16  C   UNL     1      24.907  49.085  39.074  1.00  0.00     0.040 A 
HETATM   17  C   UNL     1      24.333  48.043  39.819  1.00  0.00    -0.035 A 
HETATM   18  C   UNL     1      22.977  48.146  40.199  1.00  0.00     0.015 A 
HETATM   19  C   UNL     1      25.038  46.773  40.204  1.00  0.00     0.050 C 
HETATM   20  C   UNL     1      22.172  49.215  39.790  1.00  0.00    -0.061 A 
HETATM   21  C   UNL     1      20.746  49.314  40.243  1.00  0.00     0.048 C 
HETATM   22  C   UNL     1      22.736  50.210  38.996  1.00  0.00     0.009 A 
HETATM   23  C   UNL     1      24.082  50.135  38.631  1.00  0.00     0.030 A 
ENDBRANCH  13  16
ENDBRANCH   1  12
BRANCH   2  24
HETATM   24  C   UNL     1      29.080  47.128  39.002  1.00  0.00    -0.032 A 
HETATM   25  C   UNL     1      28.768  46.486  37.791  1.00  0.00     0.012 A 
HETATM   26  C   UNL     1      28.204  45.208  37.782  1.00  0.00     0.037 A 
HETATM   27  C   UNL     1      27.955  44.538  38.977  1.00  0.00     0.068 A 
HETATM   28  C   UNL     1      28.217  45.177  40.187  1.00  0.00     0.037 A 
HETATM   29  C   UNL     1      28.768  46.463  40.199  1.00  0.00     0.012 A 
BRANCH  27  30
HETATM   30  O   UNL     1      27.428  43.282  38.846  1.00  0.00    -0.356 OA
HETATM   31  C   UNL     1      27.916  42.321  39.776  1.00  0.00     0.210 C 
ENDBRANCH  27  30
ENDBRANCH   2  24
TORSDOF 4
ENDMDL
