MODEL 1
REMARK VINA RESULT:      -9.9      0.000      0.000
REMARK  7 active torsions:
REMARK  status: ('A' for Active; 'I' for Inactive)
REMARK    1  A    between atoms: C_7  and  C_8 
REMARK       I    between atoms: C_8  and  N_9 
REMARK    2  A    between atoms: N_9  and  C_10 
REMARK    3  A    between atoms: C_10  and  C_11 
REMARK    4  A    between atoms: C_11  and  O_12 
REMARK    5  A    between atoms: C_11  and  C_13 
REMARK    6  A    between atoms: C_15  and  O_16 
REMARK    7  A    between atoms: O_16  and  C_17 
ROOT
HETATM    1  C   UNL     1      26.105  46.540  51.450  1.00  0.00     0.253 C 
HETATM    2  N   UNL     1      25.794  46.986  52.709  1.00  0.00    -0.354 N 
HETATM    3  O   UNL     1      26.467  45.396  51.202  1.00  0.00    -0.268 OA
HETATM    4  H   UNL     1      25.284  47.851  52.834  1.00  0.00     0.162 HD
ENDROOT
BRANCH   2   5
HETATM    5  C   UNL     1      25.818  46.099  53.864  1.00  0.00     0.159 C 
BRANCH   5   6
HETATM    6  C   UNL     1      27.026  46.362  54.781  1.00  0.00     0.169 C 
BRANCH   6   7
HETATM    7  O   UNL     1      27.634  47.610  54.425  1.00  0.00    -0.389 OA
HETATM    8  H   UNL     1      28.066  47.468  53.564  1.00  0.00     0.210 HD
ENDBRANCH   6   7
BRANCH   6   9
HETATM    9  C   UNL     1      28.047  45.239  54.752  1.00  0.00    -0.025 A 
HETATM   10  C   UNL     1      29.249  45.373  55.471  1.00  0.00     0.046 A 
HETATM   11  C   UNL     1      30.191  44.340  55.490  1.00  0.00     0.075 A 
HETATM   12  C   UNL     1      29.919  43.154  54.804  1.00  0.00     0.037 A 
HETATM   13  C   UNL     1      28.732  43.005  54.090  1.00  0.00     0.003 A 
HETATM   14  C   UNL     1      27.801  44.041  54.063  1.00  0.00     0.010 A 
BRANCH  11  15
HETATM   15  O   UNL     1      31.381  44.351  56.161  1.00  0.00    -0.290 OA
BRANCH  15  16
HETATM   16  C   UNL     1      31.417  43.658  57.396  1.00  0.00     0.505 C 
HETATM   17  F   UNL     1      32.452  42.783  57.392  1.00  0.00    -0.184 F 
HETATM   18  F   UNL     1      31.683  44.570  58.366  1.00  0.00    -0.184 F 
ENDBRANCH  15  16
ENDBRANCH  11  15
ENDBRANCH   6   9
ENDBRANCH   5   6
ENDBRANCH   2   5
BRANCH   1  19
HETATM   19  C   UNL     1      25.908  47.541  50.353  1.00  0.00     0.048 A 
HETATM   20  C   UNL     1      27.068  48.243  49.799  1.00  0.00     0.022 A 
HETATM   21  C   UNL     1      26.942  49.164  48.826  1.00  0.00     0.054 A 
HETATM   22  C   UNL     1      25.652  49.474  48.321  1.00  0.00     0.157 A 
HETATM   23  N   UNL     1      24.566  48.817  48.882  1.00  0.00    -0.291 N 
HETATM   24  N   UNL     1      25.233  50.301  47.390  1.00  0.00    -0.130 NA
HETATM   25  C   UNL     1      23.467  49.314  48.213  1.00  0.00     0.130 A 
HETATM   26  C   UNL     1      24.681  47.865  49.894  1.00  0.00     0.117 A 
HETATM   27  C   UNL     1      22.068  48.906  48.472  1.00  0.00     0.094 C 
HETATM   28  N   UNL     1      23.864  50.201  47.322  1.00  0.00    -0.135 NA
ENDBRANCH   1  19
TORSDOF 7
ENDMDL
MODEL 2
REMARK VINA RESULT:      -9.7      1.362      1.810
REMARK  7 active torsions:
REMARK  status: ('A' for Active; 'I' for Inactive)
REMARK    1  A    between atoms: C_7  and  C_8 
REMARK       I    between atoms: C_8  and  N_9 
REMARK    2  A    between atoms: N_9  and  C_10 
REMARK    3  A    between atoms: C_10  and  C_11 
REMARK    4  A    between atoms: C_11  and  O_12 
REMARK    5  A    between atoms: C_11  and  C_13 
REMARK    6  A    between atoms: C_15  and  O_16 
REMARK    7  A    between atoms: O_16  and  C_17 
ROOT
HETATM    1  C   UNL     1      25.378  46.388  51.578  1.00  0.00     0.253 C 
HETATM    2  N   UNL     1      26.306  46.554  52.574  1.00  0.00    -0.354 N 
HETATM    3  O   UNL     1      24.524  45.509  51.583  1.00  0.00    -0.268 OA
HETATM    4  H   UNL     1      26.830  47.416  52.646  1.00  0.00     0.162 HD
ENDROOT
BRANCH   2   5
HETATM    5  C   UNL     1      26.312  45.716  53.764  1.00  0.00     0.159 C 
BRANCH   5   6
HETATM    6  C   UNL     1      27.032  44.373  53.533  1.00  0.00     0.169 C 
BRANCH   6   7
HETATM    7  O   UNL     1      26.166  43.296  53.912  1.00  0.00    -0.389 OA
HETATM    8  H   UNL     1      25.834  43.511  54.803  1.00  0.00     0.210 HD
ENDBRANCH   6   7
BRANCH   6   9
HETATM    9  C   UNL     1      28.359  44.279  54.264  1.00  0.00    -0.025 A 
HETATM   10  C   UNL     1      28.726  45.289  55.173  1.00  0.00     0.046 A 
HETATM   11  C   UNL     1      29.926  45.210  55.885  1.00  0.00     0.075 A 
HETATM   12  C   UNL     1      30.754  44.101  55.706  1.00  0.00     0.037 A 
HETATM   13  C   UNL     1      30.405  43.090  54.813  1.00  0.00     0.003 A 
HETATM   14  C   UNL     1      29.213  43.179  54.095  1.00  0.00     0.010 A 
BRANCH  11  15
HETATM   15  O   UNL     1      30.379  46.119  56.799  1.00  0.00    -0.290 OA
BRANCH  15  16
HETATM   16  C   UNL     1      29.862  46.004  58.113  1.00  0.00     0.505 C 
HETATM   17  F   UNL     1      28.510  45.935  58.061  1.00  0.00    -0.184 F 
HETATM   18  F   UNL     1      30.293  44.820  58.617  1.00  0.00    -0.184 F 
ENDBRANCH  15  16
ENDBRANCH  11  15
ENDBRANCH   6   9
ENDBRANCH   5   6
ENDBRANCH   2   5
BRANCH   1  19
HETATM   19  C   UNL     1      25.426  47.411  50.486  1.00  0.00     0.048 A 
HETATM   20  C   UNL     1      26.718  47.950  50.056  1.00  0.00     0.022 A 
HETATM   21  C   UNL     1      26.813  48.885  49.092  1.00  0.00     0.054 A 
HETATM   22  C   UNL     1      25.632  49.372  48.473  1.00  0.00     0.157 A 
HETATM   23  N   UNL     1      24.418  48.866  48.917  1.00  0.00    -0.291 N 
HETATM   24  N   UNL     1      25.421  50.252  47.522  1.00  0.00    -0.130 NA
HETATM   25  C   UNL     1      23.466  49.513  48.157  1.00  0.00     0.130 A 
HETATM   26  C   UNL     1      24.305  47.903  49.918  1.00  0.00     0.117 A 
HETATM   27  C   UNL     1      22.006  49.300  48.275  1.00  0.00     0.094 C 
HETATM   28  N   UNL     1      24.063  50.342  47.323  1.00  0.00    -0.135 NA
ENDBRANCH   1  19
TORSDOF 7
ENDMDL
MODEL 3
REMARK VINA RESULT:      -9.4      2.193      2.641
REMARK  7 active torsions:
REMARK  status: ('A' for Active; 'I' for Inactive)
REMARK    1  A    between atoms: C_7  and  C_8 
REMARK       I    between atoms: C_8  and  N_9 
REMARK    2  A    between atoms: N_9  and  C_10 
REMARK    3  A    between atoms: C_10  and  C_11 
REMARK    4  A    between atoms: C_11  and  O_12 
REMARK    5  A    between atoms: C_11  and  C_13 
REMARK    6  A    between atoms: C_15  and  O_16 
REMARK    7  A    between atoms: O_16  and  C_17 
ROOT
HETATM    1  C   UNL     1      25.721  46.509  51.584  1.00  0.00     0.253 C 
HETATM    2  N   UNL     1      26.137  47.019  52.786  1.00  0.00    -0.354 N 
HETATM    3  O   UNL     1      25.376  45.344  51.421  1.00  0.00    -0.268 OA
HETATM    4  H   UNL     1      26.185  48.020  52.928  1.00  0.00     0.162 HD
ENDROOT
BRANCH   2   5
HETATM    5  C   UNL     1      26.149  46.213  53.999  1.00  0.00     0.159 C 
BRANCH   5   6
HETATM    6  C   UNL     1      27.367  46.513  54.892  1.00  0.00     0.169 C 
BRANCH   6   7
HETATM    7  O   UNL     1      27.955  47.759  54.495  1.00  0.00    -0.389 OA
HETATM    8  H   UNL     1      27.246  48.425  54.546  1.00  0.00     0.210 HD
ENDBRANCH   6   7
BRANCH   6   9
HETATM    9  C   UNL     1      28.401  45.402  54.878  1.00  0.00    -0.025 A 
HETATM   10  C   UNL     1      28.355  44.423  53.868  1.00  0.00     0.046 A 
HETATM   11  C   UNL     1      29.315  43.408  53.811  1.00  0.00     0.075 A 
HETATM   12  C   UNL     1      30.343  43.387  54.755  1.00  0.00     0.037 A 
HETATM   13  C   UNL     1      30.405  44.350  55.760  1.00  0.00     0.003 A 
HETATM   14  C   UNL     1      29.438  45.353  55.821  1.00  0.00     0.010 A 
BRANCH  11  15
HETATM   15  O   UNL     1      29.380  42.416  52.874  1.00  0.00    -0.290 OA
BRANCH  15  16
HETATM   16  C   UNL     1      28.830  41.163  53.241  1.00  0.00     0.505 C 
HETATM   17  F   UNL     1      27.478  41.255  53.269  1.00  0.00    -0.184 F 
HETATM   18  F   UNL     1      29.139  40.279  52.259  1.00  0.00    -0.184 F 
ENDBRANCH  15  16
ENDBRANCH  11  15
ENDBRANCH   6   9
ENDBRANCH   5   6
ENDBRANCH   2   5
BRANCH   1  19
HETATM   19  C   UNL     1      25.645  47.499  50.464  1.00  0.00     0.048 A 
HETATM   20  C   UNL     1      26.874  48.113  49.957  1.00  0.00     0.022 A 
HETATM   21  C   UNL     1      26.858  49.022  48.965  1.00  0.00     0.054 A 
HETATM   22  C   UNL     1      25.617  49.407  48.391  1.00  0.00     0.157 A 
HETATM   23  N   UNL     1      24.464  48.833  48.907  1.00  0.00    -0.291 N 
HETATM   24  N   UNL     1      25.301  50.242  47.428  1.00  0.00    -0.130 NA
HETATM   25  C   UNL     1      23.435  49.389  48.177  1.00  0.00     0.130 A 
HETATM   26  C   UNL     1      24.466  47.895  49.938  1.00  0.00     0.117 A 
HETATM   27  C   UNL     1      22.001  49.079  48.372  1.00  0.00     0.094 C 
HETATM   28  N   UNL     1      23.933  50.231  47.293  1.00  0.00    -0.135 NA
ENDBRANCH   1  19
TORSDOF 7
ENDMDL
MODEL 4
REMARK VINA RESULT:      -9.2      1.496      2.536
REMARK  7 active torsions:
REMARK  status: ('A' for Active; 'I' for Inactive)
REMARK    1  A    between atoms: C_7  and  C_8 
REMARK       I    between atoms: C_8  and  N_9 
REMARK    2  A    between atoms: N_9  and  C_10 
REMARK    3  A    between atoms: C_10  and  C_11 
REMARK    4  A    between atoms: C_11  and  O_12 
REMARK    5  A    between atoms: C_11  and  C_13 
REMARK    6  A    between atoms: C_15  and  O_16 
REMARK    7  A    between atoms: O_16  and  C_17 
ROOT
HETATM    1  C   UNL     1      24.655  45.700  51.090  1.00  0.00     0.253 C 
HETATM    2  N   UNL     1      25.464  45.906  52.177  1.00  0.00    -0.354 N 
HETATM    3  O   UNL     1      24.011  44.673  50.905  1.00  0.00    -0.268 OA
HETATM    4  H   UNL     1      25.785  46.838  52.406  1.00  0.00     0.162 HD
ENDROOT
BRANCH   2   5
HETATM    5  C   UNL     1      25.578  44.924  53.246  1.00  0.00     0.159 C 
BRANCH   5   6
HETATM    6  C   UNL     1      26.931  44.188  53.226  1.00  0.00     0.169 C 
BRANCH   6   7
HETATM    7  O   UNL     1      26.708  42.776  53.330  1.00  0.00    -0.389 OA
HETATM    8  H   UNL     1      26.295  42.628  54.199  1.00  0.00     0.210 HD
ENDBRANCH   6   7
BRANCH   6   9
HETATM    9  C   UNL     1      27.881  44.664  54.310  1.00  0.00    -0.025 A 
HETATM   10  C   UNL     1      29.104  43.997  54.505  1.00  0.00     0.046 A 
HETATM   11  C   UNL     1      30.013  44.435  55.473  1.00  0.00     0.075 A 
HETATM   12  C   UNL     1      29.707  45.564  56.235  1.00  0.00     0.037 A 
HETATM   13  C   UNL     1      28.502  46.238  56.052  1.00  0.00     0.003 A 
HETATM   14  C   UNL     1      27.593  45.791  55.095  1.00  0.00     0.010 A 
BRANCH  11  15
HETATM   15  O   UNL     1      31.231  43.877  55.741  1.00  0.00    -0.290 OA
BRANCH  15  16
HETATM   16  C   UNL     1      31.444  43.435  57.070  1.00  0.00     0.505 C 
HETATM   17  F   UNL     1      30.749  42.291  57.281  1.00  0.00    -0.184 F 
HETATM   18  F   UNL     1      32.759  43.119  57.187  1.00  0.00    -0.184 F 
ENDBRANCH  15  16
ENDBRANCH  11  15
ENDBRANCH   6   9
ENDBRANCH   5   6
ENDBRANCH   2   5
BRANCH   1  19
HETATM   19  C   UNL     1      24.548  46.857  50.146  1.00  0.00     0.048 A 
HETATM   20  C   UNL     1      23.276  47.122  49.470  1.00  0.00     0.022 A 
HETATM   21  C   UNL     1      23.133  48.138  48.599  1.00  0.00     0.054 A 
HETATM   22  C   UNL     1      24.243  48.978  48.317  1.00  0.00     0.157 A 
HETATM   23  N   UNL     1      25.444  48.689  48.949  1.00  0.00    -0.291 N 
HETATM   24  N   UNL     1      24.394  50.025  47.539  1.00  0.00    -0.130 NA
HETATM   25  C   UNL     1      26.325  49.645  48.488  1.00  0.00     0.130 A 
HETATM   26  C   UNL     1      25.608  47.637  49.848  1.00  0.00     0.117 A 
HETATM   27  C   UNL     1      27.747  49.743  48.886  1.00  0.00     0.094 C 
HETATM   28  N   UNL     1      25.700  50.444  47.645  1.00  0.00    -0.135 NA
ENDBRANCH   1  19
TORSDOF 7
ENDMDL
MODEL 5
REMARK VINA RESULT:      -8.9      5.016      9.537
REMARK  7 active torsions:
REMARK  status: ('A' for Active; 'I' for Inactive)
REMARK    1  A    between atoms: C_7  and  C_8 
REMARK       I    between atoms: C_8  and  N_9 
REMARK    2  A    between atoms: N_9  and  C_10 
REMARK    3  A    between atoms: C_10  and  C_11 
REMARK    4  A    between atoms: C_11  and  O_12 
REMARK    5  A    between atoms: C_11  and  C_13 
REMARK    6  A    between atoms: C_15  and  O_16 
REMARK    7  A    between atoms: O_16  and  C_17 
ROOT
HETATM    1  C   UNL     1      26.746  46.124  53.988  1.00  0.00     0.253 C 
HETATM    2  N   UNL     1      26.510  46.050  52.640  1.00  0.00    -0.354 N 
HETATM    3  O   UNL     1      26.024  46.728  54.774  1.00  0.00    -0.268 OA
HETATM    4  H   UNL     1      26.989  45.361  52.074  1.00  0.00     0.162 HD
ENDROOT
BRANCH   2   5
HETATM    5  C   UNL     1      25.328  46.647  52.034  1.00  0.00     0.159 C 
BRANCH   5   6
HETATM    6  C   UNL     1      25.271  46.421  50.511  1.00  0.00     0.169 C 
BRANCH   6   7
HETATM    7  O   UNL     1      26.162  45.356  50.152  1.00  0.00    -0.389 OA
HETATM    8  H   UNL     1      25.876  45.045  49.275  1.00  0.00     0.210 HD
ENDBRANCH   6   7
BRANCH   6   9
HETATM    9  C   UNL     1      25.584  47.674  49.714  1.00  0.00    -0.025 A 
HETATM   10  C   UNL     1      24.530  48.474  49.234  1.00  0.00     0.046 A 
HETATM   11  C   UNL     1      24.789  49.652  48.527  1.00  0.00     0.075 A 
HETATM   12  C   UNL     1      26.113  50.046  48.320  1.00  0.00     0.037 A 
HETATM   13  C   UNL     1      27.168  49.267  48.790  1.00  0.00     0.003 A 
HETATM   14  C   UNL     1      26.905  48.087  49.484  1.00  0.00     0.010 A 
BRANCH  11  15
HETATM   15  O   UNL     1      23.852  50.511  48.028  1.00  0.00    -0.290 OA
BRANCH  15  16
HETATM   16  C   UNL     1      22.772  50.836  48.885  1.00  0.00     0.505 C 
HETATM   17  F   UNL     1      23.226  51.594  49.913  1.00  0.00    -0.184 F 
HETATM   18  F   UNL     1      21.913  51.614  48.178  1.00  0.00    -0.184 F 
ENDBRANCH  15  16
ENDBRANCH  11  15
ENDBRANCH   6   9
ENDBRANCH   5   6
ENDBRANCH   2   5
BRANCH   1  19
HETATM   19  C   UNL     1      27.934  45.351  54.471  1.00  0.00     0.048 A 
HETATM   20  C   UNL     1      28.363  44.155  53.741  1.00  0.00     0.022 A 
HETATM   21  C   UNL     1      29.412  43.415  54.145  1.00  0.00     0.054 A 
HETATM   22  C   UNL     1      30.125  43.793  55.313  1.00  0.00     0.157 A 
HETATM   23  N   UNL     1      29.682  44.913  56.003  1.00  0.00    -0.291 N 
HETATM   24  N   UNL     1      31.168  43.282  55.926  1.00  0.00    -0.130 NA
HETATM   25  C   UNL     1      30.542  45.031  57.074  1.00  0.00     0.130 A 
HETATM   26  C   UNL     1      28.593  45.684  55.600  1.00  0.00     0.117 A 
HETATM   27  C   UNL     1      30.462  46.091  58.105  1.00  0.00     0.094 C 
HETATM   28  N   UNL     1      31.430  44.058  57.031  1.00  0.00    -0.135 NA
ENDBRANCH   1  19
TORSDOF 7
ENDMDL
MODEL 6
REMARK VINA RESULT:      -8.8      2.037      3.117
REMARK  7 active torsions:
REMARK  status: ('A' for Active; 'I' for Inactive)
REMARK    1  A    between atoms: C_7  and  C_8 
REMARK       I    between atoms: C_8  and  N_9 
REMARK    2  A    between atoms: N_9  and  C_10 
REMARK    3  A    between atoms: C_10  and  C_11 
REMARK    4  A    between atoms: C_11  and  O_12 
REMARK    5  A    between atoms: C_11  and  C_13 
REMARK    6  A    between atoms: C_15  and  O_16 
REMARK    7  A    between atoms: O_16  and  C_17 
ROOT
HETATM    1  C   UNL     1      24.524  45.500  50.869  1.00  0.00     0.253 C 
HETATM    2  N   UNL     1      25.697  45.399  51.569  1.00  0.00    -0.354 N 
HETATM    3  O   UNL     1      23.596  44.705  50.975  1.00  0.00    -0.268 OA
HETATM    4  H   UNL     1      26.328  46.188  51.627  1.00  0.00     0.162 HD
ENDROOT
BRANCH   2   5
HETATM    5  C   UNL     1      25.915  44.349  52.554  1.00  0.00     0.159 C 
BRANCH   5   6
HETATM    6  C   UNL     1      27.005  43.352  52.120  1.00  0.00     0.169 C 
BRANCH   6   7
HETATM    7  O   UNL     1      26.462  42.026  52.106  1.00  0.00    -0.389 OA
HETATM    8  H   UNL     1      26.660  41.640  52.978  1.00  0.00     0.210 HD
ENDBRANCH   6   7
BRANCH   6   9
HETATM    9  C   UNL     1      28.247  43.415  52.991  1.00  0.00    -0.025 A 
HETATM   10  C   UNL     1      28.272  44.275  54.105  1.00  0.00     0.046 A 
HETATM   11  C   UNL     1      29.389  44.327  54.944  1.00  0.00     0.075 A 
HETATM   12  C   UNL     1      30.480  43.496  54.682  1.00  0.00     0.037 A 
HETATM   13  C   UNL     1      30.470  42.638  53.584  1.00  0.00     0.003 A 
HETATM   14  C   UNL     1      29.360  42.597  52.743  1.00  0.00     0.010 A 
BRANCH  11  15
HETATM   15  O   UNL     1      29.521  45.108  56.057  1.00  0.00    -0.290 OA
BRANCH  15  16
HETATM   16  C   UNL     1      28.469  46.022  56.317  1.00  0.00     0.505 C 
HETATM   17  F   UNL     1      28.536  46.429  57.608  1.00  0.00    -0.184 F 
HETATM   18  F   UNL     1      28.687  47.121  55.550  1.00  0.00    -0.184 F 
ENDBRANCH  15  16
ENDBRANCH  11  15
ENDBRANCH   6   9
ENDBRANCH   5   6
ENDBRANCH   2   5
BRANCH   1  19
HETATM   19  C   UNL     1      24.407  46.707  49.990  1.00  0.00     0.048 A 
HETATM   20  C   UNL     1      23.133  47.001  49.331  1.00  0.00     0.022 A 
HETATM   21  C   UNL     1      22.982  48.063  48.517  1.00  0.00     0.054 A 
HETATM   22  C   UNL     1      24.087  48.923  48.280  1.00  0.00     0.157 A 
HETATM   23  N   UNL     1      25.291  48.608  48.894  1.00  0.00    -0.291 N 
HETATM   24  N   UNL     1      24.230  50.012  47.561  1.00  0.00    -0.130 NA
HETATM   25  C   UNL     1      26.165  49.593  48.485  1.00  0.00     0.130 A 
HETATM   26  C   UNL     1      25.462  47.509  49.733  1.00  0.00     0.117 A 
HETATM   27  C   UNL     1      27.587  49.677  48.885  1.00  0.00     0.094 C 
HETATM   28  N   UNL     1      25.533  50.433  47.688  1.00  0.00    -0.135 NA
ENDBRANCH   1  19
TORSDOF 7
ENDMDL
MODEL 7
REMARK VINA RESULT:      -8.7      2.687      4.115
REMARK  7 active torsions:
REMARK  status: ('A' for Active; 'I' for Inactive)
REMARK    1  A    between atoms: C_7  and  C_8 
REMARK       I    between atoms: C_8  and  N_9 
REMARK    2  A    between atoms: N_9  and  C_10 
REMARK    3  A    between atoms: C_10  and  C_11 
REMARK    4  A    between atoms: C_11  and  O_12 
REMARK    5  A    between atoms: C_11  and  C_13 
REMARK    6  A    between atoms: C_15  and  O_16 
REMARK    7  A    between atoms: O_16  and  C_17 
ROOT
HETATM    1  C   UNL     1      26.785  43.396  51.034  1.00  0.00     0.253 C 
HETATM    2  N   UNL     1      27.974  43.663  51.661  1.00  0.00    -0.354 N 
HETATM    3  O   UNL     1      26.351  42.265  50.849  1.00  0.00    -0.268 OA
HETATM    4  H   UNL     1      28.177  44.596  51.996  1.00  0.00     0.162 HD
ENDROOT
BRANCH   2   5
HETATM    5  C   UNL     1      28.802  42.603  52.218  1.00  0.00     0.159 C 
BRANCH   5   6
HETATM    6  C   UNL     1      28.544  42.383  53.720  1.00  0.00     0.169 C 
BRANCH   6   7
HETATM    7  O   UNL     1      27.135  42.252  53.949  1.00  0.00    -0.389 OA
HETATM    8  H   UNL     1      27.009  42.286  54.914  1.00  0.00     0.210 HD
ENDBRANCH   6   7
BRANCH   6   9
HETATM    9  C   UNL     1      29.129  43.482  54.589  1.00  0.00    -0.025 A 
HETATM   10  C   UNL     1      28.332  44.585  54.946  1.00  0.00     0.046 A 
HETATM   11  C   UNL     1      28.834  45.594  55.773  1.00  0.00     0.075 A 
HETATM   12  C   UNL     1      30.135  45.487  56.268  1.00  0.00     0.037 A 
HETATM   13  C   UNL     1      30.937  44.399  55.927  1.00  0.00     0.003 A 
HETATM   14  C   UNL     1      30.437  43.402  55.092  1.00  0.00     0.010 A 
BRANCH  11  15
HETATM   15  O   UNL     1      28.152  46.700  56.195  1.00  0.00    -0.290 OA
BRANCH  15  16
HETATM   16  C   UNL     1      27.481  47.448  55.196  1.00  0.00     0.505 C 
HETATM   17  F   UNL     1      26.795  48.462  55.778  1.00  0.00    -0.184 F 
HETATM   18  F   UNL     1      28.429  48.020  54.412  1.00  0.00    -0.184 F 
ENDBRANCH  15  16
ENDBRANCH  11  15
ENDBRANCH   6   9
ENDBRANCH   5   6
ENDBRANCH   2   5
BRANCH   1  19
HETATM   19  C   UNL     1      25.991  44.601  50.633  1.00  0.00     0.048 A 
HETATM   20  C   UNL     1      24.532  44.509  50.549  1.00  0.00     0.022 A 
HETATM   21  C   UNL     1      23.774  45.558  50.175  1.00  0.00     0.054 A 
HETATM   22  C   UNL     1      24.400  46.789  49.846  1.00  0.00     0.157 A 
HETATM   23  N   UNL     1      25.786  46.843  49.906  1.00  0.00    -0.291 N 
HETATM   24  N   UNL     1      23.930  47.956  49.468  1.00  0.00    -0.130 NA
HETATM   25  C   UNL     1      26.107  48.132  49.535  1.00  0.00     0.130 A 
HETATM   26  C   UNL     1      26.582  45.763  50.285  1.00  0.00     0.117 A 
HETATM   27  C   UNL     1      27.484  48.665  49.448  1.00  0.00     0.094 C 
HETATM   28  N   UNL     1      24.999  48.798  49.272  1.00  0.00    -0.135 NA
ENDBRANCH   1  19
TORSDOF 7
ENDMDL
MODEL 8
REMARK VINA RESULT:      -8.4     12.297     14.739
REMARK  7 active torsions:
REMARK  status: ('A' for Active; 'I' for Inactive)
REMARK    1  A    between atoms: C_7  and  C_8 
REMARK       I    between atoms: C_8  and  N_9 
REMARK    2  A    between atoms: N_9  and  C_10 
REMARK    3  A    between atoms: C_10  and  C_11 
REMARK    4  A    between atoms: C_11  and  O_12 
REMARK    5  A    between atoms: C_11  and  C_13 
REMARK    6  A    between atoms: C_15  and  O_16 
REMARK    7  A    between atoms: O_16  and  C_17 
ROOT
HETATM    1  C   UNL     1      31.339  49.242  41.772  1.00  0.00     0.253 C 
HETATM    2  N   UNL     1      30.103  49.365  42.352  1.00  0.00    -0.354 N 
HETATM    3  O   UNL     1      31.569  48.527  40.803  1.00  0.00    -0.268 OA
HETATM    4  H   UNL     1      29.910  50.128  42.988  1.00  0.00     0.162 HD
ENDROOT
BRANCH   2   5
HETATM    5  C   UNL     1      28.932  48.686  41.815  1.00  0.00     0.159 C 
BRANCH   5   6
HETATM    6  C   UNL     1      27.743  49.642  41.604  1.00  0.00     0.169 C 
BRANCH   6   7
HETATM    7  O   UNL     1      26.579  48.886  41.249  1.00  0.00    -0.389 OA
HETATM    8  H   UNL     1      26.779  47.957  41.465  1.00  0.00     0.210 HD
ENDBRANCH   6   7
BRANCH   6   9
HETATM    9  C   UNL     1      28.023  50.717  40.568  1.00  0.00    -0.025 A 
HETATM   10  C   UNL     1      28.649  51.914  40.960  1.00  0.00     0.046 A 
HETATM   11  C   UNL     1      28.950  52.906  40.022  1.00  0.00     0.075 A 
HETATM   12  C   UNL     1      28.644  52.688  38.677  1.00  0.00     0.037 A 
HETATM   13  C   UNL     1      28.026  51.506  38.272  1.00  0.00     0.003 A 
HETATM   14  C   UNL     1      27.717  50.525  39.212  1.00  0.00     0.010 A 
BRANCH  11  15
HETATM   15  O   UNL     1      29.566  54.097  40.281  1.00  0.00    -0.290 OA
BRANCH  15  16
HETATM   16  C   UNL     1      30.859  54.028  40.856  1.00  0.00     0.505 C 
HETATM   17  F   UNL     1      31.637  53.201  40.115  1.00  0.00    -0.184 F 
HETATM   18  F   UNL     1      31.410  55.265  40.766  1.00  0.00    -0.184 F 
ENDBRANCH  15  16
ENDBRANCH  11  15
ENDBRANCH   6   9
ENDBRANCH   5   6
ENDBRANCH   2   5
BRANCH   1  19
HETATM   19  C   UNL     1      32.410  50.104  42.366  1.00  0.00     0.048 A 
HETATM   20  C   UNL     1      32.106  50.932  43.534  1.00  0.00     0.022 A 
HETATM   21  C   UNL     1      33.028  51.738  44.093  1.00  0.00     0.054 A 
HETATM   22  C   UNL     1      34.333  51.797  43.537  1.00  0.00     0.157 A 
HETATM   23  N   UNL     1      34.588  51.024  42.412  1.00  0.00    -0.291 N 
HETATM   24  N   UNL     1      35.414  52.467  43.865  1.00  0.00    -0.130 NA
HETATM   25  C   UNL     1      35.905  51.284  42.096  1.00  0.00     0.130 A 
HETATM   26  C   UNL     1      33.641  50.191  41.820  1.00  0.00     0.117 A 
HETATM   27  C   UNL     1      36.632  50.683  40.955  1.00  0.00     0.094 C 
HETATM   28  N   UNL     1      36.400  52.146  42.962  1.00  0.00    -0.135 NA
ENDBRANCH   1  19
TORSDOF 7
ENDMDL
MODEL 9
REMARK VINA RESULT:      -8.3      2.322      3.155
REMARK  7 active torsions:
REMARK  status: ('A' for Active; 'I' for Inactive)
REMARK    1  A    between atoms: C_7  and  C_8 
REMARK       I    between atoms: C_8  and  N_9 
REMARK    2  A    between atoms: N_9  and  C_10 
REMARK    3  A    between atoms: C_10  and  C_11 
REMARK    4  A    between atoms: C_11  and  O_12 
REMARK    5  A    between atoms: C_11  and  C_13 
REMARK    6  A    between atoms: C_15  and  O_16 
REMARK    7  A    between atoms: O_16  and  C_17 
ROOT
HETATM    1  C   UNL     1      26.262  45.470  49.982  1.00  0.00     0.253 C 
HETATM    2  N   UNL     1      26.313  44.627  51.061  1.00  0.00    -0.354 N 
HETATM    3  O   UNL     1      27.252  45.842  49.360  1.00  0.00    -0.268 OA
HETATM    4  H   UNL     1      25.474  44.168  51.391  1.00  0.00     0.162 HD
ENDROOT
BRANCH   2   5
HETATM    5  C   UNL     1      27.567  44.052  51.527  1.00  0.00     0.159 C 
BRANCH   5   6
HETATM    6  C   UNL     1      27.409  43.301  52.862  1.00  0.00     0.169 C 
BRANCH   6   7
HETATM    7  O   UNL     1      26.125  43.595  53.426  1.00  0.00    -0.389 OA
HETATM    8  H   UNL     1      26.146  43.264  54.342  1.00  0.00     0.210 HD
ENDBRANCH   6   7
BRANCH   6   9
HETATM    9  C   UNL     1      28.516  43.614  53.853  1.00  0.00    -0.025 A 
HETATM   10  C   UNL     1      28.450  44.792  54.620  1.00  0.00     0.046 A 
HETATM   11  C   UNL     1      29.438  45.087  55.564  1.00  0.00     0.075 A 
HETATM   12  C   UNL     1      30.487  44.187  55.760  1.00  0.00     0.037 A 
HETATM   13  C   UNL     1      30.565  43.015  55.011  1.00  0.00     0.003 A 
HETATM   14  C   UNL     1      29.585  42.729  54.061  1.00  0.00     0.010 A 
BRANCH  11  15
HETATM   15  O   UNL     1      29.472  46.188  56.372  1.00  0.00    -0.290 OA
BRANCH  15  16
HETATM   16  C   UNL     1      29.463  45.948  57.768  1.00  0.00     0.505 C 
HETATM   17  F   UNL     1      30.475  46.636  58.350  1.00  0.00    -0.184 F 
HETATM   18  F   UNL     1      28.308  46.463  58.262  1.00  0.00    -0.184 F 
ENDBRANCH  15  16
ENDBRANCH  11  15
ENDBRANCH   6   9
ENDBRANCH   5   6
ENDBRANCH   2   5
BRANCH   1  19
HETATM   19  C   UNL     1      24.886  45.872  49.551  1.00  0.00     0.048 A 
HETATM   20  C   UNL     1      23.957  44.853  49.056  1.00  0.00     0.022 A 
HETATM   21  C   UNL     1      22.716  45.165  48.639  1.00  0.00     0.054 A 
HETATM   22  C   UNL     1      22.288  46.518  48.672  1.00  0.00     0.157 A 
HETATM   23  N   UNL     1      23.195  47.469  49.118  1.00  0.00    -0.291 N 
HETATM   24  N   UNL     1      21.159  47.105  48.346  1.00  0.00    -0.130 NA
HETATM   25  C   UNL     1      22.520  48.668  49.034  1.00  0.00     0.130 A 
HETATM   26  C   UNL     1      24.485  47.161  49.546  1.00  0.00     0.117 A 
HETATM   27  C   UNL     1      23.090  49.983  49.406  1.00  0.00     0.094 C 
HETATM   28  N   UNL     1      21.304  48.453  48.573  1.00  0.00    -0.135 NA
ENDBRANCH   1  19
TORSDOF 7
ENDMDL
MODEL 10
REMARK VINA RESULT:      -8.3      5.013      9.633
REMARK  7 active torsions:
REMARK  status: ('A' for Active; 'I' for Inactive)
REMARK    1  A    between atoms: C_7  and  C_8 
REMARK       I    between atoms: C_8  and  N_9 
REMARK    2  A    between atoms: N_9  and  C_10 
REMARK    3  A    between atoms: C_10  and  C_11 
REMARK    4  A    between atoms: C_11  and  O_12 
REMARK    5  A    between atoms: C_11  and  C_13 
REMARK    6  A    between atoms: C_15  and  O_16 
REMARK    7  A    between atoms: O_16  and  C_17 
ROOT
HETATM    1  C   UNL     1      25.841  45.735  52.615  1.00  0.00     0.253 C 
HETATM    2  N   UNL     1      25.529  46.928  52.017  1.00  0.00    -0.354 N 
HETATM    3  O   UNL     1      25.367  44.657  52.273  1.00  0.00    -0.268 OA
HETATM    4  H   UNL     1      26.108  47.744  52.170  1.00  0.00     0.162 HD
ENDROOT
BRANCH   2   5
HETATM    5  C   UNL     1      24.636  47.001  50.869  1.00  0.00     0.159 C 
BRANCH   5   6
HETATM    6  C   UNL     1      25.277  47.723  49.670  1.00  0.00     0.169 C 
BRANCH   6   7
HETATM    7  O   UNL     1      26.534  48.286  50.067  1.00  0.00    -0.389 OA
HETATM    8  H   UNL     1      26.839  48.831  49.320  1.00  0.00     0.210 HD
ENDBRANCH   6   7
BRANCH   6   9
HETATM    9  C   UNL     1      24.377  48.788  49.069  1.00  0.00    -0.025 A 
HETATM   10  C   UNL     1      23.013  48.820  49.412  1.00  0.00     0.046 A 
HETATM   11  C   UNL     1      22.169  49.810  48.900  1.00  0.00     0.075 A 
HETATM   12  C   UNL     1      22.698  50.791  48.059  1.00  0.00     0.037 A 
HETATM   13  C   UNL     1      24.047  50.776  47.712  1.00  0.00     0.003 A 
HETATM   14  C   UNL     1      24.883  49.779  48.215  1.00  0.00     0.010 A 
BRANCH  11  15
HETATM   15  O   UNL     1      20.837  49.948  49.171  1.00  0.00    -0.290 OA
BRANCH  15  16
HETATM   16  C   UNL     1      20.502  50.698  50.326  1.00  0.00     0.505 C 
HETATM   17  F   UNL     1      21.632  51.205  50.878  1.00  0.00    -0.184 F 
HETATM   18  F   UNL     1      19.758  51.759  49.920  1.00  0.00    -0.184 F 
ENDBRANCH  15  16
ENDBRANCH  11  15
ENDBRANCH   6   9
ENDBRANCH   5   6
ENDBRANCH   2   5
BRANCH   1  19
HETATM   19  C   UNL     1      26.873  45.815  53.697  1.00  0.00     0.048 A 
HETATM   20  C   UNL     1      26.868  46.955  54.617  1.00  0.00     0.022 A 
HETATM   21  C   UNL     1      27.785  47.083  55.594  1.00  0.00     0.054 A 
HETATM   22  C   UNL     1      28.792  46.092  55.741  1.00  0.00     0.157 A 
HETATM   23  N   UNL     1      28.792  45.037  54.840  1.00  0.00    -0.291 N 
HETATM   24  N   UNL     1      29.786  45.950  56.587  1.00  0.00    -0.130 NA
HETATM   25  C   UNL     1      29.863  44.253  55.213  1.00  0.00     0.130 A 
HETATM   26  C   UNL     1      27.853  44.895  53.820  1.00  0.00     0.117 A 
HETATM   27  C   UNL     1      30.269  43.001  54.535  1.00  0.00     0.094 C 
HETATM   28  N   UNL     1      30.459  44.797  56.256  1.00  0.00    -0.135 NA
ENDBRANCH   1  19
TORSDOF 7
ENDMDL
