MODEL 1
REMARK VINA RESULT:      -8.7      0.000      0.000
REMARK  8 active torsions:
REMARK  status: ('A' for Active; 'I' for Inactive)
REMARK    1  A    between atoms: C_2  and  O_3 
REMARK    2  A    between atoms: O_3  and  C_4 
REMARK       I    between atoms: C_4  and  N_5 
REMARK    3  A    between atoms: C_8  and  N_9 
REMARK       I    between atoms: N_9  and  C_10 
REMARK    4  A    between atoms: C_10  and  C_11 
REMARK    5  A    between atoms: C_12  and  C_13 
REMARK    6  A    between atoms: N_18  and  C_19 
REMARK    7  A    between atoms: C_19  and  C_20 
REMARK    8  A    between atoms: C_20  and  O_21 
ROOT
HETATM    1  C   UNL     1      27.992  43.336  52.412  1.00  0.00     0.139 C 
HETATM    2  C   UNL     1      26.558  43.893  52.585  1.00  0.00     0.145 C 
HETATM    3  N   UNL     1      26.603  45.330  52.935  1.00  0.00    -0.335 N 
HETATM    4  C   UNL     1      27.466  45.754  53.951  1.00  0.00     0.255 C 
HETATM    5  O   UNL     1      27.386  46.859  54.480  1.00  0.00    -0.267 OA
HETATM    6  C   UNL     1      28.549  44.822  54.372  1.00  0.00     0.039 A 
HETATM    7  C   UNL     1      28.839  43.667  53.629  1.00  0.00    -0.027 A 
HETATM    8  C   UNL     1      29.324  45.157  55.491  1.00  0.00     0.017 A 
HETATM    9  C   UNL     1      30.403  44.358  55.864  1.00  0.00     0.001 A 
HETATM   10  C   UNL     1      30.725  43.235  55.107  1.00  0.00     0.001 A 
HETATM   11  C   UNL     1      29.958  42.898  53.991  1.00  0.00     0.009 A 
ENDROOT
BRANCH   1  12
HETATM   12  C   UNL     1      27.969  41.843  52.088  1.00  0.00     0.229 C 
HETATM   13  N   UNL     1      28.318  41.491  50.797  1.00  0.00    -0.356 N 
HETATM   14  H   UNL     1      28.341  42.219  50.094  1.00  0.00     0.162 HD
HETATM   15  O   UNL     1      27.616  41.015  52.927  1.00  0.00    -0.273 OA
BRANCH  13  16
HETATM   16  C   UNL     1      28.221  40.104  50.344  1.00  0.00     0.087 C 
HETATM   17  C   UNL     1      26.766  39.716  50.044  1.00  0.00     0.045 C 
HETATM   18  C   UNL     1      26.269  40.334  48.741  1.00  0.00     0.130 C 
HETATM   19  N   UNL     1      27.185  40.032  47.651  1.00  0.00    -0.328 N 
HETATM   20  C   UNL     1      26.718  39.403  46.510  1.00  0.00     0.362 C 
HETATM   21  C   UNL     1      28.571  40.442  47.847  1.00  0.00     0.130 C 
HETATM   22  O   UNL     1      25.545  39.097  46.331  1.00  0.00    -0.238 OA
HETATM   23  C   UNL     1      29.131  39.848  49.136  1.00  0.00     0.045 C 
BRANCH  20  24
HETATM   24  O   UNL     1      27.710  39.152  45.614  1.00  0.00    -0.304 OA
BRANCH  24  25
HETATM   25  C   UNL     1      27.888  37.779  45.234  1.00  0.00     0.176 C 
HETATM   26  C   UNL     1      28.835  37.095  46.200  1.00  0.00     0.034 C 
ENDBRANCH  24  25
ENDBRANCH  20  24
ENDBRANCH  13  16
ENDBRANCH   1  12
BRANCH   2  27
HETATM   27  C   UNL     1      25.707  43.613  51.363  1.00  0.00     0.006 A 
HETATM   28  S   UNL     1      26.283  44.089  49.811  1.00  0.00    -0.104 SA
HETATM   29  C   UNL     1      24.881  43.503  49.035  1.00  0.00     0.050 A 
HETATM   30  C   UNL     1      23.983  42.965  49.928  1.00  0.00     0.008 A 
HETATM   31  C   UNL     1      24.456  43.032  51.271  1.00  0.00     0.017 A 
ENDBRANCH   2  27
BRANCH   3  32
HETATM   32  C   UNL     1      25.534  46.268  52.554  1.00  0.00     0.153 C 
BRANCH  32  33
HETATM   33  C   UNL     1      25.975  47.193  51.414  1.00  0.00     0.187 C 
BRANCH  33  34
HETATM   34  O   UNL     1      24.851  47.919  50.913  1.00  0.00    -0.394 OA
HETATM   35  C   UNL     1      24.254  47.243  49.813  1.00  0.00     0.201 C 
ENDBRANCH  33  34
ENDBRANCH  32  33
ENDBRANCH   3  32
TORSDOF 8
ENDMDL
MODEL 2
REMARK VINA RESULT:      -7.4      5.836     10.857
REMARK  8 active torsions:
REMARK  status: ('A' for Active; 'I' for Inactive)
REMARK    1  A    between atoms: C_2  and  O_3 
REMARK    2  A    between atoms: O_3  and  C_4 
REMARK       I    between atoms: C_4  and  N_5 
REMARK    3  A    between atoms: C_8  and  N_9 
REMARK       I    between atoms: N_9  and  C_10 
REMARK    4  A    between atoms: C_10  and  C_11 
REMARK    5  A    between atoms: C_12  and  C_13 
REMARK    6  A    between atoms: N_18  and  C_19 
REMARK    7  A    between atoms: C_19  and  C_20 
REMARK    8  A    between atoms: C_20  and  O_21 
ROOT
HETATM    1  C   UNL     1      22.755  46.777  48.886  1.00  0.00     0.139 C 
HETATM    2  C   UNL     1      22.459  45.898  47.647  1.00  0.00     0.145 C 
HETATM    3  N   UNL     1      22.724  44.474  47.951  1.00  0.00    -0.335 N 
HETATM    4  C   UNL     1      23.926  44.126  48.577  1.00  0.00     0.255 C 
HETATM    5  O   UNL     1      24.343  42.974  48.633  1.00  0.00    -0.267 OA
HETATM    6  C   UNL     1      24.704  45.214  49.233  1.00  0.00     0.039 A 
HETATM    7  C   UNL     1      24.149  46.490  49.418  1.00  0.00    -0.027 A 
HETATM    8  C   UNL     1      25.983  44.920  49.726  1.00  0.00     0.017 A 
HETATM    9  C   UNL     1      26.707  45.885  50.424  1.00  0.00     0.001 A 
HETATM   10  C   UNL     1      26.146  47.138  50.651  1.00  0.00     0.001 A 
HETATM   11  C   UNL     1      24.873  47.437  50.164  1.00  0.00     0.009 A 
ENDROOT
BRANCH   1  12
HETATM   12  C   UNL     1      22.525  48.257  48.581  1.00  0.00     0.229 C 
HETATM   13  N   UNL     1      21.584  48.903  49.360  1.00  0.00    -0.356 N 
HETATM   14  H   UNL     1      20.951  48.337  49.912  1.00  0.00     0.162 HD
HETATM   15  O   UNL     1      23.120  48.817  47.661  1.00  0.00    -0.273 OA
BRANCH  13  16
HETATM   16  C   UNL     1      21.200  50.287  49.084  1.00  0.00     0.087 C 
HETATM   17  C   UNL     1      20.368  50.387  47.797  1.00  0.00     0.045 C 
HETATM   18  C   UNL     1      18.945  49.875  47.998  1.00  0.00     0.130 C 
HETATM   19  N   UNL     1      18.325  50.529  49.141  1.00  0.00    -0.328 N 
HETATM   20  C   UNL     1      17.126  51.201  48.986  1.00  0.00     0.362 C 
HETATM   21  C   UNL     1      19.034  50.407  50.410  1.00  0.00     0.130 C 
HETATM   22  O   UNL     1      16.512  51.267  47.927  1.00  0.00    -0.238 OA
HETATM   23  C   UNL     1      20.467  50.912  50.277  1.00  0.00     0.045 C 
BRANCH  20  24
HETATM   24  O   UNL     1      16.711  51.793  50.137  1.00  0.00    -0.304 OA
BRANCH  24  25
HETATM   25  C   UNL     1      16.230  53.141  50.021  1.00  0.00     0.176 C 
HETATM   26  C   UNL     1      14.789  53.217  50.487  1.00  0.00     0.034 C 
ENDBRANCH  24  25
ENDBRANCH  20  24
ENDBRANCH  13  16
ENDBRANCH   1  12
BRANCH   2  27
HETATM   27  C   UNL     1      21.057  46.135  47.126  1.00  0.00     0.006 A 
HETATM   28  S   UNL     1      19.716  45.883  48.177  1.00  0.00    -0.104 SA
HETATM   29  C   UNL     1      18.595  46.298  46.958  1.00  0.00     0.050 A 
HETATM   30  C   UNL     1      19.216  46.612  45.771  1.00  0.00     0.008 A 
HETATM   31  C   UNL     1      20.635  46.515  45.864  1.00  0.00     0.017 A 
ENDBRANCH   2  27
BRANCH   3  32
HETATM   32  C   UNL     1      21.988  43.379  47.299  1.00  0.00     0.153 C 
BRANCH  32  33
HETATM   33  C   UNL     1      22.427  43.195  45.841  1.00  0.00     0.187 C 
BRANCH  33  34
HETATM   34  O   UNL     1      21.290  42.915  45.022  1.00  0.00    -0.394 OA
HETATM   35  C   UNL     1      20.112  42.782  45.809  1.00  0.00     0.201 C 
ENDBRANCH  33  34
ENDBRANCH  32  33
ENDBRANCH   3  32
TORSDOF 8
ENDMDL
MODEL 3
REMARK VINA RESULT:      -7.4     10.146     14.742
REMARK  8 active torsions:
REMARK  status: ('A' for Active; 'I' for Inactive)
REMARK    1  A    between atoms: C_2  and  O_3 
REMARK    2  A    between atoms: O_3  and  C_4 
REMARK       I    between atoms: C_4  and  N_5 
REMARK    3  A    between atoms: C_8  and  N_9 
REMARK       I    between atoms: N_9  and  C_10 
REMARK    4  A    between atoms: C_10  and  C_11 
REMARK    5  A    between atoms: C_12  and  C_13 
REMARK    6  A    between atoms: N_18  and  C_19 
REMARK    7  A    between atoms: C_19  and  C_20 
REMARK    8  A    between atoms: C_20  and  O_21 
ROOT
HETATM    1  C   UNL     1      15.968  52.203  47.841  1.00  0.00     0.139 C 
HETATM    2  C   UNL     1      15.424  52.119  46.394  1.00  0.00     0.145 C 
HETATM    3  N   UNL     1      15.049  53.465  45.907  1.00  0.00    -0.335 N 
HETATM    4  C   UNL     1      14.267  54.289  46.723  1.00  0.00     0.255 C 
HETATM    5  O   UNL     1      13.699  55.295  46.312  1.00  0.00    -0.267 OA
HETATM    6  C   UNL     1      14.162  53.933  48.166  1.00  0.00     0.039 A 
HETATM    7  C   UNL     1      14.992  52.952  48.732  1.00  0.00    -0.027 A 
HETATM    8  C   UNL     1      13.262  54.647  48.969  1.00  0.00     0.017 A 
HETATM    9  C   UNL     1      13.197  54.406  50.340  1.00  0.00     0.001 A 
HETATM   10  C   UNL     1      14.047  53.467  50.916  1.00  0.00     0.001 A 
HETATM   11  C   UNL     1      14.947  52.753  50.123  1.00  0.00     0.009 A 
ENDROOT
BRANCH   1  12
HETATM   12  C   UNL     1      16.326  50.818  48.378  1.00  0.00     0.229 C 
HETATM   13  N   UNL     1      17.622  50.653  48.830  1.00  0.00    -0.356 N 
HETATM   14  H   UNL     1      18.309  51.352  48.577  1.00  0.00     0.162 HD
HETATM   15  O   UNL     1      15.508  49.899  48.363  1.00  0.00    -0.273 OA
BRANCH  13  16
HETATM   16  C   UNL     1      18.108  49.341  49.259  1.00  0.00     0.087 C 
HETATM   17  C   UNL     1      18.492  48.469  48.055  1.00  0.00     0.045 C 
HETATM   18  C   UNL     1      19.807  48.916  47.425  1.00  0.00     0.130 C 
HETATM   19  N   UNL     1      20.853  49.003  48.434  1.00  0.00    -0.328 N 
HETATM   20  C   UNL     1      22.029  48.292  48.274  1.00  0.00     0.362 C 
HETATM   21  C   UNL     1      20.575  49.875  49.570  1.00  0.00     0.130 C 
HETATM   22  O   UNL     1      22.276  47.593  47.299  1.00  0.00    -0.238 OA
HETATM   23  C   UNL     1      19.270  49.474  50.251  1.00  0.00     0.045 C 
BRANCH  20  24
HETATM   24  O   UNL     1      22.875  48.447  49.327  1.00  0.00    -0.304 OA
BRANCH  24  25
HETATM   25  C   UNL     1      24.245  48.731  49.004  1.00  0.00     0.176 C 
HETATM   26  C   UNL     1      24.346  50.088  48.335  1.00  0.00     0.034 C 
ENDBRANCH  24  25
ENDBRANCH  20  24
ENDBRANCH  13  16
ENDBRANCH   1  12
BRANCH   2  27
HETATM   27  C   UNL     1      16.403  51.415  45.478  1.00  0.00     0.006 A 
HETATM   28  S   UNL     1      15.877  50.040  44.583  1.00  0.00    -0.104 SA
HETATM   29  C   UNL     1      17.416  49.825  43.877  1.00  0.00     0.050 A 
HETATM   30  C   UNL     1      18.320  50.766  44.314  1.00  0.00     0.008 A 
HETATM   31  C   UNL     1      17.739  51.680  45.240  1.00  0.00     0.017 A 
ENDBRANCH   2  27
BRANCH   3  32
HETATM   32  C   UNL     1      15.118  53.835  44.484  1.00  0.00     0.153 C 
BRANCH  32  33
HETATM   33  C   UNL     1      13.954  53.233  43.687  1.00  0.00     0.187 C 
BRANCH  33  34
HETATM   34  O   UNL     1      14.361  52.991  42.339  1.00  0.00    -0.394 OA
HETATM   35  C   UNL     1      15.775  53.076  42.207  1.00  0.00     0.201 C 
ENDBRANCH  33  34
ENDBRANCH  32  33
ENDBRANCH   3  32
TORSDOF 8
ENDMDL
MODEL 4
REMARK VINA RESULT:      -7.2      4.347      8.502
REMARK  8 active torsions:
REMARK  status: ('A' for Active; 'I' for Inactive)
REMARK    1  A    between atoms: C_2  and  O_3 
REMARK    2  A    between atoms: O_3  and  C_4 
REMARK       I    between atoms: C_4  and  N_5 
REMARK    3  A    between atoms: C_8  and  N_9 
REMARK       I    between atoms: N_9  and  C_10 
REMARK    4  A    between atoms: C_10  and  C_11 
REMARK    5  A    between atoms: C_12  and  C_13 
REMARK    6  A    between atoms: N_18  and  C_19 
REMARK    7  A    between atoms: C_19  and  C_20 
REMARK    8  A    between atoms: C_20  and  O_21 
ROOT
HETATM    1  C   UNL     1      21.775  47.784  48.389  1.00  0.00     0.139 C 
HETATM    2  C   UNL     1      21.193  46.373  48.651  1.00  0.00     0.145 C 
HETATM    3  N   UNL     1      19.746  46.348  48.344  1.00  0.00    -0.335 N 
HETATM    4  C   UNL     1      18.927  47.364  48.849  1.00  0.00     0.255 C 
HETATM    5  O   UNL     1      17.703  47.290  48.868  1.00  0.00    -0.267 OA
HETATM    6  C   UNL     1      19.590  48.601  49.348  1.00  0.00     0.039 A 
HETATM    7  C   UNL     1      20.953  48.838  49.112  1.00  0.00    -0.027 A 
HETATM    8  C   UNL     1      18.807  49.563  50.002  1.00  0.00     0.017 A 
HETATM    9  C   UNL     1      19.370  50.773  50.404  1.00  0.00     0.001 A 
HETATM   10  C   UNL     1      20.710  51.034  50.135  1.00  0.00     0.001 A 
HETATM   11  C   UNL     1      21.494  50.081  49.483  1.00  0.00     0.009 A 
ENDROOT
BRANCH   1  12
HETATM   12  C   UNL     1      23.261  47.843  48.737  1.00  0.00     0.229 C 
HETATM   13  N   UNL     1      23.666  47.086  49.821  1.00  0.00    -0.356 N 
HETATM   14  H   UNL     1      22.955  46.732  50.449  1.00  0.00     0.162 HD
HETATM   15  O   UNL     1      24.035  48.562  48.106  1.00  0.00    -0.273 OA
BRANCH  13  16
HETATM   16  C   UNL     1      25.042  47.155  50.314  1.00  0.00     0.087 C 
HETATM   17  C   UNL     1      25.109  46.856  51.819  1.00  0.00     0.045 C 
HETATM   18  C   UNL     1      24.918  45.372  52.114  1.00  0.00     0.130 C 
HETATM   19  N   UNL     1      25.842  44.572  51.323  1.00  0.00    -0.328 N 
HETATM   20  C   UNL     1      26.704  43.690  51.950  1.00  0.00     0.362 C 
HETATM   21  C   UNL     1      25.775  44.759  49.878  1.00  0.00     0.130 C 
HETATM   22  O   UNL     1      26.729  43.505  53.161  1.00  0.00    -0.238 OA
HETATM   23  C   UNL     1      25.967  46.228  49.515  1.00  0.00     0.045 C 
BRANCH  20  24
HETATM   24  O   UNL     1      27.529  43.059  51.073  1.00  0.00    -0.304 OA
BRANCH  24  25
HETATM   25  C   UNL     1      27.911  41.718  51.412  1.00  0.00     0.176 C 
HETATM   26  C   UNL     1      26.896  40.737  50.859  1.00  0.00     0.034 C 
ENDBRANCH  24  25
ENDBRANCH  20  24
ENDBRANCH  13  16
ENDBRANCH   1  12
BRANCH   2  27
HETATM   27  C   UNL     1      21.971  45.310  47.902  1.00  0.00     0.006 A 
HETATM   28  S   UNL     1      22.442  43.875  48.730  1.00  0.00    -0.104 SA
HETATM   29  C   UNL     1      23.221  43.251  47.345  1.00  0.00     0.050 A 
HETATM   30  C   UNL     1      23.140  44.112  46.275  1.00  0.00     0.008 A 
HETATM   31  C   UNL     1      22.423  45.301  46.595  1.00  0.00     0.017 A 
ENDBRANCH   2  27
BRANCH   3  32
HETATM   32  C   UNL     1      19.061  45.132  47.874  1.00  0.00     0.153 C 
BRANCH  32  33
HETATM   33  C   UNL     1      18.698  45.229  46.387  1.00  0.00     0.187 C 
BRANCH  33  34
HETATM   34  O   UNL     1      18.389  43.931  45.877  1.00  0.00    -0.394 OA
HETATM   35  C   UNL     1      19.572  43.174  45.652  1.00  0.00     0.201 C 
ENDBRANCH  33  34
ENDBRANCH  32  33
ENDBRANCH   3  32
TORSDOF 8
ENDMDL
MODEL 5
REMARK VINA RESULT:      -7.2      3.185      7.891
REMARK  8 active torsions:
REMARK  status: ('A' for Active; 'I' for Inactive)
REMARK    1  A    between atoms: C_2  and  O_3 
REMARK    2  A    between atoms: O_3  and  C_4 
REMARK       I    between atoms: C_4  and  N_5 
REMARK    3  A    between atoms: C_8  and  N_9 
REMARK       I    between atoms: N_9  and  C_10 
REMARK    4  A    between atoms: C_10  and  C_11 
REMARK    5  A    between atoms: C_12  and  C_13 
REMARK    6  A    between atoms: N_18  and  C_19 
REMARK    7  A    between atoms: C_19  and  C_20 
REMARK    8  A    between atoms: C_20  and  O_21 
ROOT
HETATM    1  C   UNL     1      25.589  44.813  51.164  1.00  0.00     0.139 C 
HETATM    2  C   UNL     1      26.443  43.577  50.789  1.00  0.00     0.145 C 
HETATM    3  N   UNL     1      26.700  42.747  51.986  1.00  0.00    -0.335 N 
HETATM    4  C   UNL     1      27.145  43.366  53.159  1.00  0.00     0.255 C 
HETATM    5  O   UNL     1      27.626  42.747  54.103  1.00  0.00    -0.267 OA
HETATM    6  C   UNL     1      26.987  44.844  53.263  1.00  0.00     0.039 A 
HETATM    7  C   UNL     1      26.217  45.557  52.330  1.00  0.00    -0.027 A 
HETATM    8  C   UNL     1      27.567  45.505  54.355  1.00  0.00     0.017 A 
HETATM    9  C   UNL     1      27.366  46.872  54.537  1.00  0.00     0.001 A 
HETATM   10  C   UNL     1      26.568  47.578  53.642  1.00  0.00     0.001 A 
HETATM   11  C   UNL     1      25.987  46.926  52.554  1.00  0.00     0.009 A 
ENDROOT
BRANCH   1  12
HETATM   12  C   UNL     1      25.343  45.705  49.948  1.00  0.00     0.229 C 
HETATM   13  N   UNL     1      24.025  46.019  49.676  1.00  0.00    -0.356 N 
HETATM   14  H   UNL     1      23.301  45.478  50.131  1.00  0.00     0.162 HD
HETATM   15  O   UNL     1      26.274  46.079  49.235  1.00  0.00    -0.273 OA
BRANCH  13  16
HETATM   16  C   UNL     1      23.664  46.771  48.475  1.00  0.00     0.087 C 
HETATM   17  C   UNL     1      22.282  46.352  47.949  1.00  0.00     0.045 C 
HETATM   18  C   UNL     1      21.154  46.902  48.815  1.00  0.00     0.130 C 
HETATM   19  N   UNL     1      21.296  48.341  48.985  1.00  0.00    -0.328 N 
HETATM   20  C   UNL     1      20.258  49.185  48.631  1.00  0.00     0.362 C 
HETATM   21  C   UNL     1      22.562  48.797  49.548  1.00  0.00     0.130 C 
HETATM   22  O   UNL     1      19.180  48.795  48.197  1.00  0.00    -0.238 OA
HETATM   23  C   UNL     1      23.736  48.284  48.720  1.00  0.00     0.045 C 
BRANCH  20  24
HETATM   24  O   UNL     1      20.573  50.495  48.808  1.00  0.00    -0.304 OA
BRANCH  24  25
HETATM   25  C   UNL     1      19.848  51.190  49.834  1.00  0.00     0.176 C 
HETATM   26  C   UNL     1      18.875  52.169  49.206  1.00  0.00     0.034 C 
ENDBRANCH  24  25
ENDBRANCH  20  24
ENDBRANCH  13  16
ENDBRANCH   1  12
BRANCH   2  27
HETATM   27  C   UNL     1      25.811  42.795  49.656  1.00  0.00     0.006 A 
HETATM   28  S   UNL     1      24.138  42.393  49.744  1.00  0.00    -0.104 SA
HETATM   29  C   UNL     1      24.187  41.571  48.249  1.00  0.00     0.050 A 
HETATM   30  C   UNL     1      25.446  41.586  47.692  1.00  0.00     0.008 A 
HETATM   31  C   UNL     1      26.384  42.287  48.505  1.00  0.00     0.017 A 
ENDBRANCH   2  27
BRANCH   3  32
HETATM   32  C   UNL     1      26.887  41.289  51.908  1.00  0.00     0.153 C 
BRANCH  32  33
HETATM   33  C   UNL     1      28.269  40.926  51.353  1.00  0.00     0.187 C 
BRANCH  33  34
HETATM   34  O   UNL     1      28.204  39.679  50.660  1.00  0.00    -0.394 OA
HETATM   35  C   UNL     1      28.741  39.793  49.348  1.00  0.00     0.201 C 
ENDBRANCH  33  34
ENDBRANCH  32  33
ENDBRANCH   3  32
TORSDOF 8
ENDMDL
MODEL 6
REMARK VINA RESULT:      -6.8      3.231      5.067
REMARK  8 active torsions:
REMARK  status: ('A' for Active; 'I' for Inactive)
REMARK    1  A    between atoms: C_2  and  O_3 
REMARK    2  A    between atoms: O_3  and  C_4 
REMARK       I    between atoms: C_4  and  N_5 
REMARK    3  A    between atoms: C_8  and  N_9 
REMARK       I    between atoms: N_9  and  C_10 
REMARK    4  A    between atoms: C_10  and  C_11 
REMARK    5  A    between atoms: C_12  and  C_13 
REMARK    6  A    between atoms: N_18  and  C_19 
REMARK    7  A    between atoms: C_19  and  C_20 
REMARK    8  A    between atoms: C_20  and  O_21 
ROOT
HETATM    1  C   UNL     1      24.120  44.959  48.822  1.00  0.00     0.139 C 
HETATM    2  C   UNL     1      22.778  45.716  48.664  1.00  0.00     0.145 C 
HETATM    3  N   UNL     1      23.005  47.178  48.703  1.00  0.00    -0.335 N 
HETATM    4  C   UNL     1      23.803  47.714  49.718  1.00  0.00     0.255 C 
HETATM    5  O   UNL     1      23.836  48.912  49.983  1.00  0.00    -0.267 OA
HETATM    6  C   UNL     1      24.676  46.777  50.479  1.00  0.00     0.039 A 
HETATM    7  C   UNL     1      24.866  45.455  50.049  1.00  0.00    -0.027 A 
HETATM    8  C   UNL     1      25.363  47.262  51.601  1.00  0.00     0.017 A 
HETATM    9  C   UNL     1      26.257  46.442  52.287  1.00  0.00     0.001 A 
HETATM   10  C   UNL     1      26.485  45.144  51.841  1.00  0.00     0.001 A 
HETATM   11  C   UNL     1      25.806  44.656  50.724  1.00  0.00     0.009 A 
ENDROOT
BRANCH   1  12
HETATM   12  C   UNL     1      23.904  43.446  48.824  1.00  0.00     0.229 C 
HETATM   13  N   UNL     1      24.789  42.702  48.066  1.00  0.00    -0.356 N 
HETATM   14  H   UNL     1      25.365  43.187  47.390  1.00  0.00     0.162 HD
HETATM   15  O   UNL     1      22.964  42.939  49.434  1.00  0.00    -0.273 OA
BRANCH  13  16
HETATM   16  C   UNL     1      24.610  41.259  47.903  1.00  0.00     0.087 C 
HETATM   17  C   UNL     1      25.176  40.776  46.560  1.00  0.00     0.045 C 
HETATM   18  C   UNL     1      26.701  40.738  46.566  1.00  0.00     0.130 C 
HETATM   19  N   UNL     1      27.187  39.976  47.707  1.00  0.00    -0.328 N 
HETATM   20  C   UNL     1      28.033  38.899  47.509  1.00  0.00     0.362 C 
HETATM   21  C   UNL     1      26.740  40.431  49.019  1.00  0.00     0.130 C 
HETATM   22  O   UNL     1      28.439  38.544  46.408  1.00  0.00    -0.238 OA
HETATM   23  C   UNL     1      25.217  40.485  49.080  1.00  0.00     0.045 C 
BRANCH  20  24
HETATM   24  O   UNL     1      28.353  38.270  48.671  1.00  0.00    -0.304 OA
BRANCH  24  25
HETATM   25  C   UNL     1      29.753  38.138  48.957  1.00  0.00     0.176 C 
HETATM   26  C   UNL     1      29.956  37.901  50.440  1.00  0.00     0.034 C 
ENDBRANCH  24  25
ENDBRANCH  20  24
ENDBRANCH  13  16
ENDBRANCH   1  12
BRANCH   2  27
HETATM   27  C   UNL     1      22.037  45.270  47.421  1.00  0.00     0.006 A 
HETATM   28  S   UNL     1      20.376  44.833  47.544  1.00  0.00    -0.104 SA
HETATM   29  C   UNL     1      20.280  44.461  45.881  1.00  0.00     0.050 A 
HETATM   30  C   UNL     1      21.482  44.651  45.239  1.00  0.00     0.008 A 
HETATM   31  C   UNL     1      22.498  45.112  46.126  1.00  0.00     0.017 A 
ENDBRANCH   2  27
BRANCH   3  32
HETATM   32  C   UNL     1      22.142  48.128  47.982  1.00  0.00     0.153 C 
BRANCH  32  33
HETATM   33  C   UNL     1      20.839  48.397  48.744  1.00  0.00     0.187 C 
BRANCH  33  34
HETATM   34  O   UNL     1      20.789  49.764  49.156  1.00  0.00    -0.394 OA
HETATM   35  C   UNL     1      19.522  50.083  49.719  1.00  0.00     0.201 C 
ENDBRANCH  33  34
ENDBRANCH  32  33
ENDBRANCH   3  32
TORSDOF 8
ENDMDL
MODEL 7
REMARK VINA RESULT:      -6.8     11.680     14.175
REMARK  8 active torsions:
REMARK  status: ('A' for Active; 'I' for Inactive)
REMARK    1  A    between atoms: C_2  and  O_3 
REMARK    2  A    between atoms: O_3  and  C_4 
REMARK       I    between atoms: C_4  and  N_5 
REMARK    3  A    between atoms: C_8  and  N_9 
REMARK       I    between atoms: N_9  and  C_10 
REMARK    4  A    between atoms: C_10  and  C_11 
REMARK    5  A    between atoms: C_12  and  C_13 
REMARK    6  A    between atoms: N_18  and  C_19 
REMARK    7  A    between atoms: C_19  and  C_20 
REMARK    8  A    between atoms: C_20  and  O_21 
ROOT
HETATM    1  C   UNL     1      27.694  47.243  39.982  1.00  0.00     0.139 C 
HETATM    2  C   UNL     1      26.828  48.218  39.148  1.00  0.00     0.145 C 
HETATM    3  N   UNL     1      25.401  48.079  39.513  1.00  0.00    -0.335 N 
HETATM    4  C   UNL     1      24.841  46.799  39.587  1.00  0.00     0.255 C 
HETATM    5  O   UNL     1      23.631  46.598  39.625  1.00  0.00    -0.267 OA
HETATM    6  C   UNL     1      25.773  45.640  39.662  1.00  0.00     0.039 A 
HETATM    7  C   UNL     1      27.147  45.829  39.881  1.00  0.00    -0.027 A 
HETATM    8  C   UNL     1      25.241  44.345  39.577  1.00  0.00     0.017 A 
HETATM    9  C   UNL     1      26.068  43.234  39.731  1.00  0.00     0.001 A 
HETATM   10  C   UNL     1      27.423  43.412  39.993  1.00  0.00     0.001 A 
HETATM   11  C   UNL     1      27.958  44.698  40.080  1.00  0.00     0.009 A 
ENDROOT
BRANCH   1  12
HETATM   12  C   UNL     1      29.169  47.342  39.593  1.00  0.00     0.229 C 
HETATM   13  N   UNL     1      30.033  47.783  40.578  1.00  0.00    -0.356 N 
HETATM   14  H   UNL     1      29.637  48.225  41.398  1.00  0.00     0.162 HD
HETATM   15  O   UNL     1      29.544  47.082  38.451  1.00  0.00    -0.273 OA
BRANCH  13  16
HETATM   16  C   UNL     1      31.445  48.025  40.286  1.00  0.00     0.087 C 
HETATM   17  C   UNL     1      31.630  49.296  39.443  1.00  0.00     0.045 C 
HETATM   18  C   UNL     1      31.429  50.561  40.270  1.00  0.00     0.130 C 
HETATM   19  N   UNL     1      32.266  50.530  41.461  1.00  0.00    -0.328 N 
HETATM   20  C   UNL     1      33.156  51.561  41.707  1.00  0.00     0.362 C 
HETATM   21  C   UNL     1      32.085  49.381  42.340  1.00  0.00     0.130 C 
HETATM   22  O   UNL     1      33.276  52.545  40.988  1.00  0.00    -0.238 OA
HETATM   23  C   UNL     1      32.280  48.078  41.572  1.00  0.00     0.045 C 
BRANCH  20  24
HETATM   24  O   UNL     1      33.891  51.352  42.832  1.00  0.00    -0.304 OA
BRANCH  24  25
HETATM   25  C   UNL     1      35.308  51.549  42.709  1.00  0.00     0.176 C 
HETATM   26  C   UNL     1      35.942  50.336  42.057  1.00  0.00     0.034 C 
ENDBRANCH  24  25
ENDBRANCH  20  24
ENDBRANCH  13  16
ENDBRANCH   1  12
BRANCH   2  27
HETATM   27  C   UNL     1      27.330  49.642  39.271  1.00  0.00     0.006 A 
HETATM   28  S   UNL     1      27.480  50.348  40.834  1.00  0.00    -0.104 SA
HETATM   29  C   UNL     1      28.029  51.829  40.187  1.00  0.00     0.050 A 
HETATM   30  C   UNL     1      28.089  51.802  38.813  1.00  0.00     0.008 A 
HETATM   31  C   UNL     1      27.682  50.543  38.283  1.00  0.00     0.017 A 
ENDBRANCH   2  27
BRANCH   3  32
HETATM   32  C   UNL     1      24.452  49.201  39.424  1.00  0.00     0.153 C 
BRANCH  32  33
HETATM   33  C   UNL     1      24.059  49.493  37.971  1.00  0.00     0.187 C 
BRANCH  33  34
HETATM   34  O   UNL     1      22.784  50.136  37.931  1.00  0.00    -0.394 OA
HETATM   35  C   UNL     1      21.730  49.182  37.891  1.00  0.00     0.201 C 
ENDBRANCH  33  34
ENDBRANCH  32  33
ENDBRANCH   3  32
TORSDOF 8
ENDMDL
MODEL 8
REMARK VINA RESULT:      -6.7      8.198     13.095
REMARK  8 active torsions:
REMARK  status: ('A' for Active; 'I' for Inactive)
REMARK    1  A    between atoms: C_2  and  O_3 
REMARK    2  A    between atoms: O_3  and  C_4 
REMARK       I    between atoms: C_4  and  N_5 
REMARK    3  A    between atoms: C_8  and  N_9 
REMARK       I    between atoms: N_9  and  C_10 
REMARK    4  A    between atoms: C_10  and  C_11 
REMARK    5  A    between atoms: C_12  and  C_13 
REMARK    6  A    between atoms: N_18  and  C_19 
REMARK    7  A    between atoms: C_19  and  C_20 
REMARK    8  A    between atoms: C_20  and  O_21 
ROOT
HETATM    1  C   UNL     1      19.666  47.891  47.373  1.00  0.00     0.139 C 
HETATM    2  C   UNL     1      20.236  48.504  48.675  1.00  0.00     0.145 C 
HETATM    3  N   UNL     1      21.709  48.369  48.705  1.00  0.00    -0.335 N 
HETATM    4  C   UNL     1      22.283  47.129  48.404  1.00  0.00     0.255 C 
HETATM    5  O   UNL     1      23.454  46.855  48.651  1.00  0.00    -0.267 OA
HETATM    6  C   UNL     1      21.429  46.120  47.717  1.00  0.00     0.039 A 
HETATM    7  C   UNL     1      20.178  46.472  47.186  1.00  0.00    -0.027 A 
HETATM    8  C   UNL     1      21.930  44.822  47.548  1.00  0.00     0.017 A 
HETATM    9  C   UNL     1      21.200  43.874  46.833  1.00  0.00     0.001 A 
HETATM   10  C   UNL     1      19.979  44.227  46.266  1.00  0.00     0.001 A 
HETATM   11  C   UNL     1      19.476  45.518  46.429  1.00  0.00     0.009 A 
ENDROOT
BRANCH   1  12
HETATM   12  C   UNL     1      18.141  47.984  47.338  1.00  0.00     0.229 C 
HETATM   13  N   UNL     1      17.598  48.762  46.332  1.00  0.00    -0.356 N 
HETATM   14  H   UNL     1      18.212  49.393  45.832  1.00  0.00     0.162 HD
HETATM   15  O   UNL     1      17.450  47.430  48.192  1.00  0.00    -0.273 OA
BRANCH  13  16
HETATM   16  C   UNL     1      16.159  49.015  46.271  1.00  0.00     0.087 C 
HETATM   17  C   UNL     1      15.695  49.880  47.452  1.00  0.00     0.045 C 
HETATM   18  C   UNL     1      16.112  51.338  47.288  1.00  0.00     0.130 C 
HETATM   19  N   UNL     1      15.682  51.848  45.994  1.00  0.00    -0.328 N 
HETATM   20  C   UNL     1      14.888  52.979  45.926  1.00  0.00     0.362 C 
HETATM   21  C   UNL     1      16.151  51.109  44.827  1.00  0.00     0.130 C 
HETATM   22  O   UNL     1      14.529  53.621  46.906  1.00  0.00    -0.238 OA
HETATM   23  C   UNL     1      15.759  49.638  44.928  1.00  0.00     0.045 C 
BRANCH  20  24
HETATM   24  O   UNL     1      14.538  53.290  44.649  1.00  0.00    -0.304 OA
BRANCH  24  25
HETATM   25  C   UNL     1      14.742  54.654  44.250  1.00  0.00     0.176 C 
HETATM   26  C   UNL     1      15.594  54.702  42.997  1.00  0.00     0.034 C 
ENDBRANCH  24  25
ENDBRANCH  20  24
ENDBRANCH  13  16
ENDBRANCH   1  12
BRANCH   2  27
HETATM   27  C   UNL     1      19.774  49.935  48.857  1.00  0.00     0.006 A 
HETATM   28  S   UNL     1      18.856  50.349  50.254  1.00  0.00    -0.104 SA
HETATM   29  C   UNL     1      18.713  51.977  49.762  1.00  0.00     0.050 A 
HETATM   30  C   UNL     1      19.337  52.208  48.557  1.00  0.00     0.008 A 
HETATM   31  C   UNL     1      19.945  51.031  48.032  1.00  0.00     0.017 A 
ENDBRANCH   2  27
BRANCH   3  32
HETATM   32  C   UNL     1      22.575  49.337  49.398  1.00  0.00     0.153 C 
BRANCH  32  33
HETATM   33  C   UNL     1      23.537  50.029  48.426  1.00  0.00     0.187 C 
BRANCH  33  34
HETATM   34  O   UNL     1      24.849  50.076  48.990  1.00  0.00    -0.394 OA
HETATM   35  C   UNL     1      25.844  49.915  47.986  1.00  0.00     0.201 C 
ENDBRANCH  33  34
ENDBRANCH  32  33
ENDBRANCH   3  32
TORSDOF 8
ENDMDL
MODEL 9
REMARK VINA RESULT:      -6.7     11.772     15.055
REMARK  8 active torsions:
REMARK  status: ('A' for Active; 'I' for Inactive)
REMARK    1  A    between atoms: C_2  and  O_3 
REMARK    2  A    between atoms: O_3  and  C_4 
REMARK       I    between atoms: C_4  and  N_5 
REMARK    3  A    between atoms: C_8  and  N_9 
REMARK       I    between atoms: N_9  and  C_10 
REMARK    4  A    between atoms: C_10  and  C_11 
REMARK    5  A    between atoms: C_12  and  C_13 
REMARK    6  A    between atoms: N_18  and  C_19 
REMARK    7  A    between atoms: C_19  and  C_20 
REMARK    8  A    between atoms: C_20  and  O_21 
ROOT
HETATM    1  C   UNL     1      26.717  48.933  39.318  1.00  0.00     0.139 C 
HETATM    2  C   UNL     1      27.225  48.061  40.492  1.00  0.00     0.145 C 
HETATM    3  N   UNL     1      26.672  46.692  40.392  1.00  0.00    -0.335 N 
HETATM    4  C   UNL     1      25.303  46.528  40.159  1.00  0.00     0.255 C 
HETATM    5  O   UNL     1      24.719  45.460  40.317  1.00  0.00    -0.267 OA
HETATM    6  C   UNL     1      24.540  47.707  39.660  1.00  0.00     0.039 A 
HETATM    7  C   UNL     1      25.203  48.864  39.222  1.00  0.00    -0.027 A 
HETATM    8  C   UNL     1      23.144  47.613  39.572  1.00  0.00     0.017 A 
HETATM    9  C   UNL     1      22.403  48.660  39.028  1.00  0.00     0.001 A 
HETATM   10  C   UNL     1      23.055  49.793  38.550  1.00  0.00     0.001 A 
HETATM   11  C   UNL     1      24.444  49.892  38.634  1.00  0.00     0.009 A 
ENDROOT
BRANCH   1  12
HETATM   12  C   UNL     1      27.245  50.363  39.423  1.00  0.00     0.229 C 
HETATM   13  N   UNL     1      28.095  50.777  38.414  1.00  0.00    -0.356 N 
HETATM   14  H   UNL     1      28.496  50.073  37.808  1.00  0.00     0.162 HD
HETATM   15  O   UNL     1      26.957  51.079  40.381  1.00  0.00    -0.273 OA
BRANCH  13  16
HETATM   16  C   UNL     1      28.749  52.084  38.471  1.00  0.00     0.087 C 
HETATM   17  C   UNL     1      29.108  52.464  39.915  1.00  0.00     0.045 C 
HETATM   18  C   UNL     1      30.307  51.673  40.430  1.00  0.00     0.130 C 
HETATM   19  N   UNL     1      31.426  51.786  39.507  1.00  0.00    -0.328 N 
HETATM   20  C   UNL     1      32.650  52.251  39.957  1.00  0.00     0.362 C 
HETATM   21  C   UNL     1      31.167  51.371  38.132  1.00  0.00     0.130 C 
HETATM   22  O   UNL     1      32.876  52.560  41.121  1.00  0.00    -0.238 OA
HETATM   23  C   UNL     1      29.979  52.133  37.555  1.00  0.00     0.045 C 
BRANCH  20  24
HETATM   24  O   UNL     1      33.569  52.339  38.959  1.00  0.00    -0.304 OA
BRANCH  24  25
HETATM   25  C   UNL     1      34.892  52.736  39.349  1.00  0.00     0.176 C 
HETATM   26  C   UNL     1      35.863  51.596  39.114  1.00  0.00     0.034 C 
ENDBRANCH  24  25
ENDBRANCH  20  24
ENDBRANCH  13  16
ENDBRANCH   1  12
BRANCH   2  27
HETATM   27  C   UNL     1      28.737  48.079  40.577  1.00  0.00     0.006 A 
HETATM   28  S   UNL     1      29.489  48.540  42.056  1.00  0.00    -0.104 SA
HETATM   29  C   UNL     1      31.053  48.347  41.400  1.00  0.00     0.050 A 
HETATM   30  C   UNL     1      31.015  47.951  40.083  1.00  0.00     0.008 A 
HETATM   31  C   UNL     1      29.681  47.800  39.606  1.00  0.00     0.017 A 
ENDBRANCH   2  27
BRANCH   3  32
HETATM   32  C   UNL     1      27.392  45.512  40.899  1.00  0.00     0.153 C 
BRANCH  32  33
HETATM   33  C   UNL     1      27.712  44.521  39.775  1.00  0.00     0.187 C 
BRANCH  33  34
HETATM   34  O   UNL     1      29.125  44.328  39.683  1.00  0.00    -0.394 OA
HETATM   35  C   UNL     1      29.547  44.272  38.326  1.00  0.00     0.201 C 
ENDBRANCH  33  34
ENDBRANCH  32  33
ENDBRANCH   3  32
TORSDOF 8
ENDMDL
MODEL 10
REMARK VINA RESULT:      -6.7      9.588     14.003
REMARK  8 active torsions:
REMARK  status: ('A' for Active; 'I' for Inactive)
REMARK    1  A    between atoms: C_2  and  O_3 
REMARK    2  A    between atoms: O_3  and  C_4 
REMARK       I    between atoms: C_4  and  N_5 
REMARK    3  A    between atoms: C_8  and  N_9 
REMARK       I    between atoms: N_9  and  C_10 
REMARK    4  A    between atoms: C_10  and  C_11 
REMARK    5  A    between atoms: C_12  and  C_13 
REMARK    6  A    between atoms: N_18  and  C_19 
REMARK    7  A    between atoms: C_19  and  C_20 
REMARK    8  A    between atoms: C_20  and  O_21 
ROOT
HETATM    1  C   UNL     1      17.161  49.052  48.389  1.00  0.00     0.139 C 
HETATM    2  C   UNL     1      18.616  48.826  47.911  1.00  0.00     0.145 C 
HETATM    3  N   UNL     1      19.572  49.226  48.967  1.00  0.00    -0.335 N 
HETATM    4  C   UNL     1      19.406  50.461  49.602  1.00  0.00     0.255 C 
HETATM    5  O   UNL     1      20.277  50.984  50.290  1.00  0.00    -0.267 OA
HETATM    6  C   UNL     1      18.088  51.141  49.456  1.00  0.00     0.039 A 
HETATM    7  C   UNL     1      16.986  50.472  48.902  1.00  0.00    -0.027 A 
HETATM    8  C   UNL     1      17.950  52.447  49.947  1.00  0.00     0.017 A 
HETATM    9  C   UNL     1      16.712  53.085  49.910  1.00  0.00     0.001 A 
HETATM   10  C   UNL     1      15.604  52.413  49.403  1.00  0.00     0.001 A 
HETATM   11  C   UNL     1      15.735  51.112  48.913  1.00  0.00     0.009 A 
ENDROOT
BRANCH   1  12
HETATM   12  C   UNL     1      16.157  48.683  47.298  1.00  0.00     0.229 C 
HETATM   13  N   UNL     1      16.308  49.328  46.084  1.00  0.00    -0.356 N 
HETATM   14  H   UNL     1      16.900  50.148  46.049  1.00  0.00     0.162 HD
HETATM   15  O   UNL     1      15.245  47.887  47.516  1.00  0.00    -0.273 OA
BRANCH  13  16
HETATM   16  C   UNL     1      15.338  49.138  45.006  1.00  0.00     0.087 C 
HETATM   17  C   UNL     1      14.190  50.153  45.105  1.00  0.00     0.045 C 
HETATM   18  C   UNL     1      14.626  51.548  44.669  1.00  0.00     0.130 C 
HETATM   19  N   UNL     1      15.246  51.501  43.353  1.00  0.00    -0.328 N 
HETATM   20  C   UNL     1      14.753  52.289  42.328  1.00  0.00     0.362 C 
HETATM   21  C   UNL     1      16.390  50.606  43.216  1.00  0.00     0.130 C 
HETATM   22  O   UNL     1      13.818  53.071  42.457  1.00  0.00    -0.238 OA
HETATM   23  C   UNL     1      16.015  49.187  43.631  1.00  0.00     0.045 C 
BRANCH  20  24
HETATM   24  O   UNL     1      15.413  52.089  41.156  1.00  0.00    -0.304 OA
BRANCH  24  25
HETATM   25  C   UNL     1      16.003  53.250  40.554  1.00  0.00     0.176 C 
HETATM   26  C   UNL     1      17.382  53.489  41.136  1.00  0.00     0.034 C 
ENDBRANCH  24  25
ENDBRANCH  20  24
ENDBRANCH  13  16
ENDBRANCH   1  12
BRANCH   2  27
HETATM   27  C   UNL     1      18.826  47.403  47.437  1.00  0.00     0.006 A 
HETATM   28  S   UNL     1      19.397  47.126  45.836  1.00  0.00    -0.104 SA
HETATM   29  C   UNL     1      19.352  45.432  46.041  1.00  0.00     0.050 A 
HETATM   30  C   UNL     1      18.904  45.074  47.292  1.00  0.00     0.008 A 
HETATM   31  C   UNL     1      18.595  46.209  48.096  1.00  0.00     0.017 A 
ENDBRANCH   2  27
BRANCH   3  32
HETATM   32  C   UNL     1      20.891  48.588  49.118  1.00  0.00     0.153 C 
BRANCH  32  33
HETATM   33  C   UNL     1      21.870  49.055  48.035  1.00  0.00     0.187 C 
BRANCH  33  34
HETATM   34  O   UNL     1      22.766  47.994  47.698  1.00  0.00    -0.394 OA
HETATM   35  C   UNL     1      22.334  46.761  48.261  1.00  0.00     0.201 C 
ENDBRANCH  33  34
ENDBRANCH  32  33
ENDBRANCH   3  32
TORSDOF 8
ENDMDL
