MODEL 1
REMARK VINA RESULT:      -9.7      0.000      0.000
REMARK  6 active torsions:
REMARK  status: ('A' for Active; 'I' for Inactive)
REMARK    1  A    between atoms: C_4  and  C_5 
REMARK    2  A    between atoms: C_9  and  C_10 
REMARK       I    between atoms: C_10  and  N_11 
REMARK    3  A    between atoms: N_11  and  C_12 
REMARK    4  A    between atoms: C_12  and  C_13 
REMARK    5  A    between atoms: C_13  and  N_14 
REMARK    6  A    between atoms: C_13  and  C_18 
ROOT
HETATM    1  C   UNL     1      24.416  47.207  50.012  1.00  0.00     0.092 A 
HETATM    2  N   UNL     1      24.100  46.115  49.286  1.00  0.00    -0.246 NA
HETATM    3  C   UNL     1      24.345  44.898  49.789  1.00  0.00     0.069 A 
HETATM    4  C   UNL     1      24.915  44.681  51.064  1.00  0.00     0.008 A 
HETATM    5  C   UNL     1      25.178  45.848  51.830  1.00  0.00     0.046 A 
HETATM    6  C   UNL     1      24.938  47.115  51.285  1.00  0.00     0.052 A 
HETATM    7  C   UNL     1      24.027  43.809  48.988  1.00  0.00     0.032 A 
HETATM    8  C   UNL     1      24.277  42.498  49.389  1.00  0.00     0.002 A 
HETATM    9  C   UNL     1      24.874  42.262  50.616  1.00  0.00     0.001 A 
HETATM   10  C   UNL     1      25.199  43.340  51.439  1.00  0.00     0.015 A 
ENDROOT
BRANCH   5  11
HETATM   11  C   UNL     1      25.732  45.882  53.215  1.00  0.00     0.252 C 
HETATM   12  N   UNL     1      27.065  46.194  53.392  1.00  0.00    -0.355 N 
HETATM   13  H   UNL     1      27.629  46.161  52.546  1.00  0.00     0.162 HD
HETATM   14  O   UNL     1      25.015  45.571  54.159  1.00  0.00    -0.268 OA
BRANCH  12  15
HETATM   15  C   UNL     1      27.781  45.861  54.623  1.00  0.00     0.161 C 
BRANCH  15  16
HETATM   16  C   UNL     1      29.011  44.876  54.631  1.00  0.00     0.237 C 
BRANCH  16  17
HETATM   17  N   UNL     1      28.800  43.500  54.006  1.00  0.00    -0.069 N 
HETATM   18  H   UNL     1      29.476  42.905  54.497  1.00  0.00     0.279 HD
HETATM   19  C   UNL     1      27.484  42.836  54.304  1.00  0.00     0.270 C 
HETATM   20  C   UNL     1      29.212  43.402  52.566  1.00  0.00     0.270 C 
ENDBRANCH  16  17
BRANCH  16  21
HETATM   21  C   UNL     1      29.818  44.778  55.917  1.00  0.00    -0.026 A 
HETATM   22  C   UNL     1      29.630  45.748  56.921  1.00  0.00     0.009 A 
HETATM   23  C   UNL     1      30.399  45.737  58.086  1.00  0.00     0.001 A 
HETATM   24  C   UNL     1      31.373  44.761  58.267  1.00  0.00     0.000 A 
HETATM   25  C   UNL     1      31.579  43.796  57.285  1.00  0.00     0.001 A 
HETATM   26  C   UNL     1      30.811  43.807  56.117  1.00  0.00     0.009 A 
ENDBRANCH  16  21
ENDBRANCH  15  16
ENDBRANCH  12  15
ENDBRANCH   5  11
BRANCH   1  27
HETATM   27  C   UNL     1      24.193  48.481  49.345  1.00  0.00     0.104 A 
HETATM   28  O   UNL     1      22.937  49.016  49.444  1.00  0.00    -0.313 OA
HETATM   29  C   UNL     1      22.949  50.207  48.785  1.00  0.00     0.050 A 
HETATM   30  C   UNL     1      21.685  50.972  48.775  1.00  0.00     0.076 C 
HETATM   31  C   UNL     1      24.199  50.446  48.259  1.00  0.00     0.035 A 
HETATM   32  C   UNL     1      24.999  49.334  48.617  1.00  0.00     0.042 A 
ENDBRANCH   1  27
TORSDOF 6
ENDMDL
MODEL 2
REMARK VINA RESULT:      -9.5      2.178      8.278
REMARK  6 active torsions:
REMARK  status: ('A' for Active; 'I' for Inactive)
REMARK    1  A    between atoms: C_4  and  C_5 
REMARK    2  A    between atoms: C_9  and  C_10 
REMARK       I    between atoms: C_10  and  N_11 
REMARK    3  A    between atoms: N_11  and  C_12 
REMARK    4  A    between atoms: C_12  and  C_13 
REMARK    5  A    between atoms: C_13  and  N_14 
REMARK    6  A    between atoms: C_13  and  C_18 
ROOT
HETATM    1  C   UNL     1      28.627  42.535  52.966  1.00  0.00     0.092 A 
HETATM    2  N   UNL     1      29.586  42.414  53.906  1.00  0.00    -0.246 NA
HETATM    3  C   UNL     1      29.762  43.401  54.795  1.00  0.00     0.069 A 
HETATM    4  C   UNL     1      28.984  44.580  54.816  1.00  0.00     0.008 A 
HETATM    5  C   UNL     1      27.941  44.650  53.854  1.00  0.00     0.046 A 
HETATM    6  C   UNL     1      27.780  43.623  52.917  1.00  0.00     0.052 A 
HETATM    7  C   UNL     1      30.782  43.239  55.723  1.00  0.00     0.032 A 
HETATM    8  C   UNL     1      31.086  44.217  56.668  1.00  0.00     0.002 A 
HETATM    9  C   UNL     1      30.365  45.399  56.680  1.00  0.00     0.001 A 
HETATM   10  C   UNL     1      29.333  45.584  55.760  1.00  0.00     0.015 A 
ENDROOT
BRANCH   5  11
HETATM   11  C   UNL     1      26.959  45.763  53.703  1.00  0.00     0.252 C 
HETATM   12  N   UNL     1      26.046  45.711  52.669  1.00  0.00    -0.355 N 
HETATM   13  H   UNL     1      26.252  45.023  51.949  1.00  0.00     0.162 HD
HETATM   14  O   UNL     1      27.022  46.729  54.456  1.00  0.00    -0.268 OA
BRANCH  12  15
HETATM   15  C   UNL     1      25.340  46.903  52.199  1.00  0.00     0.161 C 
BRANCH  15  16
HETATM   16  C   UNL     1      24.760  47.004  50.738  1.00  0.00     0.237 C 
BRANCH  16  17
HETATM   17  N   UNL     1      24.476  45.693  50.013  1.00  0.00    -0.069 N 
HETATM   18  H   UNL     1      24.222  45.048  50.770  1.00  0.00     0.279 HD
HETATM   19  C   UNL     1      23.258  45.677  49.130  1.00  0.00     0.270 C 
HETATM   20  C   UNL     1      25.682  45.056  49.386  1.00  0.00     0.270 C 
ENDBRANCH  16  17
BRANCH  16  21
HETATM   21  C   UNL     1      25.397  48.023  49.804  1.00  0.00    -0.026 A 
HETATM   22  C   UNL     1      26.798  48.167  49.799  1.00  0.00     0.009 A 
HETATM   23  C   UNL     1      27.419  49.137  49.010  1.00  0.00     0.001 A 
HETATM   24  C   UNL     1      26.652  49.982  48.216  1.00  0.00     0.000 A 
HETATM   25  C   UNL     1      25.266  49.859  48.210  1.00  0.00     0.001 A 
HETATM   26  C   UNL     1      24.643  48.891  49.000  1.00  0.00     0.009 A 
ENDBRANCH  16  21
ENDBRANCH  15  16
ENDBRANCH  12  15
ENDBRANCH   5  11
BRANCH   1  27
HETATM   27  C   UNL     1      28.571  41.453  51.993  1.00  0.00     0.104 A 
HETATM   28  O   UNL     1      28.054  41.758  50.763  1.00  0.00    -0.313 OA
HETATM   29  C   UNL     1      28.118  40.630  50.004  1.00  0.00     0.050 A 
HETATM   30  C   UNL     1      27.620  40.735  48.617  1.00  0.00     0.076 C 
HETATM   31  C   UNL     1      28.667  39.598  50.733  1.00  0.00     0.035 A 
HETATM   32  C   UNL     1      28.956  40.127  52.014  1.00  0.00     0.042 A 
ENDBRANCH   1  27
TORSDOF 6
ENDMDL
MODEL 3
REMARK VINA RESULT:      -9.3      2.608      4.372
REMARK  6 active torsions:
REMARK  status: ('A' for Active; 'I' for Inactive)
REMARK    1  A    between atoms: C_4  and  C_5 
REMARK    2  A    between atoms: C_9  and  C_10 
REMARK       I    between atoms: C_10  and  N_11 
REMARK    3  A    between atoms: N_11  and  C_12 
REMARK    4  A    between atoms: C_12  and  C_13 
REMARK    5  A    between atoms: C_13  and  N_14 
REMARK    6  A    between atoms: C_13  and  C_18 
ROOT
HETATM    1  C   UNL     1      24.572  46.983  50.256  1.00  0.00     0.092 A 
HETATM    2  N   UNL     1      24.961  47.505  51.437  1.00  0.00    -0.246 NA
HETATM    3  C   UNL     1      25.672  46.751  52.286  1.00  0.00     0.069 A 
HETATM    4  C   UNL     1      26.057  45.419  52.012  1.00  0.00     0.008 A 
HETATM    5  C   UNL     1      25.687  44.919  50.735  1.00  0.00     0.046 A 
HETATM    6  C   UNL     1      24.926  45.709  49.865  1.00  0.00     0.052 A 
HETATM    7  C   UNL     1      26.022  47.328  53.500  1.00  0.00     0.032 A 
HETATM    8  C   UNL     1      26.724  46.625  54.478  1.00  0.00     0.002 A 
HETATM    9  C   UNL     1      27.074  45.306  54.249  1.00  0.00     0.001 A 
HETATM   10  C   UNL     1      26.737  44.706  53.036  1.00  0.00     0.015 A 
ENDROOT
BRANCH   5  11
HETATM   11  C   UNL     1      26.014  43.568  50.193  1.00  0.00     0.252 C 
HETATM   12  N   UNL     1      25.414  42.460  50.757  1.00  0.00    -0.355 N 
HETATM   13  H   UNL     1      24.959  42.629  51.652  1.00  0.00     0.162 HD
HETATM   14  O   UNL     1      26.853  43.461  49.305  1.00  0.00    -0.268 OA
BRANCH  12  15
HETATM   15  C   UNL     1      25.959  41.114  50.587  1.00  0.00     0.161 C 
BRANCH  15  16
HETATM   16  C   UNL     1      27.482  40.795  50.828  1.00  0.00     0.237 C 
BRANCH  16  17
HETATM   17  N   UNL     1      27.911  39.335  50.713  1.00  0.00    -0.069 N 
HETATM   18  H   UNL     1      27.599  38.922  51.600  1.00  0.00     0.279 HD
HETATM   19  C   UNL     1      27.186  38.514  49.682  1.00  0.00     0.270 C 
HETATM   20  C   UNL     1      29.397  39.121  50.717  1.00  0.00     0.270 C 
ENDBRANCH  16  17
BRANCH  16  21
HETATM   21  C   UNL     1      28.159  41.476  52.008  1.00  0.00    -0.026 A 
HETATM   22  C   UNL     1      29.163  42.434  51.763  1.00  0.00     0.009 A 
HETATM   23  C   UNL     1      29.859  43.031  52.816  1.00  0.00     0.001 A 
HETATM   24  C   UNL     1      29.568  42.680  54.130  1.00  0.00     0.000 A 
HETATM   25  C   UNL     1      28.584  41.733  54.392  1.00  0.00     0.001 A 
HETATM   26  C   UNL     1      27.888  41.132  53.340  1.00  0.00     0.009 A 
ENDBRANCH  16  21
ENDBRANCH  15  16
ENDBRANCH  12  15
ENDBRANCH   5  11
BRANCH   1  27
HETATM   27  C   UNL     1      23.731  47.848  49.442  1.00  0.00     0.104 A 
HETATM   28  O   UNL     1      23.904  49.197  49.597  1.00  0.00    -0.313 OA
HETATM   29  C   UNL     1      23.053  49.819  48.734  1.00  0.00     0.050 A 
HETATM   30  C   UNL     1      23.083  51.296  48.724  1.00  0.00     0.076 C 
HETATM   31  C   UNL     1      22.330  48.885  48.027  1.00  0.00     0.035 A 
HETATM   32  C   UNL     1      22.764  47.617  48.484  1.00  0.00     0.042 A 
ENDBRANCH   1  27
TORSDOF 6
ENDMDL
MODEL 4
REMARK VINA RESULT:      -8.9      1.984      8.737
REMARK  6 active torsions:
REMARK  status: ('A' for Active; 'I' for Inactive)
REMARK    1  A    between atoms: C_4  and  C_5 
REMARK    2  A    between atoms: C_9  and  C_10 
REMARK       I    between atoms: C_10  and  N_11 
REMARK    3  A    between atoms: N_11  and  C_12 
REMARK    4  A    between atoms: C_12  and  C_13 
REMARK    5  A    between atoms: C_13  and  N_14 
REMARK    6  A    between atoms: C_13  and  C_18 
ROOT
HETATM    1  C   UNL     1      28.364  44.047  53.667  1.00  0.00     0.092 A 
HETATM    2  N   UNL     1      28.724  42.853  53.153  1.00  0.00    -0.246 NA
HETATM    3  C   UNL     1      27.997  42.318  52.164  1.00  0.00     0.069 A 
HETATM    4  C   UNL     1      26.858  42.942  51.607  1.00  0.00     0.008 A 
HETATM    5  C   UNL     1      26.541  44.226  52.126  1.00  0.00     0.046 A 
HETATM    6  C   UNL     1      27.296  44.766  53.173  1.00  0.00     0.052 A 
HETATM    7  C   UNL     1      28.394  41.074  51.691  1.00  0.00     0.032 A 
HETATM    8  C   UNL     1      27.690  40.401  50.694  1.00  0.00     0.002 A 
HETATM    9  C   UNL     1      26.546  40.974  50.164  1.00  0.00     0.001 A 
HETATM   10  C   UNL     1      26.129  42.224  50.620  1.00  0.00     0.015 A 
ENDROOT
BRANCH   5  11
HETATM   11  C   UNL     1      25.421  45.103  51.674  1.00  0.00     0.252 C 
HETATM   12  N   UNL     1      25.703  46.170  50.845  1.00  0.00    -0.355 N 
HETATM   13  H   UNL     1      26.689  46.412  50.779  1.00  0.00     0.162 HD
HETATM   14  O   UNL     1      24.289  44.901  52.098  1.00  0.00    -0.268 OA
BRANCH  12  15
HETATM   15  C   UNL     1      24.779  47.293  50.686  1.00  0.00     0.161 C 
BRANCH  15  16
HETATM   16  C   UNL     1      24.736  48.155  49.369  1.00  0.00     0.237 C 
BRANCH  16  17
HETATM   17  N   UNL     1      25.922  49.078  49.107  1.00  0.00    -0.069 N 
HETATM   18  H   UNL     1      25.891  49.740  49.890  1.00  0.00     0.279 HD
HETATM   19  C   UNL     1      27.284  48.455  49.241  1.00  0.00     0.270 C 
HETATM   20  C   UNL     1      25.774  49.949  47.893  1.00  0.00     0.270 C 
ENDBRANCH  16  17
BRANCH  16  21
HETATM   21  C   UNL     1      23.420  48.839  49.026  1.00  0.00    -0.026 A 
HETATM   22  C   UNL     1      22.548  48.226  48.104  1.00  0.00     0.009 A 
HETATM   23  C   UNL     1      21.365  48.851  47.708  1.00  0.00     0.001 A 
HETATM   24  C   UNL     1      21.033  50.101  48.221  1.00  0.00     0.000 A 
HETATM   25  C   UNL     1      21.883  50.725  49.129  1.00  0.00     0.001 A 
HETATM   26  C   UNL     1      23.069  50.102  49.525  1.00  0.00     0.009 A 
ENDBRANCH  16  21
ENDBRANCH  15  16
ENDBRANCH  12  15
ENDBRANCH   5  11
BRANCH   1  27
HETATM   27  C   UNL     1      29.163  44.504  54.795  1.00  0.00     0.104 A 
HETATM   28  O   UNL     1      30.087  43.624  55.290  1.00  0.00    -0.313 OA
HETATM   29  C   UNL     1      30.740  44.249  56.309  1.00  0.00     0.050 A 
HETATM   30  C   UNL     1      31.803  43.479  56.987  1.00  0.00     0.076 C 
HETATM   31  C   UNL     1      30.243  45.522  56.479  1.00  0.00     0.035 A 
HETATM   32  C   UNL     1      29.227  45.685  55.506  1.00  0.00     0.042 A 
ENDBRANCH   1  27
TORSDOF 6
ENDMDL
MODEL 5
REMARK VINA RESULT:      -8.9      2.935      8.506
REMARK  6 active torsions:
REMARK  status: ('A' for Active; 'I' for Inactive)
REMARK    1  A    between atoms: C_4  and  C_5 
REMARK    2  A    between atoms: C_9  and  C_10 
REMARK       I    between atoms: C_10  and  N_11 
REMARK    3  A    between atoms: N_11  and  C_12 
REMARK    4  A    between atoms: C_12  and  C_13 
REMARK    5  A    between atoms: C_13  and  N_14 
REMARK    6  A    between atoms: C_13  and  C_18 
ROOT
HETATM    1  C   UNL     1      27.462  41.961  50.944  1.00  0.00     0.092 A 
HETATM    2  N   UNL     1      28.130  42.422  52.021  1.00  0.00    -0.246 NA
HETATM    3  C   UNL     1      27.697  43.529  52.638  1.00  0.00     0.069 A 
HETATM    4  C   UNL     1      26.554  44.253  52.230  1.00  0.00     0.008 A 
HETATM    5  C   UNL     1      25.836  43.708  51.132  1.00  0.00     0.046 A 
HETATM    6  C   UNL     1      26.310  42.563  50.482  1.00  0.00     0.052 A 
HETATM    7  C   UNL     1      28.438  43.976  53.724  1.00  0.00     0.032 A 
HETATM    8  C   UNL     1      28.108  45.139  54.417  1.00  0.00     0.002 A 
HETATM    9  C   UNL     1      27.018  45.889  54.009  1.00  0.00     0.001 A 
HETATM   10  C   UNL     1      26.256  45.458  52.923  1.00  0.00     0.015 A 
ENDROOT
BRANCH   5  11
HETATM   11  C   UNL     1      24.579  44.258  50.546  1.00  0.00     0.252 C 
HETATM   12  N   UNL     1      24.663  45.311  49.658  1.00  0.00    -0.355 N 
HETATM   13  H   UNL     1      25.564  45.783  49.636  1.00  0.00     0.162 HD
HETATM   14  O   UNL     1      23.498  43.811  50.911  1.00  0.00    -0.268 OA
BRANCH  12  15
HETATM   15  C   UNL     1      23.513  46.164  49.357  1.00  0.00     0.161 C 
BRANCH  15  16
HETATM   16  C   UNL     1      23.602  47.735  49.421  1.00  0.00     0.237 C 
BRANCH  16  17
HETATM   17  N   UNL     1      22.573  48.521  48.615  1.00  0.00    -0.069 N 
HETATM   18  H   UNL     1      23.145  49.144  48.035  1.00  0.00     0.279 HD
HETATM   19  C   UNL     1      21.791  47.734  47.599  1.00  0.00     0.270 C 
HETATM   20  C   UNL     1      21.729  49.458  49.429  1.00  0.00     0.270 C 
ENDBRANCH  16  17
BRANCH  16  21
HETATM   21  C   UNL     1      24.985  48.360  49.306  1.00  0.00    -0.026 A 
HETATM   22  C   UNL     1      25.170  49.462  48.447  1.00  0.00     0.009 A 
HETATM   23  C   UNL     1      26.435  50.022  48.257  1.00  0.00     0.001 A 
HETATM   24  C   UNL     1      27.537  49.489  48.918  1.00  0.00     0.000 A 
HETATM   25  C   UNL     1      27.376  48.399  49.767  1.00  0.00     0.001 A 
HETATM   26  C   UNL     1      26.111  47.836  49.956  1.00  0.00     0.009 A 
ENDBRANCH  16  21
ENDBRANCH  15  16
ENDBRANCH  12  15
ENDBRANCH   5  11
BRANCH   1  27
HETATM   27  C   UNL     1      28.059  40.805  50.290  1.00  0.00     0.104 A 
HETATM   28  O   UNL     1      28.721  39.918  51.096  1.00  0.00    -0.313 OA
HETATM   29  C   UNL     1      29.173  38.908  50.302  1.00  0.00     0.050 A 
HETATM   30  C   UNL     1      29.914  37.819  50.973  1.00  0.00     0.076 C 
HETATM   31  C   UNL     1      28.813  39.136  48.992  1.00  0.00     0.035 A 
HETATM   32  C   UNL     1      28.098  40.358  48.985  1.00  0.00     0.042 A 
ENDBRANCH   1  27
TORSDOF 6
ENDMDL
MODEL 6
REMARK VINA RESULT:      -8.8      2.432      4.634
REMARK  6 active torsions:
REMARK  status: ('A' for Active; 'I' for Inactive)
REMARK    1  A    between atoms: C_4  and  C_5 
REMARK    2  A    between atoms: C_9  and  C_10 
REMARK       I    between atoms: C_10  and  N_11 
REMARK    3  A    between atoms: N_11  and  C_12 
REMARK    4  A    between atoms: C_12  and  C_13 
REMARK    5  A    between atoms: C_13  and  N_14 
REMARK    6  A    between atoms: C_13  and  C_18 
ROOT
HETATM    1  C   UNL     1      22.896  48.215  48.731  1.00  0.00     0.092 A 
HETATM    2  N   UNL     1      23.734  49.182  48.306  1.00  0.00    -0.246 NA
HETATM    3  C   UNL     1      25.035  49.107  48.617  1.00  0.00     0.069 A 
HETATM    4  C   UNL     1      25.597  48.051  49.370  1.00  0.00     0.008 A 
HETATM    5  C   UNL     1      24.701  47.016  49.749  1.00  0.00     0.046 A 
HETATM    6  C   UNL     1      23.340  47.116  49.436  1.00  0.00     0.052 A 
HETATM    7  C   UNL     1      25.849  50.143  48.179  1.00  0.00     0.032 A 
HETATM    8  C   UNL     1      27.209  50.193  48.479  1.00  0.00     0.002 A 
HETATM    9  C   UNL     1      27.774  49.192  49.251  1.00  0.00     0.001 A 
HETATM   10  C   UNL     1      26.977  48.139  49.700  1.00  0.00     0.015 A 
ENDROOT
BRANCH   5  11
HETATM   11  C   UNL     1      25.057  45.779  50.503  1.00  0.00     0.252 C 
HETATM   12  N   UNL     1      25.897  44.856  49.912  1.00  0.00    -0.355 N 
HETATM   13  H   UNL     1      26.036  44.983  48.912  1.00  0.00     0.162 HD
HETATM   14  O   UNL     1      24.549  45.574  51.600  1.00  0.00    -0.268 OA
BRANCH  12  15
HETATM   15  C   UNL     1      25.973  43.471  50.374  1.00  0.00     0.161 C 
BRANCH  15  16
HETATM   16  C   UNL     1      27.351  42.767  50.671  1.00  0.00     0.237 C 
BRANCH  16  17
HETATM   17  N   UNL     1      27.430  41.265  50.415  1.00  0.00    -0.069 N 
HETATM   18  H   UNL     1      28.134  40.943  51.089  1.00  0.00     0.279 HD
HETATM   19  C   UNL     1      26.211  40.468  50.789  1.00  0.00     0.270 C 
HETATM   20  C   UNL     1      28.009  40.892  49.081  1.00  0.00     0.270 C 
ENDBRANCH  16  17
BRANCH  16  21
HETATM   21  C   UNL     1      28.063  43.144  51.962  1.00  0.00    -0.026 A 
HETATM   22  C   UNL     1      29.158  42.368  52.393  1.00  0.00     0.009 A 
HETATM   23  C   UNL     1      29.795  42.635  53.606  1.00  0.00     0.001 A 
HETATM   24  C   UNL     1      29.349  43.678  54.411  1.00  0.00     0.000 A 
HETATM   25  C   UNL     1      28.267  44.453  54.006  1.00  0.00     0.001 A 
HETATM   26  C   UNL     1      27.626  44.185  52.793  1.00  0.00     0.009 A 
ENDBRANCH  16  21
ENDBRANCH  15  16
ENDBRANCH  12  15
ENDBRANCH   5  11
BRANCH   1  27
HETATM   27  C   UNL     1      21.490  48.430  48.418  1.00  0.00     0.104 A 
HETATM   28  O   UNL     1      20.589  48.139  49.407  1.00  0.00    -0.313 OA
HETATM   29  C   UNL     1      19.349  48.435  48.926  1.00  0.00     0.050 A 
HETATM   30  C   UNL     1      18.212  48.207  49.842  1.00  0.00     0.076 C 
HETATM   31  C   UNL     1      19.441  48.910  47.637  1.00  0.00     0.035 A 
HETATM   32  C   UNL     1      20.819  48.905  47.309  1.00  0.00     0.042 A 
ENDBRANCH   1  27
TORSDOF 6
ENDMDL
MODEL 7
REMARK VINA RESULT:      -8.7      2.821      9.378
REMARK  6 active torsions:
REMARK  status: ('A' for Active; 'I' for Inactive)
REMARK    1  A    between atoms: C_4  and  C_5 
REMARK    2  A    between atoms: C_9  and  C_10 
REMARK       I    between atoms: C_10  and  N_11 
REMARK    3  A    between atoms: N_11  and  C_12 
REMARK    4  A    between atoms: C_12  and  C_13 
REMARK    5  A    between atoms: C_13  and  N_14 
REMARK    6  A    between atoms: C_13  and  C_18 
ROOT
HETATM    1  C   UNL     1      25.907  43.953  50.163  1.00  0.00     0.092 A 
HETATM    2  N   UNL     1      26.522  43.836  51.357  1.00  0.00    -0.246 NA
HETATM    3  C   UNL     1      26.563  44.891  52.181  1.00  0.00     0.069 A 
HETATM    4  C   UNL     1      25.982  46.142  51.876  1.00  0.00     0.008 A 
HETATM    5  C   UNL     1      25.287  46.216  50.640  1.00  0.00     0.046 A 
HETATM    6  C   UNL     1      25.269  45.114  49.778  1.00  0.00     0.052 A 
HETATM    7  C   UNL     1      27.234  44.724  53.386  1.00  0.00     0.032 A 
HETATM    8  C   UNL     1      27.378  45.763  54.303  1.00  0.00     0.002 A 
HETATM    9  C   UNL     1      26.854  47.010  54.007  1.00  0.00     0.001 A 
HETATM   10  C   UNL     1      26.173  47.202  52.805  1.00  0.00     0.015 A 
ENDROOT
BRANCH   5  11
HETATM   11  C   UNL     1      24.554  47.405  50.114  1.00  0.00     0.252 C 
HETATM   12  N   UNL     1      23.191  47.315  49.921  1.00  0.00    -0.355 N 
HETATM   13  H   UNL     1      22.816  46.370  49.941  1.00  0.00     0.162 HD
HETATM   14  O   UNL     1      25.182  48.412  49.805  1.00  0.00    -0.268 OA
BRANCH  12  15
HETATM   15  C   UNL     1      22.469  48.245  49.052  1.00  0.00     0.161 C 
BRANCH  15  16
HETATM   16  C   UNL     1      20.895  48.300  49.016  1.00  0.00     0.237 C 
BRANCH  16  17
HETATM   17  N   UNL     1      20.197  47.434  47.972  1.00  0.00    -0.069 N 
HETATM   18  H   UNL     1      19.440  48.035  47.627  1.00  0.00     0.279 HD
HETATM   19  C   UNL     1      20.987  47.134  46.728  1.00  0.00     0.270 C 
HETATM   20  C   UNL     1      19.482  46.239  48.533  1.00  0.00     0.270 C 
ENDBRANCH  16  17
BRANCH  16  21
HETATM   21  C   UNL     1      20.242  49.670  49.120  1.00  0.00    -0.026 A 
HETATM   22  C   UNL     1      19.084  49.819  49.910  1.00  0.00     0.009 A 
HETATM   23  C   UNL     1      18.413  51.041  49.978  1.00  0.00     0.001 A 
HETATM   24  C   UNL     1      18.881  52.133  49.256  1.00  0.00     0.000 A 
HETATM   25  C   UNL     1      20.020  52.005  48.466  1.00  0.00     0.001 A 
HETATM   26  C   UNL     1      20.692  50.782  48.395  1.00  0.00     0.009 A 
ENDBRANCH  16  21
ENDBRANCH  15  16
ENDBRANCH  12  15
ENDBRANCH   5  11
BRANCH   1  27
HETATM   27  C   UNL     1      25.991  42.782  49.303  1.00  0.00     0.104 A 
HETATM   28  O   UNL     1      27.239  42.433  48.860  1.00  0.00    -0.313 OA
HETATM   29  C   UNL     1      27.102  41.308  48.105  1.00  0.00     0.050 A 
HETATM   30  C   UNL     1      28.339  40.741  47.530  1.00  0.00     0.076 C 
HETATM   31  C   UNL     1      25.778  40.930  48.052  1.00  0.00     0.035 A 
HETATM   32  C   UNL     1      25.064  41.880  48.821  1.00  0.00     0.042 A 
ENDBRANCH   1  27
TORSDOF 6
ENDMDL
MODEL 8
REMARK VINA RESULT:      -8.7      2.122      9.183
REMARK  6 active torsions:
REMARK  status: ('A' for Active; 'I' for Inactive)
REMARK    1  A    between atoms: C_4  and  C_5 
REMARK    2  A    between atoms: C_9  and  C_10 
REMARK       I    between atoms: C_10  and  N_11 
REMARK    3  A    between atoms: N_11  and  C_12 
REMARK    4  A    between atoms: C_12  and  C_13 
REMARK    5  A    between atoms: C_13  and  N_14 
REMARK    6  A    between atoms: C_13  and  C_18 
ROOT
HETATM    1  C   UNL     1      26.702  45.300  52.618  1.00  0.00     0.092 A 
HETATM    2  N   UNL     1      26.552  44.040  52.161  1.00  0.00    -0.246 NA
HETATM    3  C   UNL     1      25.784  43.819  51.086  1.00  0.00     0.069 A 
HETATM    4  C   UNL     1      25.116  44.845  50.380  1.00  0.00     0.008 A 
HETATM    5  C   UNL     1      25.344  46.167  50.847  1.00  0.00     0.046 A 
HETATM    6  C   UNL     1      26.131  46.384  51.984  1.00  0.00     0.052 A 
HETATM    7  C   UNL     1      25.640  42.501  50.674  1.00  0.00     0.032 A 
HETATM    8  C   UNL     1      24.833  42.146  49.595  1.00  0.00     0.002 A 
HETATM    9  C   UNL     1      24.134  43.129  48.915  1.00  0.00     0.001 A 
HETATM   10  C   UNL     1      24.265  44.461  49.308  1.00  0.00     0.015 A 
ENDROOT
BRANCH   5  11
HETATM   11  C   UNL     1      24.793  47.417  50.248  1.00  0.00     0.252 C 
HETATM   12  N   UNL     1      23.426  47.540  50.101  1.00  0.00    -0.355 N 
HETATM   13  H   UNL     1      22.904  46.674  50.210  1.00  0.00     0.162 HD
HETATM   14  O   UNL     1      25.562  48.280  49.839  1.00  0.00    -0.268 OA
BRANCH  12  15
HETATM   15  C   UNL     1      22.830  48.508  49.181  1.00  0.00     0.161 C 
BRANCH  15  16
HETATM   16  C   UNL     1      21.326  48.405  48.724  1.00  0.00     0.237 C 
BRANCH  16  17
HETATM   17  N   UNL     1      21.058  47.773  47.362  1.00  0.00    -0.069 N 
HETATM   18  H   UNL     1      21.489  48.430  46.702  1.00  0.00     0.279 HD
HETATM   19  C   UNL     1      21.781  46.485  47.079  1.00  0.00     0.270 C 
HETATM   20  C   UNL     1      19.612  47.752  46.960  1.00  0.00     0.270 C 
ENDBRANCH  16  17
BRANCH  16  21
HETATM   21  C   UNL     1      20.444  49.624  48.948  1.00  0.00    -0.026 A 
HETATM   22  C   UNL     1      20.736  50.819  48.259  1.00  0.00     0.009 A 
HETATM   23  C   UNL     1      19.997  51.980  48.487  1.00  0.00     0.001 A 
HETATM   24  C   UNL     1      18.955  51.972  49.409  1.00  0.00     0.000 A 
HETATM   25  C   UNL     1      18.653  50.804  50.103  1.00  0.00     0.001 A 
HETATM   26  C   UNL     1      19.394  49.641  49.877  1.00  0.00     0.009 A 
ENDBRANCH  16  21
ENDBRANCH  15  16
ENDBRANCH  12  15
ENDBRANCH   5  11
BRANCH   1  27
HETATM   27  C   UNL     1      27.483  45.428  53.840  1.00  0.00     0.104 A 
HETATM   28  O   UNL     1      28.534  44.564  53.992  1.00  0.00    -0.313 OA
HETATM   29  C   UNL     1      29.143  44.867  55.172  1.00  0.00     0.050 A 
HETATM   30  C   UNL     1      30.325  44.058  55.534  1.00  0.00     0.076 C 
HETATM   31  C   UNL     1      28.492  45.914  55.786  1.00  0.00     0.035 A 
HETATM   32  C   UNL     1      27.423  46.274  54.930  1.00  0.00     0.042 A 
ENDBRANCH   1  27
TORSDOF 6
ENDMDL
MODEL 9
REMARK VINA RESULT:      -8.6      2.573      7.234
REMARK  6 active torsions:
REMARK  status: ('A' for Active; 'I' for Inactive)
REMARK    1  A    between atoms: C_4  and  C_5 
REMARK    2  A    between atoms: C_9  and  C_10 
REMARK       I    between atoms: C_10  and  N_11 
REMARK    3  A    between atoms: N_11  and  C_12 
REMARK    4  A    between atoms: C_12  and  C_13 
REMARK    5  A    between atoms: C_13  and  N_14 
REMARK    6  A    between atoms: C_13  and  C_18 
ROOT
HETATM    1  C   UNL     1      28.803  42.445  52.538  1.00  0.00     0.092 A 
HETATM    2  N   UNL     1      29.242  41.203  52.250  1.00  0.00    -0.246 NA
HETATM    3  C   UNL     1      28.672  40.521  51.247  1.00  0.00     0.069 A 
HETATM    4  C   UNL     1      27.625  41.036  50.450  1.00  0.00     0.008 A 
HETATM    5  C   UNL     1      27.228  42.369  50.736  1.00  0.00     0.046 A 
HETATM    6  C   UNL     1      27.816  43.064  51.799  1.00  0.00     0.052 A 
HETATM    7  C   UNL     1      29.142  39.236  51.012  1.00  0.00     0.032 A 
HETATM    8  C   UNL     1      28.597  38.418  50.024  1.00  0.00     0.002 A 
HETATM    9  C   UNL     1      27.542  38.885  49.259  1.00  0.00     0.001 A 
HETATM   10  C   UNL     1      27.054  40.173  49.474  1.00  0.00     0.015 A 
ENDROOT
BRANCH   5  11
HETATM   11  C   UNL     1      26.183  43.149  50.010  1.00  0.00     0.252 C 
HETATM   12  N   UNL     1      26.464  44.445  49.627  1.00  0.00    -0.355 N 
HETATM   13  H   UNL     1      27.288  44.852  50.063  1.00  0.00     0.162 HD
HETATM   14  O   UNL     1      25.078  42.651  49.826  1.00  0.00    -0.268 OA
BRANCH  12  15
HETATM   15  C   UNL     1      25.408  45.400  49.293  1.00  0.00     0.161 C 
BRANCH  15  16
HETATM   16  C   UNL     1      24.786  46.364  50.373  1.00  0.00     0.237 C 
BRANCH  16  17
HETATM   17  N   UNL     1      24.703  47.844  50.014  1.00  0.00    -0.069 N 
HETATM   18  H   UNL     1      24.712  48.314  50.926  1.00  0.00     0.279 HD
HETATM   19  C   UNL     1      25.906  48.423  49.321  1.00  0.00     0.270 C 
HETATM   20  C   UNL     1      23.397  48.263  49.403  1.00  0.00     0.270 C 
ENDBRANCH  16  17
BRANCH  16  21
HETATM   21  C   UNL     1      25.227  46.171  51.816  1.00  0.00    -0.026 A 
HETATM   22  C   UNL     1      24.848  44.998  52.499  1.00  0.00     0.009 A 
HETATM   23  C   UNL     1      25.170  44.813  53.844  1.00  0.00     0.001 A 
HETATM   24  C   UNL     1      25.872  45.796  54.533  1.00  0.00     0.000 A 
HETATM   25  C   UNL     1      26.252  46.964  53.879  1.00  0.00     0.001 A 
HETATM   26  C   UNL     1      25.928  47.152  52.533  1.00  0.00     0.009 A 
ENDBRANCH  16  21
ENDBRANCH  15  16
ENDBRANCH  12  15
ENDBRANCH   5  11
BRANCH   1  27
HETATM   27  C   UNL     1      29.423  43.070  53.697  1.00  0.00     0.104 A 
HETATM   28  O   UNL     1      28.940  44.296  54.067  1.00  0.00    -0.313 OA
HETATM   29  C   UNL     1      29.627  44.686  55.176  1.00  0.00     0.050 A 
HETATM   30  C   UNL     1      29.255  45.991  55.761  1.00  0.00     0.076 C 
HETATM   31  C   UNL     1      30.551  43.726  55.524  1.00  0.00     0.035 A 
HETATM   32  C   UNL     1      30.422  42.687  54.570  1.00  0.00     0.042 A 
ENDBRANCH   1  27
TORSDOF 6
ENDMDL
MODEL 10
REMARK VINA RESULT:      -8.5      3.648      8.348
REMARK  6 active torsions:
REMARK  status: ('A' for Active; 'I' for Inactive)
REMARK    1  A    between atoms: C_4  and  C_5 
REMARK    2  A    between atoms: C_9  and  C_10 
REMARK       I    between atoms: C_10  and  N_11 
REMARK    3  A    between atoms: N_11  and  C_12 
REMARK    4  A    between atoms: C_12  and  C_13 
REMARK    5  A    between atoms: C_13  and  N_14 
REMARK    6  A    between atoms: C_13  and  C_18 
ROOT
HETATM    1  C   UNL     1      28.585  44.246  54.091  1.00  0.00     0.092 A 
HETATM    2  N   UNL     1      27.882  45.396  54.127  1.00  0.00    -0.246 NA
HETATM    3  C   UNL     1      26.956  45.630  53.188  1.00  0.00     0.069 A 
HETATM    4  C   UNL     1      26.656  44.723  52.146  1.00  0.00     0.008 A 
HETATM    5  C   UNL     1      27.368  43.494  52.172  1.00  0.00     0.046 A 
HETATM    6  C   UNL     1      28.348  43.271  53.145  1.00  0.00     0.052 A 
HETATM    7  C   UNL     1      26.281  46.841  53.255  1.00  0.00     0.032 A 
HETATM    8  C   UNL     1      25.327  47.211  52.308  1.00  0.00     0.002 A 
HETATM    9  C   UNL     1      25.048  46.358  51.254  1.00  0.00     0.001 A 
HETATM   10  C   UNL     1      25.710  45.133  51.167  1.00  0.00     0.015 A 
ENDROOT
BRANCH   5  11
HETATM   11  C   UNL     1      27.199  42.362  51.214  1.00  0.00     0.252 C 
HETATM   12  N   UNL     1      27.163  42.632  49.861  1.00  0.00    -0.355 N 
HETATM   13  H   UNL     1      27.032  43.613  49.624  1.00  0.00     0.162 HD
HETATM   14  O   UNL     1      27.031  41.227  51.647  1.00  0.00    -0.268 OA
BRANCH  12  15
HETATM   15  C   UNL     1      26.606  41.684  48.897  1.00  0.00     0.161 C 
BRANCH  15  16
HETATM   16  C   UNL     1      27.521  40.703  48.071  1.00  0.00     0.237 C 
BRANCH  16  17
HETATM   17  N   UNL     1      27.148  40.476  46.609  1.00  0.00    -0.069 N 
HETATM   18  H   UNL     1      27.178  39.455  46.508  1.00  0.00     0.279 HD
HETATM   19  C   UNL     1      25.733  40.813  46.229  1.00  0.00     0.270 C 
HETATM   20  C   UNL     1      28.169  40.966  45.624  1.00  0.00     0.270 C 
ENDBRANCH  16  17
BRANCH  16  21
HETATM   21  C   UNL     1      27.933  39.402  48.743  1.00  0.00    -0.026 A 
HETATM   22  C   UNL     1      26.949  38.432  49.021  1.00  0.00     0.009 A 
HETATM   23  C   UNL     1      27.271  37.254  49.698  1.00  0.00     0.001 A 
HETATM   24  C   UNL     1      28.579  37.027  50.114  1.00  0.00     0.000 A 
HETATM   25  C   UNL     1      29.564  37.974  49.854  1.00  0.00     0.001 A 
HETATM   26  C   UNL     1      29.243  39.154  49.177  1.00  0.00     0.009 A 
ENDBRANCH  16  21
ENDBRANCH  15  16
ENDBRANCH  12  15
ENDBRANCH   5  11
BRANCH   1  27
HETATM   27  C   UNL     1      29.627  44.124  55.100  1.00  0.00     0.104 A 
HETATM   28  O   UNL     1      29.603  45.034  56.122  1.00  0.00    -0.313 OA
HETATM   29  C   UNL     1      30.631  44.730  56.962  1.00  0.00     0.050 A 
HETATM   30  C   UNL     1      30.787  45.587  58.156  1.00  0.00     0.076 C 
HETATM   31  C   UNL     1      31.320  43.635  56.491  1.00  0.00     0.035 A 
HETATM   32  C   UNL     1      30.676  43.246  55.291  1.00  0.00     0.042 A 
ENDBRANCH   1  27
TORSDOF 6
ENDMDL
