MODEL 1
REMARK VINA RESULT:      -9.5      0.000      0.000
REMARK  5 active torsions:
REMARK  status: ('A' for Active; 'I' for Inactive)
REMARK    1  A    between atoms: C_6  and  O_7 
REMARK    2  A    between atoms: O_7  and  C_8 
REMARK    3  A    between atoms: C_8  and  C_9 
REMARK       I    between atoms: C_9  and  N_10 
REMARK    4  A    between atoms: N_10  and  N_11 
REMARK    5  A    between atoms: C_12  and  C_13 
ROOT
HETATM    1  C   UNL     1      26.655  44.163  50.518  1.00  0.00     0.261 C 
HETATM    2  N   UNL     1      25.367  44.659  50.396  1.00  0.00    -0.246 N 
HETATM    3  O   UNL     1      27.645  44.624  49.948  1.00  0.00    -0.269 OA
HETATM    4  H   UNL     1      24.593  44.201  50.868  1.00  0.00     0.192 HD
ENDROOT
BRANCH   2   5
HETATM    5  N   UNL     1      25.188  45.796  49.672  1.00  0.00    -0.184 NA
HETATM    6  C   UNL     1      25.210  46.929  50.290  1.00  0.00     0.153 C 
BRANCH   6   7
HETATM    7  C   UNL     1      25.066  48.145  49.505  1.00  0.00     0.018 A 
HETATM    8  C   UNL     1      23.852  48.779  49.062  1.00  0.00     0.004 A 
HETATM    9  C   UNL     1      24.210  49.904  48.322  1.00  0.00     0.043 A 
HETATM   10  C   UNL     1      22.476  48.497  49.215  1.00  0.00     0.014 A 
HETATM   11  C   UNL     1      23.270  50.756  47.727  1.00  0.00     0.030 A 
HETATM   12  N   UNL     1      25.581  49.964  48.321  1.00  0.00    -0.358 N 
HETATM   13  C   UNL     1      21.916  50.450  47.895  1.00  0.00     0.002 A 
HETATM   14  C   UNL     1      21.521  49.336  48.629  1.00  0.00     0.001 A 
HETATM   15  H   UNL     1      26.113  50.687  47.854  1.00  0.00     0.166 HD
HETATM   16  C   UNL     1      26.120  48.912  49.023  1.00  0.00     0.018 A 
HETATM   17  C   UNL     1      27.591  48.754  49.154  1.00  0.00     0.069 C 
ENDBRANCH   6   7
ENDBRANCH   2   5
BRANCH   1  18
HETATM   18  C   UNL     1      26.803  43.027  51.521  1.00  0.00     0.280 C 
BRANCH  18  19
HETATM   19  O   UNL     1      26.452  43.371  52.865  1.00  0.00    -0.340 OA
BRANCH  19  20
HETATM   20  C   UNL     1      27.597  43.605  53.595  1.00  0.00     0.092 A 
HETATM   21  C   UNL     1      27.836  44.891  54.095  1.00  0.00     0.045 A 
HETATM   22  C   UNL     1      28.946  45.138  54.907  1.00  0.00     0.028 A 
HETATM   23 BR   UNL     1      26.653  46.330  53.727  1.00  0.00    -0.048 Br
HETATM   24  C   UNL     1      29.840  44.105  55.211  1.00  0.00    -0.060 A 
HETATM   25  C   UNL     1      30.986  44.339  56.151  1.00  0.00     0.048 C 
HETATM   26  C   UNL     1      29.615  42.828  54.678  1.00  0.00     0.016 A 
HETATM   27  C   UNL     1      28.516  42.570  53.841  1.00  0.00    -0.027 A 
HETATM   28  C   UNL     1      28.335  41.184  53.292  1.00  0.00     0.051 C 
ENDBRANCH  19  20
ENDBRANCH  18  19
ENDBRANCH   1  18
TORSDOF 5
ENDMDL
MODEL 2
REMARK VINA RESULT:      -9.5      1.910      2.703
REMARK  5 active torsions:
REMARK  status: ('A' for Active; 'I' for Inactive)
REMARK    1  A    between atoms: C_6  and  O_7 
REMARK    2  A    between atoms: O_7  and  C_8 
REMARK    3  A    between atoms: C_8  and  C_9 
REMARK       I    between atoms: C_9  and  N_10 
REMARK    4  A    between atoms: N_10  and  N_11 
REMARK    5  A    between atoms: C_12  and  C_13 
ROOT
HETATM    1  C   UNL     1      25.646  44.673  52.968  1.00  0.00     0.261 C 
HETATM    2  N   UNL     1      25.924  45.736  52.124  1.00  0.00    -0.246 N 
HETATM    3  O   UNL     1      24.522  44.219  53.183  1.00  0.00    -0.269 OA
HETATM    4  H   UNL     1      26.874  46.081  52.026  1.00  0.00     0.192 HD
ENDROOT
BRANCH   2   5
HETATM    5  N   UNL     1      24.899  46.261  51.402  1.00  0.00    -0.184 NA
HETATM    6  C   UNL     1      24.912  46.118  50.120  1.00  0.00     0.153 C 
BRANCH   6   7
HETATM    7  C   UNL     1      23.789  46.639  49.355  1.00  0.00     0.018 A 
HETATM    8  C   UNL     1      23.568  47.989  48.909  1.00  0.00     0.004 A 
HETATM    9  C   UNL     1      22.349  48.016  48.235  1.00  0.00     0.043 A 
HETATM   10  C   UNL     1      24.290  49.199  49.022  1.00  0.00     0.014 A 
HETATM   11  C   UNL     1      21.814  49.183  47.673  1.00  0.00     0.030 A 
HETATM   12  N   UNL     1      21.850  46.738  48.257  1.00  0.00    -0.358 N 
HETATM   13  C   UNL     1      22.550  50.365  47.802  1.00  0.00     0.002 A 
HETATM   14  C   UNL     1      23.773  50.376  48.467  1.00  0.00     0.001 A 
HETATM   15  H   UNL     1      20.970  46.470  47.837  1.00  0.00     0.166 HD
HETATM   16  C   UNL     1      22.698  45.891  48.931  1.00  0.00     0.018 A 
HETATM   17  C   UNL     1      22.367  44.452  49.098  1.00  0.00     0.069 C 
ENDBRANCH   6   7
ENDBRANCH   2   5
BRANCH   1  18
HETATM   18  C   UNL     1      26.876  44.001  53.564  1.00  0.00     0.280 C 
BRANCH  18  19
HETATM   19  O   UNL     1      28.121  44.589  53.177  1.00  0.00    -0.340 OA
BRANCH  19  20
HETATM   20  C   UNL     1      29.043  44.427  54.187  1.00  0.00     0.092 A 
HETATM   21  C   UNL     1      29.106  45.382  55.210  1.00  0.00     0.045 A 
HETATM   22  C   UNL     1      29.975  45.202  56.291  1.00  0.00     0.028 A 
HETATM   23 BR   UNL     1      27.999  46.923  55.194  1.00  0.00    -0.048 Br
HETATM   24  C   UNL     1      30.804  44.076  56.348  1.00  0.00    -0.060 A 
HETATM   25  C   UNL     1      31.676  43.831  57.544  1.00  0.00     0.048 C 
HETATM   26  C   UNL     1      30.762  43.143  55.303  1.00  0.00     0.016 A 
HETATM   27  C   UNL     1      29.910  43.322  54.199  1.00  0.00    -0.027 A 
HETATM   28  C   UNL     1      29.919  42.292  53.105  1.00  0.00     0.051 C 
ENDBRANCH  19  20
ENDBRANCH  18  19
ENDBRANCH   1  18
TORSDOF 5
ENDMDL
MODEL 3
REMARK VINA RESULT:      -9.2      2.889      9.210
REMARK  5 active torsions:
REMARK  status: ('A' for Active; 'I' for Inactive)
REMARK    1  A    between atoms: C_6  and  O_7 
REMARK    2  A    between atoms: O_7  and  C_8 
REMARK    3  A    between atoms: C_8  and  C_9 
REMARK       I    between atoms: C_9  and  N_10 
REMARK    4  A    between atoms: N_10  and  N_11 
REMARK    5  A    between atoms: C_12  and  C_13 
ROOT
HETATM    1  C   UNL     1      24.622  47.368  50.299  1.00  0.00     0.261 C 
HETATM    2  N   UNL     1      24.657  46.535  51.406  1.00  0.00    -0.246 N 
HETATM    3  O   UNL     1      25.474  48.214  50.026  1.00  0.00    -0.269 OA
HETATM    4  H   UNL     1      23.896  45.887  51.586  1.00  0.00     0.192 HD
ENDROOT
BRANCH   2   5
HETATM    5  N   UNL     1      25.756  46.582  52.204  1.00  0.00    -0.184 NA
HETATM    6  C   UNL     1      25.737  45.929  53.317  1.00  0.00     0.153 C 
BRANCH   6   7
HETATM    7  C   UNL     1      26.932  45.942  54.145  1.00  0.00     0.018 A 
HETATM    8  C   UNL     1      27.959  44.937  54.240  1.00  0.00     0.004 A 
HETATM    9  C   UNL     1      28.891  45.375  55.179  1.00  0.00     0.043 A 
HETATM   10  C   UNL     1      28.181  43.687  53.619  1.00  0.00     0.014 A 
HETATM   11  C   UNL     1      30.026  44.631  55.530  1.00  0.00     0.030 A 
HETATM   12  N   UNL     1      28.462  46.597  55.631  1.00  0.00    -0.358 N 
HETATM   13  C   UNL     1      30.218  43.398  54.899  1.00  0.00     0.002 A 
HETATM   14  C   UNL     1      29.308  42.930  53.955  1.00  0.00     0.001 A 
HETATM   15  H   UNL     1      28.954  47.146  56.323  1.00  0.00     0.166 HD
HETATM   16  C   UNL     1      27.281  46.958  55.027  1.00  0.00     0.018 A 
HETATM   17  C   UNL     1      26.611  48.241  55.363  1.00  0.00     0.069 C 
ENDBRANCH   6   7
ENDBRANCH   2   5
BRANCH   1  18
HETATM   18  C   UNL     1      23.470  47.097  49.340  1.00  0.00     0.280 C 
BRANCH  18  19
HETATM   19  O   UNL     1      23.529  47.836  48.117  1.00  0.00    -0.340 OA
BRANCH  19  20
HETATM   20  C   UNL     1      22.614  48.865  48.155  1.00  0.00     0.092 A 
HETATM   21  C   UNL     1      21.247  48.560  48.186  1.00  0.00     0.045 A 
HETATM   22  C   UNL     1      20.299  49.581  48.307  1.00  0.00     0.028 A 
HETATM   23 BR   UNL     1      20.632  46.767  48.109  1.00  0.00    -0.048 Br
HETATM   24  C   UNL     1      20.708  50.918  48.376  1.00  0.00    -0.060 A 
HETATM   25  C   UNL     1      19.704  52.012  48.591  1.00  0.00     0.048 C 
HETATM   26  C   UNL     1      22.075  51.218  48.306  1.00  0.00     0.016 A 
HETATM   27  C   UNL     1      23.039  50.205  48.162  1.00  0.00    -0.027 A 
HETATM   28  C   UNL     1      24.488  50.592  48.082  1.00  0.00     0.051 C 
ENDBRANCH  19  20
ENDBRANCH  18  19
ENDBRANCH   1  18
TORSDOF 5
ENDMDL
MODEL 4
REMARK VINA RESULT:      -9.1      1.685      2.426
REMARK  5 active torsions:
REMARK  status: ('A' for Active; 'I' for Inactive)
REMARK    1  A    between atoms: C_6  and  O_7 
REMARK    2  A    between atoms: O_7  and  C_8 
REMARK    3  A    between atoms: C_8  and  C_9 
REMARK       I    between atoms: C_9  and  N_10 
REMARK    4  A    between atoms: N_10  and  N_11 
REMARK    5  A    between atoms: C_12  and  C_13 
ROOT
HETATM    1  C   UNL     1      26.484  45.703  50.017  1.00  0.00     0.261 C 
HETATM    2  N   UNL     1      25.210  46.065  50.425  1.00  0.00    -0.246 N 
HETATM    3  O   UNL     1      27.226  46.398  49.322  1.00  0.00    -0.269 OA
HETATM    4  H   UNL     1      24.641  45.421  50.965  1.00  0.00     0.192 HD
ENDROOT
BRANCH   2   5
HETATM    5  N   UNL     1      24.776  47.317  50.120  1.00  0.00    -0.184 NA
HETATM    6  C   UNL     1      23.946  47.459  49.142  1.00  0.00     0.153 C 
BRANCH   6   7
HETATM    7  C   UNL     1      23.446  48.793  48.849  1.00  0.00     0.018 A 
HETATM    8  C   UNL     1      22.092  49.273  48.938  1.00  0.00     0.004 A 
HETATM    9  C   UNL     1      22.092  50.608  48.537  1.00  0.00     0.043 A 
HETATM   10  C   UNL     1      20.859  48.695  49.316  1.00  0.00     0.014 A 
HETATM   11  C   UNL     1      20.930  51.390  48.492  1.00  0.00     0.030 A 
HETATM   12  N   UNL     1      23.388  50.935  48.228  1.00  0.00    -0.358 N 
HETATM   13  C   UNL     1      19.725  50.789  48.870  1.00  0.00     0.002 A 
HETATM   14  C   UNL     1      19.688  49.459  49.278  1.00  0.00     0.001 A 
HETATM   15  H   UNL     1      23.677  51.849  47.906  1.00  0.00     0.166 HD
HETATM   16  C   UNL     1      24.222  49.856  48.403  1.00  0.00     0.018 A 
HETATM   17  C   UNL     1      25.677  49.960  48.120  1.00  0.00     0.069 C 
ENDBRANCH   6   7
ENDBRANCH   2   5
BRANCH   1  18
HETATM   18  C   UNL     1      26.978  44.379  50.587  1.00  0.00     0.280 C 
BRANCH  18  19
HETATM   19  O   UNL     1      26.390  44.016  51.839  1.00  0.00    -0.340 OA
BRANCH  19  20
HETATM   20  C   UNL     1      27.380  43.848  52.782  1.00  0.00     0.092 A 
HETATM   21  C   UNL     1      28.120  42.658  52.789  1.00  0.00     0.045 A 
HETATM   22  C   UNL     1      29.183  42.494  53.681  1.00  0.00     0.028 A 
HETATM   23 BR   UNL     1      27.741  41.252  51.573  1.00  0.00    -0.048 Br
HETATM   24  C   UNL     1      29.503  43.509  54.591  1.00  0.00    -0.060 A 
HETATM   25  C   UNL     1      30.695  43.377  55.493  1.00  0.00     0.048 C 
HETATM   26  C   UNL     1      28.735  44.681  54.603  1.00  0.00     0.016 A 
HETATM   27  C   UNL     1      27.649  44.852  53.728  1.00  0.00    -0.027 A 
HETATM   28  C   UNL     1      26.858  46.127  53.798  1.00  0.00     0.051 C 
ENDBRANCH  19  20
ENDBRANCH  18  19
ENDBRANCH   1  18
TORSDOF 5
ENDMDL
MODEL 5
REMARK VINA RESULT:      -9.1      2.848      8.619
REMARK  5 active torsions:
REMARK  status: ('A' for Active; 'I' for Inactive)
REMARK    1  A    between atoms: C_6  and  O_7 
REMARK    2  A    between atoms: O_7  and  C_8 
REMARK    3  A    between atoms: C_8  and  C_9 
REMARK       I    between atoms: C_9  and  N_10 
REMARK    4  A    between atoms: N_10  and  N_11 
REMARK    5  A    between atoms: C_12  and  C_13 
ROOT
HETATM    1  C   UNL     1      25.234  43.843  51.928  1.00  0.00     0.261 C 
HETATM    2  N   UNL     1      26.557  43.560  52.227  1.00  0.00    -0.246 N 
HETATM    3  O   UNL     1      24.438  44.385  52.696  1.00  0.00    -0.269 OA
HETATM    4  H   UNL     1      27.144  43.074  51.556  1.00  0.00     0.192 HD
ENDROOT
BRANCH   2   5
HETATM    5  N   UNL     1      27.048  43.995  53.418  1.00  0.00    -0.184 NA
HETATM    6  C   UNL     1      28.172  44.629  53.425  1.00  0.00     0.153 C 
BRANCH   6   7
HETATM    7  C   UNL     1      28.671  45.135  54.695  1.00  0.00     0.018 A 
HETATM    8  C   UNL     1      29.682  44.563  55.544  1.00  0.00     0.004 A 
HETATM    9  C   UNL     1      29.807  45.384  56.663  1.00  0.00     0.043 A 
HETATM   10  C   UNL     1      30.501  43.414  55.471  1.00  0.00     0.014 A 
HETATM   11  C   UNL     1      30.701  45.118  57.708  1.00  0.00     0.030 A 
HETATM   12  N   UNL     1      28.921  46.420  56.501  1.00  0.00    -0.358 N 
HETATM   13  C   UNL     1      31.498  43.973  57.608  1.00  0.00     0.002 A 
HETATM   14  C   UNL     1      31.401  43.130  56.504  1.00  0.00     0.001 A 
HETATM   15  H   UNL     1      28.802  47.168  57.170  1.00  0.00     0.166 HD
HETATM   16  C   UNL     1      28.221  46.289  55.325  1.00  0.00     0.018 A 
HETATM   17  C   UNL     1      27.191  47.286  54.934  1.00  0.00     0.069 C 
ENDBRANCH   6   7
ENDBRANCH   2   5
BRANCH   1  18
HETATM   18  C   UNL     1      24.828  43.524  50.495  1.00  0.00     0.280 C 
BRANCH  18  19
HETATM   19  O   UNL     1      25.391  44.394  49.510  1.00  0.00    -0.340 OA
BRANCH  19  20
HETATM   20  C   UNL     1      24.553  45.470  49.310  1.00  0.00     0.092 A 
HETATM   21  C   UNL     1      23.400  45.300  48.533  1.00  0.00     0.045 A 
HETATM   22  C   UNL     1      22.491  46.350  48.381  1.00  0.00     0.028 A 
HETATM   23 BR   UNL     1      23.007  43.642  47.698  1.00  0.00    -0.048 Br
HETATM   24  C   UNL     1      22.736  47.588  48.987  1.00  0.00    -0.060 A 
HETATM   25  C   UNL     1      21.725  48.693  48.900  1.00  0.00     0.048 C 
HETATM   26  C   UNL     1      23.910  47.762  49.732  1.00  0.00     0.016 A 
HETATM   27  C   UNL     1      24.845  46.723  49.876  1.00  0.00    -0.027 A 
HETATM   28  C   UNL     1      26.090  46.976  50.678  1.00  0.00     0.051 C 
ENDBRANCH  19  20
ENDBRANCH  18  19
ENDBRANCH   1  18
TORSDOF 5
ENDMDL
MODEL 6
REMARK VINA RESULT:      -8.8      3.038      9.252
REMARK  5 active torsions:
REMARK  status: ('A' for Active; 'I' for Inactive)
REMARK    1  A    between atoms: C_6  and  O_7 
REMARK    2  A    between atoms: O_7  and  C_8 
REMARK    3  A    between atoms: C_8  and  C_9 
REMARK       I    between atoms: C_9  and  N_10 
REMARK    4  A    between atoms: N_10  and  N_11 
REMARK    5  A    between atoms: C_12  and  C_13 
ROOT
HETATM    1  C   UNL     1      23.577  46.390  49.209  1.00  0.00     0.261 C 
HETATM    2  N   UNL     1      24.237  47.023  50.250  1.00  0.00    -0.246 N 
HETATM    3  O   UNL     1      23.905  45.307  48.721  1.00  0.00    -0.269 OA
HETATM    4  H   UNL     1      23.930  47.936  50.573  1.00  0.00     0.192 HD
ENDROOT
BRANCH   2   5
HETATM    5  N   UNL     1      25.265  46.364  50.847  1.00  0.00    -0.184 NA
HETATM    6  C   UNL     1      25.095  45.920  52.047  1.00  0.00     0.153 C 
BRANCH   6   7
HETATM    7  C   UNL     1      26.180  45.173  52.666  1.00  0.00     0.018 A 
HETATM    8  C   UNL     1      27.062  45.598  53.721  1.00  0.00     0.004 A 
HETATM    9  C   UNL     1      27.956  44.557  53.967  1.00  0.00     0.043 A 
HETATM   10  C   UNL     1      27.191  46.777  54.489  1.00  0.00     0.014 A 
HETATM   11  C   UNL     1      28.968  44.633  54.933  1.00  0.00     0.030 A 
HETATM   12  N   UNL     1      27.629  43.536  53.109  1.00  0.00    -0.358 N 
HETATM   13  C   UNL     1      29.071  45.814  55.676  1.00  0.00     0.002 A 
HETATM   14  C   UNL     1      28.195  46.873  55.459  1.00  0.00     0.001 A 
HETATM   15  H   UNL     1      28.120  42.653  53.073  1.00  0.00     0.166 HD
HETATM   16  C   UNL     1      26.566  43.886  52.312  1.00  0.00     0.018 A 
HETATM   17  C   UNL     1      26.034  42.947  51.291  1.00  0.00     0.069 C 
ENDBRANCH   6   7
ENDBRANCH   2   5
BRANCH   1  18
HETATM   18  C   UNL     1      22.307  47.090  48.746  1.00  0.00     0.280 C 
BRANCH  18  19
HETATM   19  O   UNL     1      22.480  47.949  47.616  1.00  0.00    -0.340 OA
BRANCH  19  20
HETATM   20  C   UNL     1      21.696  49.072  47.764  1.00  0.00     0.092 A 
HETATM   21  C   UNL     1      20.361  49.032  47.342  1.00  0.00     0.045 A 
HETATM   22  C   UNL     1      19.520  50.128  47.555  1.00  0.00     0.028 A 
HETATM   23 BR   UNL     1      19.634  47.489  46.510  1.00  0.00    -0.048 Br
HETATM   24  C   UNL     1      20.012  51.284  48.173  1.00  0.00    -0.060 A 
HETATM   25  C   UNL     1      19.096  52.431  48.482  1.00  0.00     0.048 C 
HETATM   26  C   UNL     1      21.358  51.331  48.559  1.00  0.00     0.016 A 
HETATM   27  C   UNL     1      22.222  50.246  48.332  1.00  0.00    -0.027 A 
HETATM   28  C   UNL     1      23.657  50.362  48.760  1.00  0.00     0.051 C 
ENDBRANCH  19  20
ENDBRANCH  18  19
ENDBRANCH   1  18
TORSDOF 5
ENDMDL
MODEL 7
REMARK VINA RESULT:      -8.8      5.776      7.837
REMARK  5 active torsions:
REMARK  status: ('A' for Active; 'I' for Inactive)
REMARK    1  A    between atoms: C_6  and  O_7 
REMARK    2  A    between atoms: O_7  and  C_8 
REMARK    3  A    between atoms: C_8  and  C_9 
REMARK       I    between atoms: C_9  and  N_10 
REMARK    4  A    between atoms: N_10  and  N_11 
REMARK    5  A    between atoms: C_12  and  C_13 
ROOT
HETATM    1  C   UNL     1      27.487  41.750  52.983  1.00  0.00     0.261 C 
HETATM    2  N   UNL     1      26.878  41.687  51.740  1.00  0.00    -0.246 N 
HETATM    3  O   UNL     1      28.206  40.872  53.461  1.00  0.00    -0.269 OA
HETATM    4  H   UNL     1      26.265  42.435  51.429  1.00  0.00     0.192 HD
ENDROOT
BRANCH   2   5
HETATM    5  N   UNL     1      27.167  40.625  50.942  1.00  0.00    -0.184 NA
HETATM    6  C   UNL     1      28.228  40.677  50.210  1.00  0.00     0.153 C 
BRANCH   6   7
HETATM    7  C   UNL     1      28.561  39.519  49.394  1.00  0.00     0.018 A 
HETATM    8  C   UNL     1      28.226  39.278  48.015  1.00  0.00     0.004 A 
HETATM    9  C   UNL     1      28.735  38.028  47.670  1.00  0.00     0.043 A 
HETATM   10  C   UNL     1      27.528  40.005  47.025  1.00  0.00     0.014 A 
HETATM   11  C   UNL     1      28.581  37.468  46.395  1.00  0.00     0.030 A 
HETATM   12  N   UNL     1      29.363  37.529  48.783  1.00  0.00    -0.358 N 
HETATM   13  C   UNL     1      27.885  38.211  45.436  1.00  0.00     0.002 A 
HETATM   14  C   UNL     1      27.364  39.464  45.745  1.00  0.00     0.001 A 
HETATM   15  H   UNL     1      29.824  36.630  48.814  1.00  0.00     0.166 HD
HETATM   16  C   UNL     1      29.267  38.407  49.837  1.00  0.00     0.018 A 
HETATM   17  C   UNL     1      29.863  38.083  51.159  1.00  0.00     0.069 C 
ENDBRANCH   6   7
ENDBRANCH   2   5
BRANCH   1  18
HETATM   18  C   UNL     1      27.290  43.069  53.718  1.00  0.00     0.280 C 
BRANCH  18  19
HETATM   19  O   UNL     1      28.211  44.099  53.346  1.00  0.00    -0.340 OA
BRANCH  19  20
HETATM   20  C   UNL     1      28.804  44.618  54.475  1.00  0.00     0.092 A 
HETATM   21  C   UNL     1      28.213  45.717  55.111  1.00  0.00     0.045 A 
HETATM   22  C   UNL     1      28.747  46.214  56.304  1.00  0.00     0.028 A 
HETATM   23 BR   UNL     1      26.655  46.544  54.411  1.00  0.00    -0.048 Br
HETATM   24  C   UNL     1      29.891  45.629  56.861  1.00  0.00    -0.060 A 
HETATM   25  C   UNL     1      30.420  46.100  58.183  1.00  0.00     0.048 C 
HETATM   26  C   UNL     1      30.498  44.553  56.200  1.00  0.00     0.016 A 
HETATM   27  C   UNL     1      29.987  44.058  54.988  1.00  0.00    -0.027 A 
HETATM   28  C   UNL     1      30.690  42.909  54.322  1.00  0.00     0.051 C 
ENDBRANCH  19  20
ENDBRANCH  18  19
ENDBRANCH   1  18
TORSDOF 5
ENDMDL
MODEL 8
REMARK VINA RESULT:      -8.5      5.514      9.156
REMARK  5 active torsions:
REMARK  status: ('A' for Active; 'I' for Inactive)
REMARK    1  A    between atoms: C_6  and  O_7 
REMARK    2  A    between atoms: O_7  and  C_8 
REMARK    3  A    between atoms: C_8  and  C_9 
REMARK       I    between atoms: C_9  and  N_10 
REMARK    4  A    between atoms: N_10  and  N_11 
REMARK    5  A    between atoms: C_12  and  C_13 
ROOT
HETATM    1  C   UNL     1      27.401  41.348  51.650  1.00  0.00     0.261 C 
HETATM    2  N   UNL     1      28.001  41.006  52.851  1.00  0.00    -0.246 N 
HETATM    3  O   UNL     1      26.897  42.443  51.399  1.00  0.00    -0.269 OA
HETATM    4  H   UNL     1      28.360  40.068  52.998  1.00  0.00     0.192 HD
ENDROOT
BRANCH   2   5
HETATM    5  N   UNL     1      28.132  41.976  53.795  1.00  0.00    -0.184 NA
HETATM    6  C   UNL     1      29.060  42.860  53.643  1.00  0.00     0.153 C 
BRANCH   6   7
HETATM    7  C   UNL     1      29.168  43.924  54.630  1.00  0.00     0.018 A 
HETATM    8  C   UNL     1      30.073  44.013  55.745  1.00  0.00     0.004 A 
HETATM    9  C   UNL     1      29.791  45.197  56.423  1.00  0.00     0.043 A 
HETATM   10  C   UNL     1      31.106  43.192  56.250  1.00  0.00     0.014 A 
HETATM   11  C   UNL     1      30.481  45.600  57.574  1.00  0.00     0.030 A 
HETATM   12  N   UNL     1      28.766  45.812  55.748  1.00  0.00    -0.358 N 
HETATM   13  C   UNL     1      31.497  44.766  58.050  1.00  0.00     0.002 A 
HETATM   14  C   UNL     1      31.808  43.576  57.397  1.00  0.00     0.001 A 
HETATM   15  H   UNL     1      28.359  46.695  56.025  1.00  0.00     0.166 HD
HETATM   16  C   UNL     1      28.370  45.061  54.667  1.00  0.00     0.018 A 
HETATM   17  C   UNL     1      27.264  45.515  53.784  1.00  0.00     0.069 C 
ENDBRANCH   6   7
ENDBRANCH   2   5
BRANCH   1  18
HETATM   18  C   UNL     1      27.493  40.277  50.570  1.00  0.00     0.280 C 
BRANCH  18  19
HETATM   19  O   UNL     1      28.522  40.498  49.602  1.00  0.00    -0.340 OA
BRANCH  19  20
HETATM   20  C   UNL     1      28.422  39.558  48.599  1.00  0.00     0.092 A 
HETATM   21  C   UNL     1      29.002  38.297  48.787  1.00  0.00     0.045 A 
HETATM   22  C   UNL     1      28.846  37.298  47.822  1.00  0.00     0.028 A 
HETATM   23 BR   UNL     1      29.977  37.882  50.362  1.00  0.00    -0.048 Br
HETATM   24  C   UNL     1      28.128  37.557  46.649  1.00  0.00    -0.060 A 
HETATM   25  C   UNL     1      27.883  36.467  45.648  1.00  0.00     0.048 C 
HETATM   26  C   UNL     1      27.582  38.833  46.451  1.00  0.00     0.016 A 
HETATM   27  C   UNL     1      27.749  39.854  47.401  1.00  0.00    -0.027 A 
HETATM   28  C   UNL     1      27.149  41.204  47.125  1.00  0.00     0.051 C 
ENDBRANCH  19  20
ENDBRANCH  18  19
ENDBRANCH   1  18
TORSDOF 5
ENDMDL
MODEL 9
REMARK VINA RESULT:      -8.5      2.530      3.274
REMARK  5 active torsions:
REMARK  status: ('A' for Active; 'I' for Inactive)
REMARK    1  A    between atoms: C_6  and  O_7 
REMARK    2  A    between atoms: O_7  and  C_8 
REMARK    3  A    between atoms: C_8  and  C_9 
REMARK       I    between atoms: C_9  and  N_10 
REMARK    4  A    between atoms: N_10  and  N_11 
REMARK    5  A    between atoms: C_12  and  C_13 
ROOT
HETATM    1  C   UNL     1      25.575  44.627  52.951  1.00  0.00     0.261 C 
HETATM    2  N   UNL     1      25.832  45.652  52.056  1.00  0.00    -0.246 N 
HETATM    3  O   UNL     1      24.469  44.117  53.141  1.00  0.00    -0.269 OA
HETATM    4  H   UNL     1      26.764  46.049  51.983  1.00  0.00     0.192 HD
ENDROOT
BRANCH   2   5
HETATM    5  N   UNL     1      24.816  46.068  51.254  1.00  0.00    -0.184 NA
HETATM    6  C   UNL     1      24.889  45.819  49.990  1.00  0.00     0.153 C 
BRANCH   6   7
HETATM    7  C   UNL     1      23.778  46.222  49.142  1.00  0.00     0.018 A 
HETATM    8  C   UNL     1      22.917  45.386  48.348  1.00  0.00     0.004 A 
HETATM    9  C   UNL     1      22.014  46.217  47.688  1.00  0.00     0.043 A 
HETATM   10  C   UNL     1      22.824  43.994  48.120  1.00  0.00     0.014 A 
HETATM   11  C   UNL     1      21.030  45.734  46.815  1.00  0.00     0.030 A 
HETATM   12  N   UNL     1      22.301  47.504  48.068  1.00  0.00    -0.358 N 
HETATM   13  C   UNL     1      20.964  44.352  46.609  1.00  0.00     0.002 A 
HETATM   14  C   UNL     1      21.848  43.491  47.253  1.00  0.00     0.001 A 
HETATM   15  H   UNL     1      21.796  48.315  47.737  1.00  0.00     0.166 HD
HETATM   16  C   UNL     1      23.364  47.533  48.940  1.00  0.00     0.018 A 
HETATM   17  C   UNL     1      23.870  48.819  49.485  1.00  0.00     0.069 C 
ENDBRANCH   6   7
ENDBRANCH   2   5
BRANCH   1  18
HETATM   18  C   UNL     1      26.810  44.070  53.647  1.00  0.00     0.280 C 
BRANCH  18  19
HETATM   19  O   UNL     1      28.042  44.668  53.238  1.00  0.00    -0.340 OA
BRANCH  19  20
HETATM   20  C   UNL     1      28.997  44.473  54.212  1.00  0.00     0.092 A 
HETATM   21  C   UNL     1      29.110  45.405  55.252  1.00  0.00     0.045 A 
HETATM   22  C   UNL     1      30.013  45.191  56.297  1.00  0.00     0.028 A 
HETATM   23 BR   UNL     1      28.025  46.961  55.306  1.00  0.00    -0.048 Br
HETATM   24  C   UNL     1      30.827  44.052  56.302  1.00  0.00    -0.060 A 
HETATM   25  C   UNL     1      31.737  43.771  57.461  1.00  0.00     0.048 C 
HETATM   26  C   UNL     1      30.735  43.143  55.240  1.00  0.00     0.016 A 
HETATM   27  C   UNL     1      29.848  43.355  54.171  1.00  0.00    -0.027 A 
HETATM   28  C   UNL     1      29.804  42.349  53.057  1.00  0.00     0.051 C 
ENDBRANCH  19  20
ENDBRANCH  18  19
ENDBRANCH   1  18
TORSDOF 5
ENDMDL
MODEL 10
REMARK VINA RESULT:      -8.4      5.220      8.719
REMARK  5 active torsions:
REMARK  status: ('A' for Active; 'I' for Inactive)
REMARK    1  A    between atoms: C_6  and  O_7 
REMARK    2  A    between atoms: O_7  and  C_8 
REMARK    3  A    between atoms: C_8  and  C_9 
REMARK       I    between atoms: C_9  and  N_10 
REMARK    4  A    between atoms: N_10  and  N_11 
REMARK    5  A    between atoms: C_12  and  C_13 
ROOT
HETATM    1  C   UNL     1      27.262  41.721  51.918  1.00  0.00     0.261 C 
HETATM    2  N   UNL     1      26.951  43.054  52.128  1.00  0.00    -0.246 N 
HETATM    3  O   UNL     1      27.926  41.022  52.685  1.00  0.00    -0.269 OA
HETATM    4  H   UNL     1      26.431  43.577  51.429  1.00  0.00     0.192 HD
ENDROOT
BRANCH   2   5
HETATM    5  N   UNL     1      27.319  43.616  53.310  1.00  0.00    -0.184 NA
HETATM    6  C   UNL     1      28.414  44.298  53.351  1.00  0.00     0.153 C 
BRANCH   6   7
HETATM    7  C   UNL     1      28.781  44.939  54.604  1.00  0.00     0.018 A 
HETATM    8  C   UNL     1      29.763  44.511  55.567  1.00  0.00     0.004 A 
HETATM    9  C   UNL     1      29.748  45.426  56.618  1.00  0.00     0.043 A 
HETATM   10  C   UNL     1      30.661  43.424  55.648  1.00  0.00     0.014 A 
HETATM   11  C   UNL     1      30.577  45.311  57.741  1.00  0.00     0.030 A 
HETATM   12  N   UNL     1      28.808  46.378  56.309  1.00  0.00    -0.358 N 
HETATM   13  C   UNL     1      31.455  44.223  57.793  1.00  0.00     0.002 A 
HETATM   14  C   UNL     1      31.499  43.291  56.761  1.00  0.00     0.001 A 
HETATM   15  H   UNL     1      28.589  47.166  56.902  1.00  0.00     0.166 HD
HETATM   16  C   UNL     1      28.208  46.102  55.103  1.00  0.00     0.018 A 
HETATM   17  C   UNL     1      27.145  46.986  54.558  1.00  0.00     0.069 C 
ENDBRANCH   6   7
ENDBRANCH   2   5
BRANCH   1  18
HETATM   18  C   UNL     1      26.623  41.109  50.678  1.00  0.00     0.280 C 
BRANCH  18  19
HETATM   19  O   UNL     1      27.523  40.906  49.585  1.00  0.00    -0.340 OA
BRANCH  19  20
HETATM   20  C   UNL     1      27.308  39.662  49.034  1.00  0.00     0.092 A 
HETATM   21  C   UNL     1      26.277  39.501  48.099  1.00  0.00     0.045 A 
HETATM   22  C   UNL     1      26.087  38.271  47.463  1.00  0.00     0.028 A 
HETATM   23 BR   UNL     1      25.132  40.941  47.632  1.00  0.00    -0.048 Br
HETATM   24  C   UNL     1      26.913  37.184  47.771  1.00  0.00    -0.060 A 
HETATM   25  C   UNL     1      26.772  35.885  47.032  1.00  0.00     0.048 C 
HETATM   26  C   UNL     1      27.919  37.342  48.734  1.00  0.00     0.016 A 
HETATM   27  C   UNL     1      28.108  38.566  49.398  1.00  0.00    -0.027 A 
HETATM   28  C   UNL     1      29.196  38.669  50.429  1.00  0.00     0.051 C 
ENDBRANCH  19  20
ENDBRANCH  18  19
ENDBRANCH   1  18
TORSDOF 5
ENDMDL
