MODEL 1
REMARK VINA RESULT:      -9.8      0.000      0.000
REMARK  6 active torsions:
REMARK  status: ('A' for Active; 'I' for Inactive)
REMARK    1  A    between atoms: C_2  and  C_3 
REMARK    2  A    between atoms: C_3  and  C_4 
REMARK    3  A    between atoms: N_7  and  C_9 
REMARK    4  A    between atoms: C_9  and  C_10 
REMARK    5  A    between atoms: N_23  and  C_24 
REMARK    6  A    between atoms: C_24  and  C_25 
ROOT
HETATM    1  C   UNL     1      25.180  45.635  51.470  1.00  0.00     0.119 C 
HETATM    2  N   UNL     1      26.456  45.239  50.898  1.00  0.00    -0.324 N 
HETATM    3  C   UNL     1      26.299  44.277  49.919  1.00  0.00     0.326 C 
HETATM    4  O   UNL     1      27.218  43.925  49.203  1.00  0.00    -0.247 OA
HETATM    5  N   UNL     1      25.016  43.844  49.930  1.00  0.00    -0.264 N 
HETATM    6  C   UNL     1      24.279  44.546  50.838  1.00  0.00     0.257 C 
HETATM    7  O   UNL     1      23.103  44.367  51.115  1.00  0.00    -0.270 OA
HETATM    8  H   UNL     1      27.223  45.879  50.721  1.00  0.00     0.165 HD
ENDROOT
BRANCH   1   9
HETATM    9  C   UNL     1      24.793  47.011  50.874  1.00  0.00     0.037 C 
HETATM   10  C   UNL     1      25.915  47.767  50.175  1.00  0.00     0.008 C 
ENDBRANCH   1   9
BRANCH   1  11
HETATM   11  C   UNL     1      25.163  45.552  53.030  1.00  0.00     0.026 C 
HETATM   12  C   UNL     1      26.131  46.525  53.724  1.00  0.00     0.035 C 
HETATM   13  C   UNL     1      27.589  46.079  53.716  1.00  0.00     0.235 C 
HETATM   14  N   UNL     1      27.731  44.689  54.286  1.00  0.00    -0.067 N 
HETATM   15  H   UNL     1      27.461  44.742  55.276  1.00  0.00     0.280 HD
HETATM   16  C   UNL     1      26.828  43.673  53.621  1.00  0.00     0.235 C 
HETATM   17  C   UNL     1      25.385  44.147  53.629  1.00  0.00     0.035 C 
BRANCH  14  18
HETATM   18  C   UNL     1      29.164  44.175  54.260  1.00  0.00     0.273 C 
BRANCH  18  19
HETATM   19  C   UNL     1      29.911  44.309  55.559  1.00  0.00    -0.027 A 
HETATM   20  C   UNL     1      29.702  45.402  56.411  1.00  0.00     0.051 A 
HETATM   21  C   UNL     1      30.429  45.511  57.599  1.00  0.00     0.119 A 
HETATM   22  F   UNL     1      30.216  46.566  58.394  1.00  0.00    -0.206 F 
HETATM   23  C   UNL     1      31.368  44.558  57.962  1.00  0.00     0.084 A 
HETATM   24  C   UNL     1      31.573  43.476  57.120  1.00  0.00     0.119 A 
HETATM   25  F   UNL     1      32.480  42.547  57.443  1.00  0.00    -0.206 F 
HETATM   26  C   UNL     1      30.860  43.341  55.931  1.00  0.00     0.051 A 
ENDBRANCH  18  19
ENDBRANCH  14  18
ENDBRANCH   1  11
BRANCH   5  27
HETATM   27  C   UNL     1      24.503  42.794  49.079  1.00  0.00     0.175 C 
BRANCH  27  28
HETATM   28  C   UNL     1      25.284  41.512  49.252  1.00  0.00    -0.037 A 
HETATM   29  C   UNL     1      25.663  40.757  48.130  1.00  0.00     0.048 A 
HETATM   30  C   UNL     1      26.392  39.606  48.339  1.00  0.00     0.105 A 
HETATM   31  C   UNL     1      26.733  39.182  49.601  1.00  0.00     0.105 A 
HETATM   32  O   UNL     1      26.855  38.772  47.370  1.00  0.00    -0.323 OA
HETATM   33  O   UNL     1      27.457  38.031  49.583  1.00  0.00    -0.323 OA
HETATM   34  C   UNL     1      26.360  39.880  50.727  1.00  0.00     0.040 A 
HETATM   35  C   UNL     1      27.611  37.830  48.161  1.00  0.00     0.352 A 
HETATM   36  C   UNL     1      25.626  41.057  50.548  1.00  0.00     0.012 A 
ENDBRANCH  27  28
ENDBRANCH   5  27
TORSDOF 6
ENDMDL
MODEL 2
REMARK VINA RESULT:      -9.5      2.542      6.249
REMARK  6 active torsions:
REMARK  status: ('A' for Active; 'I' for Inactive)
REMARK    1  A    between atoms: C_2  and  C_3 
REMARK    2  A    between atoms: C_3  and  C_4 
REMARK    3  A    between atoms: N_7  and  C_9 
REMARK    4  A    between atoms: C_9  and  C_10 
REMARK    5  A    between atoms: N_23  and  C_24 
REMARK    6  A    between atoms: C_24  and  C_25 
ROOT
HETATM    1  C   UNL     1      25.425  43.101  49.898  1.00  0.00     0.119 C 
HETATM    2  N   UNL     1      24.873  43.069  51.243  1.00  0.00    -0.324 N 
HETATM    3  C   UNL     1      24.978  44.297  51.866  1.00  0.00     0.326 C 
HETATM    4  O   UNL     1      24.436  44.533  52.930  1.00  0.00    -0.247 OA
HETATM    5  N   UNL     1      25.750  45.110  51.107  1.00  0.00    -0.264 N 
HETATM    6  C   UNL     1      26.106  44.491  49.945  1.00  0.00     0.257 C 
HETATM    7  O   UNL     1      26.832  44.941  49.073  1.00  0.00    -0.270 OA
HETATM    8  H   UNL     1      24.042  42.549  51.504  1.00  0.00     0.165 HD
ENDROOT
BRANCH   1   9
HETATM    9  C   UNL     1      24.245  43.158  48.896  1.00  0.00     0.037 C 
HETATM   10  C   UNL     1      22.949  42.509  49.365  1.00  0.00     0.008 C 
ENDBRANCH   1   9
BRANCH   1  11
HETATM   11  C   UNL     1      26.466  41.965  49.643  1.00  0.00     0.026 C 
HETATM   12  C   UNL     1      26.133  40.635  50.339  1.00  0.00     0.035 C 
HETATM   13  C   UNL     1      26.461  40.602  51.828  1.00  0.00     0.235 C 
HETATM   14  N   UNL     1      27.900  40.985  52.072  1.00  0.00    -0.067 N 
HETATM   15  H   UNL     1      28.482  40.255  51.642  1.00  0.00     0.280 HD
HETATM   16  C   UNL     1      28.284  42.305  51.441  1.00  0.00     0.235 C 
HETATM   17  C   UNL     1      27.935  42.318  49.962  1.00  0.00     0.035 C 
BRANCH  14  18
HETATM   18  C   UNL     1      28.270  41.012  53.549  1.00  0.00     0.273 C 
BRANCH  18  19
HETATM   19  C   UNL     1      28.536  42.381  54.113  1.00  0.00    -0.027 A 
HETATM   20  C   UNL     1      29.815  42.752  54.551  1.00  0.00     0.051 A 
HETATM   21  C   UNL     1      30.026  44.022  55.092  1.00  0.00     0.119 A 
HETATM   22  F   UNL     1      31.253  44.353  55.510  1.00  0.00    -0.206 F 
HETATM   23  C   UNL     1      28.991  44.937  55.214  1.00  0.00     0.084 A 
HETATM   24  C   UNL     1      27.728  44.571  54.778  1.00  0.00     0.119 A 
HETATM   25  F   UNL     1      26.711  45.432  54.892  1.00  0.00    -0.206 F 
HETATM   26  C   UNL     1      27.490  43.311  54.232  1.00  0.00     0.051 A 
ENDBRANCH  18  19
ENDBRANCH  14  18
ENDBRANCH   1  11
BRANCH   5  27
HETATM   27  C   UNL     1      26.126  46.456  51.478  1.00  0.00     0.175 C 
BRANCH  27  28
HETATM   28  C   UNL     1      25.717  47.455  50.420  1.00  0.00    -0.037 A 
HETATM   29  C   UNL     1      24.365  47.602  50.071  1.00  0.00     0.048 A 
HETATM   30  C   UNL     1      24.040  48.541  49.116  1.00  0.00     0.105 A 
HETATM   31  C   UNL     1      24.998  49.309  48.498  1.00  0.00     0.105 A 
HETATM   32  O   UNL     1      22.785  48.826  48.675  1.00  0.00    -0.323 OA
HETATM   33  O   UNL     1      24.465  50.175  47.595  1.00  0.00    -0.323 OA
HETATM   34  C   UNL     1      26.336  49.178  48.795  1.00  0.00     0.040 A 
HETATM   35  C   UNL     1      23.055  49.929  47.784  1.00  0.00     0.352 A 
HETATM   36  C   UNL     1      26.697  48.238  49.766  1.00  0.00     0.012 A 
ENDBRANCH  27  28
ENDBRANCH   5  27
TORSDOF 6
ENDMDL
MODEL 3
REMARK VINA RESULT:      -9.4      3.196      6.420
REMARK  6 active torsions:
REMARK  status: ('A' for Active; 'I' for Inactive)
REMARK    1  A    between atoms: C_2  and  C_3 
REMARK    2  A    between atoms: C_3  and  C_4 
REMARK    3  A    between atoms: N_7  and  C_9 
REMARK    4  A    between atoms: C_9  and  C_10 
REMARK    5  A    between atoms: N_23  and  C_24 
REMARK    6  A    between atoms: C_24  and  C_25 
ROOT
HETATM    1  C   UNL     1      24.843  44.895  50.720  1.00  0.00     0.119 C 
HETATM    2  N   UNL     1      23.730  43.973  50.559  1.00  0.00    -0.324 N 
HETATM    3  C   UNL     1      22.918  44.336  49.502  1.00  0.00     0.326 C 
HETATM    4  O   UNL     1      22.025  43.616  49.094  1.00  0.00    -0.247 OA
HETATM    5  N   UNL     1      23.291  45.560  49.060  1.00  0.00    -0.264 N 
HETATM    6  C   UNL     1      24.389  46.003  49.739  1.00  0.00     0.257 C 
HETATM    7  O   UNL     1      24.940  47.084  49.604  1.00  0.00    -0.270 OA
HETATM    8  H   UNL     1      23.797  42.971  50.696  1.00  0.00     0.165 HD
ENDROOT
BRANCH   1   9
HETATM    9  C   UNL     1      26.114  44.216  50.152  1.00  0.00     0.037 C 
HETATM   10  C   UNL     1      26.037  42.704  49.985  1.00  0.00     0.008 C 
ENDBRANCH   1   9
BRANCH   1  11
HETATM   11  C   UNL     1      24.970  45.442  52.177  1.00  0.00     0.026 C 
HETATM   12  C   UNL     1      26.134  46.426  52.383  1.00  0.00     0.035 C 
HETATM   13  C   UNL     1      27.502  45.768  52.512  1.00  0.00     0.235 C 
HETATM   14  N   UNL     1      27.496  44.716  53.595  1.00  0.00    -0.067 N 
HETATM   15  H   UNL     1      27.336  45.205  54.486  1.00  0.00     0.280 HD
HETATM   16  C   UNL     1      26.392  43.694  53.431  1.00  0.00     0.235 C 
HETATM   17  C   UNL     1      25.041  44.376  53.291  1.00  0.00     0.035 C 
BRANCH  14  18
HETATM   18  C   UNL     1      28.828  43.993  53.736  1.00  0.00     0.273 C 
BRANCH  18  19
HETATM   19  C   UNL     1      29.560  44.255  55.025  1.00  0.00    -0.027 A 
HETATM   20  C   UNL     1      30.630  43.447  55.432  1.00  0.00     0.051 A 
HETATM   21  C   UNL     1      31.273  43.701  56.646  1.00  0.00     0.119 A 
HETATM   22  F   UNL     1      32.289  42.913  57.018  1.00  0.00    -0.206 F 
HETATM   23  C   UNL     1      30.875  44.740  57.473  1.00  0.00     0.084 A 
HETATM   24  C   UNL     1      29.818  45.540  57.068  1.00  0.00     0.119 A 
HETATM   25  F   UNL     1      29.409  46.544  57.851  1.00  0.00    -0.206 F 
HETATM   26  C   UNL     1      29.161  45.311  55.861  1.00  0.00     0.051 A 
ENDBRANCH  18  19
ENDBRANCH  14  18
ENDBRANCH   1  11
BRANCH   5  27
HETATM   27  C   UNL     1      22.623  46.283  48.002  1.00  0.00     0.175 C 
BRANCH  27  28
HETATM   28  C   UNL     1      21.502  47.142  48.541  1.00  0.00    -0.037 A 
HETATM   29  C   UNL     1      21.761  48.453  48.972  1.00  0.00     0.048 A 
HETATM   30  C   UNL     1      20.702  49.204  49.437  1.00  0.00     0.105 A 
HETATM   31  C   UNL     1      19.426  48.697  49.502  1.00  0.00     0.105 A 
HETATM   32  O   UNL     1      20.770  50.491  49.872  1.00  0.00    -0.323 OA
HETATM   33  O   UNL     1      18.532  49.602  49.982  1.00  0.00    -0.323 OA
HETATM   34  C   UNL     1      19.136  47.409  49.112  1.00  0.00     0.040 A 
HETATM   35  C   UNL     1      19.376  50.766  50.123  1.00  0.00     0.352 A 
HETATM   36  C   UNL     1      20.188  46.624  48.629  1.00  0.00     0.012 A 
ENDBRANCH  27  28
ENDBRANCH   5  27
TORSDOF 6
ENDMDL
MODEL 4
REMARK VINA RESULT:      -9.2      1.138      2.135
REMARK  6 active torsions:
REMARK  status: ('A' for Active; 'I' for Inactive)
REMARK    1  A    between atoms: C_2  and  C_3 
REMARK    2  A    between atoms: C_3  and  C_4 
REMARK    3  A    between atoms: N_7  and  C_9 
REMARK    4  A    between atoms: C_9  and  C_10 
REMARK    5  A    between atoms: N_23  and  C_24 
REMARK    6  A    between atoms: C_24  and  C_25 
ROOT
HETATM    1  C   UNL     1      25.053  44.637  51.394  1.00  0.00     0.119 C 
HETATM    2  N   UNL     1      26.373  44.516  50.796  1.00  0.00    -0.324 N 
HETATM    3  C   UNL     1      26.432  43.468  49.900  1.00  0.00     0.326 C 
HETATM    4  O   UNL     1      27.392  43.291  49.172  1.00  0.00    -0.247 OA
HETATM    5  N   UNL     1      25.296  42.739  50.000  1.00  0.00    -0.264 N 
HETATM    6  C   UNL     1      24.431  43.314  50.885  1.00  0.00     0.257 C 
HETATM    7  O   UNL     1      23.343  42.878  51.227  1.00  0.00    -0.270 OA
HETATM    8  H   UNL     1      26.955  45.307  50.539  1.00  0.00     0.165 HD
ENDROOT
BRANCH   1   9
HETATM    9  C   UNL     1      24.325  45.824  50.714  1.00  0.00     0.037 C 
HETATM   10  C   UNL     1      25.224  46.849  50.036  1.00  0.00     0.008 C 
ENDBRANCH   1   9
BRANCH   1  11
HETATM   11  C   UNL     1      25.096  44.683  52.954  1.00  0.00     0.026 C 
HETATM   12  C   UNL     1      25.838  45.900  53.531  1.00  0.00     0.035 C 
HETATM   13  C   UNL     1      27.358  45.789  53.492  1.00  0.00     0.235 C 
HETATM   14  N   UNL     1      27.824  44.517  54.158  1.00  0.00    -0.067 N 
HETATM   15  H   UNL     1      27.574  44.591  55.152  1.00  0.00     0.280 HD
HETATM   16  C   UNL     1      27.155  43.275  53.611  1.00  0.00     0.235 C 
HETATM   17  C   UNL     1      25.642  43.416  53.647  1.00  0.00     0.035 C 
BRANCH  14  18
HETATM   18  C   UNL     1      29.335  44.333  54.108  1.00  0.00     0.273 C 
BRANCH  18  19
HETATM   19  C   UNL     1      30.026  44.390  55.442  1.00  0.00    -0.027 A 
HETATM   20  C   UNL     1      30.897  43.373  55.856  1.00  0.00     0.051 A 
HETATM   21  C   UNL     1      31.505  43.442  57.112  1.00  0.00     0.119 A 
HETATM   22  F   UNL     1      32.328  42.457  57.488  1.00  0.00    -0.206 F 
HETATM   23  C   UNL     1      31.265  44.501  57.974  1.00  0.00     0.084 A 
HETATM   24  C   UNL     1      30.407  45.508  57.563  1.00  0.00     0.119 A 
HETATM   25  F   UNL     1      30.152  46.537  58.380  1.00  0.00    -0.206 F 
HETATM   26  C   UNL     1      29.789  45.466  56.315  1.00  0.00     0.051 A 
ENDBRANCH  18  19
ENDBRANCH  14  18
ENDBRANCH   1  11
BRANCH   5  27
HETATM   27  C   UNL     1      25.035  41.529  49.253  1.00  0.00     0.175 C 
BRANCH  27  28
HETATM   28  C   UNL     1      26.275  40.671  49.141  1.00  0.00    -0.037 A 
HETATM   29  C   UNL     1      26.989  40.308  50.295  1.00  0.00     0.048 A 
HETATM   30  C   UNL     1      28.101  39.507  50.143  1.00  0.00     0.105 A 
HETATM   31  C   UNL     1      28.525  39.081  48.907  1.00  0.00     0.105 A 
HETATM   32  O   UNL     1      28.893  39.047  51.148  1.00  0.00    -0.323 OA
HETATM   33  O   UNL     1      29.634  38.297  48.981  1.00  0.00    -0.323 OA
HETATM   34  C   UNL     1      27.867  39.435  47.751  1.00  0.00     0.040 A 
HETATM   35  C   UNL     1      29.803  38.203  50.412  1.00  0.00     0.352 A 
HETATM   36  C   UNL     1      26.730  40.241  47.873  1.00  0.00     0.012 A 
ENDBRANCH  27  28
ENDBRANCH   5  27
TORSDOF 6
ENDMDL
MODEL 5
REMARK VINA RESULT:      -9.2      1.950      2.682
REMARK  6 active torsions:
REMARK  status: ('A' for Active; 'I' for Inactive)
REMARK    1  A    between atoms: C_2  and  C_3 
REMARK    2  A    between atoms: C_3  and  C_4 
REMARK    3  A    between atoms: N_7  and  C_9 
REMARK    4  A    between atoms: C_9  and  C_10 
REMARK    5  A    between atoms: N_23  and  C_24 
REMARK    6  A    between atoms: C_24  and  C_25 
ROOT
HETATM    1  C   UNL     1      26.187  44.451  51.743  1.00  0.00     0.119 C 
HETATM    2  N   UNL     1      27.481  43.926  52.149  1.00  0.00    -0.324 N 
HETATM    3  C   UNL     1      27.659  42.624  51.723  1.00  0.00     0.326 C 
HETATM    4  O   UNL     1      28.730  42.053  51.815  1.00  0.00    -0.247 OA
HETATM    5  N   UNL     1      26.487  42.159  51.230  1.00  0.00    -0.264 N 
HETATM    6  C   UNL     1      25.539  43.139  51.236  1.00  0.00     0.257 C 
HETATM    7  O   UNL     1      24.371  43.025  50.896  1.00  0.00    -0.270 OA
HETATM    8  H   UNL     1      28.336  44.471  52.162  1.00  0.00     0.165 HD
ENDROOT
BRANCH   1   9
HETATM    9  C   UNL     1      26.409  45.396  50.537  1.00  0.00     0.037 C 
HETATM   10  C   UNL     1      25.208  45.592  49.622  1.00  0.00     0.008 C 
ENDBRANCH   1   9
BRANCH   1  11
HETATM   11  C   UNL     1      25.381  45.061  52.934  1.00  0.00     0.026 C 
HETATM   12  C   UNL     1      25.506  46.588  53.065  1.00  0.00     0.035 C 
HETATM   13  C   UNL     1      26.807  47.062  53.703  1.00  0.00     0.235 C 
HETATM   14  N   UNL     1      27.029  46.393  55.038  1.00  0.00    -0.067 N 
HETATM   15  H   UNL     1      26.278  46.713  55.662  1.00  0.00     0.280 HD
HETATM   16  C   UNL     1      26.952  44.883  54.971  1.00  0.00     0.235 C 
HETATM   17  C   UNL     1      25.654  44.437  54.319  1.00  0.00     0.035 C 
BRANCH  14  18
HETATM   18  C   UNL     1      28.339  46.797  55.700  1.00  0.00     0.273 C 
BRANCH  18  19
HETATM   19  C   UNL     1      29.321  45.676  55.902  1.00  0.00    -0.027 A 
HETATM   20  C   UNL     1      29.535  44.706  54.913  1.00  0.00     0.051 A 
HETATM   21  C   UNL     1      30.436  43.663  55.140  1.00  0.00     0.119 A 
HETATM   22  F   UNL     1      30.618  42.745  54.184  1.00  0.00    -0.206 F 
HETATM   23  C   UNL     1      31.131  43.556  56.335  1.00  0.00     0.084 A 
HETATM   24  C   UNL     1      30.922  44.517  57.312  1.00  0.00     0.119 A 
HETATM   25  F   UNL     1      31.575  44.432  58.476  1.00  0.00    -0.206 F 
HETATM   26  C   UNL     1      30.032  45.569  57.110  1.00  0.00     0.051 A 
ENDBRANCH  18  19
ENDBRANCH  14  18
ENDBRANCH   1  11
BRANCH   5  27
HETATM   27  C   UNL     1      26.283  40.811  50.748  1.00  0.00     0.175 C 
BRANCH  27  28
HETATM   28  C   UNL     1      26.343  40.749  49.239  1.00  0.00    -0.037 A 
HETATM   29  C   UNL     1      27.524  41.097  48.563  1.00  0.00     0.048 A 
HETATM   30  C   UNL     1      27.535  41.004  47.188  1.00  0.00     0.105 A 
HETATM   31  C   UNL     1      26.428  40.602  46.478  1.00  0.00     0.105 A 
HETATM   32  O   UNL     1      28.595  41.281  46.381  1.00  0.00    -0.323 OA
HETATM   33  O   UNL     1      26.654  40.573  45.138  1.00  0.00    -0.323 OA
HETATM   34  C   UNL     1      25.245  40.277  47.102  1.00  0.00     0.040 A 
HETATM   35  C   UNL     1      28.058  40.912  45.093  1.00  0.00     0.352 A 
HETATM   36  C   UNL     1      25.204  40.354  48.498  1.00  0.00     0.012 A 
ENDBRANCH  27  28
ENDBRANCH   5  27
TORSDOF 6
ENDMDL
MODEL 6
REMARK VINA RESULT:      -8.9      2.142      3.111
REMARK  6 active torsions:
REMARK  status: ('A' for Active; 'I' for Inactive)
REMARK    1  A    between atoms: C_2  and  C_3 
REMARK    2  A    between atoms: C_3  and  C_4 
REMARK    3  A    between atoms: N_7  and  C_9 
REMARK    4  A    between atoms: C_9  and  C_10 
REMARK    5  A    between atoms: N_23  and  C_24 
REMARK    6  A    between atoms: C_24  and  C_25 
ROOT
HETATM    1  C   UNL     1      25.074  44.797  51.110  1.00  0.00     0.119 C 
HETATM    2  N   UNL     1      26.393  44.530  50.561  1.00  0.00    -0.324 N 
HETATM    3  C   UNL     1      26.417  43.351  49.842  1.00  0.00     0.326 C 
HETATM    4  O   UNL     1      27.376  43.023  49.168  1.00  0.00    -0.247 OA
HETATM    5  N   UNL     1      25.250  42.693  50.037  1.00  0.00    -0.264 N 
HETATM    6  C   UNL     1      24.402  43.435  50.806  1.00  0.00     0.257 C 
HETATM    7  O   UNL     1      23.292  43.103  51.194  1.00  0.00    -0.270 OA
HETATM    8  H   UNL     1      27.011  45.245  50.192  1.00  0.00     0.165 HD
ENDROOT
BRANCH   1   9
HETATM    9  C   UNL     1      24.404  45.889  50.240  1.00  0.00     0.037 C 
HETATM   10  C   UNL     1      23.487  45.382  49.135  1.00  0.00     0.008 C 
ENDBRANCH   1   9
BRANCH   1  11
HETATM   11  C   UNL     1      25.103  45.087  52.645  1.00  0.00     0.026 C 
HETATM   12  C   UNL     1      26.039  46.236  53.052  1.00  0.00     0.035 C 
HETATM   13  C   UNL     1      27.517  45.862  53.095  1.00  0.00     0.235 C 
HETATM   14  N   UNL     1      27.743  44.655  53.972  1.00  0.00    -0.067 N 
HETATM   15  H   UNL     1      27.496  44.930  54.931  1.00  0.00     0.280 HD
HETATM   16  C   UNL     1      26.874  43.473  53.600  1.00  0.00     0.235 C 
HETATM   17  C   UNL     1      25.409  43.875  53.550  1.00  0.00     0.035 C 
BRANCH  14  18
HETATM   18  C   UNL     1      29.198  44.210  54.014  1.00  0.00     0.273 C 
BRANCH  18  19
HETATM   19  C   UNL     1      29.859  44.324  55.361  1.00  0.00    -0.027 A 
HETATM   20  C   UNL     1      29.604  45.410  56.208  1.00  0.00     0.051 A 
HETATM   21  C   UNL     1      30.251  45.500  57.443  1.00  0.00     0.119 A 
HETATM   22  F   UNL     1      29.997  46.550  58.233  1.00  0.00    -0.206 F 
HETATM   23  C   UNL     1      31.156  44.535  57.857  1.00  0.00     0.084 A 
HETATM   24  C   UNL     1      31.406  43.459  57.020  1.00  0.00     0.119 A 
HETATM   25  F   UNL     1      32.280  42.518  57.393  1.00  0.00    -0.206 F 
HETATM   26  C   UNL     1      30.772  43.343  55.785  1.00  0.00     0.051 A 
ENDBRANCH  18  19
ENDBRANCH  14  18
ENDBRANCH   1  11
BRANCH   5  27
HETATM   27  C   UNL     1      24.946  41.392  49.486  1.00  0.00     0.175 C 
BRANCH  27  28
HETATM   28  C   UNL     1      24.236  41.507  48.157  1.00  0.00    -0.037 A 
HETATM   29  C   UNL     1      22.844  41.690  48.113  1.00  0.00     0.048 A 
HETATM   30  C   UNL     1      22.245  41.810  46.877  1.00  0.00     0.105 A 
HETATM   31  C   UNL     1      22.967  41.738  45.710  1.00  0.00     0.105 A 
HETATM   32  O   UNL     1      20.918  42.011  46.653  1.00  0.00    -0.323 OA
HETATM   33  O   UNL     1      22.186  41.887  44.607  1.00  0.00    -0.323 OA
HETATM   34  C   UNL     1      24.329  41.534  45.710  1.00  0.00     0.040 A 
HETATM   35  C   UNL     1      20.905  42.156  45.217  1.00  0.00     0.352 A 
HETATM   36  C   UNL     1      24.967  41.416  46.949  1.00  0.00     0.012 A 
ENDBRANCH  27  28
ENDBRANCH   5  27
TORSDOF 6
ENDMDL
MODEL 7
REMARK VINA RESULT:      -8.9      9.059     12.789
REMARK  6 active torsions:
REMARK  status: ('A' for Active; 'I' for Inactive)
REMARK    1  A    between atoms: C_2  and  C_3 
REMARK    2  A    between atoms: C_3  and  C_4 
REMARK    3  A    between atoms: N_7  and  C_9 
REMARK    4  A    between atoms: C_9  and  C_10 
REMARK    5  A    between atoms: N_23  and  C_24 
REMARK    6  A    between atoms: C_24  and  C_25 
ROOT
HETATM    1  C   UNL     1      20.328  50.083  48.668  1.00  0.00     0.119 C 
HETATM    2  N   UNL     1      19.469  48.955  48.990  1.00  0.00    -0.324 N 
HETATM    3  C   UNL     1      20.111  47.750  48.782  1.00  0.00     0.326 C 
HETATM    4  O   UNL     1      19.632  46.690  49.140  1.00  0.00    -0.247 OA
HETATM    5  N   UNL     1      21.283  47.980  48.144  1.00  0.00    -0.264 N 
HETATM    6  C   UNL     1      21.490  49.319  47.986  1.00  0.00     0.257 C 
HETATM    7  O   UNL     1      22.431  49.848  47.414  1.00  0.00    -0.270 OA
HETATM    8  H   UNL     1      18.817  48.941  49.767  1.00  0.00     0.165 HD
ENDROOT
BRANCH   1   9
HETATM    9  C   UNL     1      20.841  50.690  49.997  1.00  0.00     0.037 C 
HETATM   10  C   UNL     1      22.332  50.996  50.051  1.00  0.00     0.008 C 
ENDBRANCH   1   9
BRANCH   1  11
HETATM   11  C   UNL     1      19.657  51.094  47.684  1.00  0.00     0.026 C 
HETATM   12  C   UNL     1      19.279  52.441  48.323  1.00  0.00     0.035 C 
HETATM   13  C   UNL     1      18.004  52.408  49.157  1.00  0.00     0.235 C 
HETATM   14  N   UNL     1      16.849  51.854  48.358  1.00  0.00    -0.067 N 
HETATM   15  H   UNL     1      16.667  52.519  47.596  1.00  0.00     0.280 HD
HETATM   16  C   UNL     1      17.145  50.510  47.729  1.00  0.00     0.235 C 
HETATM   17  C   UNL     1      18.427  50.566  46.915  1.00  0.00     0.035 C 
BRANCH  14  18
HETATM   18  C   UNL     1      15.558  51.757  49.160  1.00  0.00     0.273 C 
BRANCH  18  19
HETATM   19  C   UNL     1      14.934  53.076  49.523  1.00  0.00    -0.027 A 
HETATM   20  C   UNL     1      14.605  53.387  50.850  1.00  0.00     0.051 A 
HETATM   21  C   UNL     1      14.004  54.611  51.152  1.00  0.00     0.119 A 
HETATM   22  F   UNL     1      13.694  54.883  52.424  1.00  0.00    -0.206 F 
HETATM   23  C   UNL     1      13.715  55.539  50.163  1.00  0.00     0.084 A 
HETATM   24  C   UNL     1      14.043  55.232  48.851  1.00  0.00     0.119 A 
HETATM   25  F   UNL     1      13.767  56.107  47.877  1.00  0.00    -0.206 F 
HETATM   26  C   UNL     1      14.646  54.020  48.522  1.00  0.00     0.051 A 
ENDBRANCH  18  19
ENDBRANCH  14  18
ENDBRANCH   1  11
BRANCH   5  27
HETATM   27  C   UNL     1      22.192  46.944  47.711  1.00  0.00     0.175 C 
BRANCH  27  28
HETATM   28  C   UNL     1      23.069  46.468  48.846  1.00  0.00    -0.037 A 
HETATM   29  C   UNL     1      23.866  47.383  49.555  1.00  0.00     0.048 A 
HETATM   30  C   UNL     1      24.633  46.903  50.595  1.00  0.00     0.105 A 
HETATM   31  C   UNL     1      24.646  45.571  50.934  1.00  0.00     0.105 A 
HETATM   32  O   UNL     1      25.442  47.648  51.395  1.00  0.00    -0.323 OA
HETATM   33  O   UNL     1      25.462  45.313  51.991  1.00  0.00    -0.323 OA
HETATM   34  C   UNL     1      23.898  44.640  50.249  1.00  0.00     0.040 A 
HETATM   35  C   UNL     1      25.887  46.649  52.337  1.00  0.00     0.352 A 
HETATM   36  C   UNL     1      23.104  45.097  49.192  1.00  0.00     0.012 A 
ENDBRANCH  27  28
ENDBRANCH   5  27
TORSDOF 6
ENDMDL
MODEL 8
REMARK VINA RESULT:      -8.9     12.725     15.197
REMARK  6 active torsions:
REMARK  status: ('A' for Active; 'I' for Inactive)
REMARK    1  A    between atoms: C_2  and  C_3 
REMARK    2  A    between atoms: C_3  and  C_4 
REMARK    3  A    between atoms: N_7  and  C_9 
REMARK    4  A    between atoms: C_9  and  C_10 
REMARK    5  A    between atoms: N_23  and  C_24 
REMARK    6  A    between atoms: C_24  and  C_25 
ROOT
HETATM    1  C   UNL     1      28.167  47.260  38.685  1.00  0.00     0.119 C 
HETATM    2  N   UNL     1      28.874  48.474  38.310  1.00  0.00    -0.324 N 
HETATM    3  C   UNL     1      30.183  48.458  38.748  1.00  0.00     0.326 C 
HETATM    4  O   UNL     1      30.993  49.300  38.404  1.00  0.00    -0.247 OA
HETATM    5  N   UNL     1      30.357  47.401  39.576  1.00  0.00    -0.264 N 
HETATM    6  C   UNL     1      29.219  46.652  39.646  1.00  0.00     0.257 C 
HETATM    7  O   UNL     1      29.040  45.661  40.338  1.00  0.00    -0.270 OA
HETATM    8  H   UNL     1      28.746  48.956  37.426  1.00  0.00     0.165 HD
ENDROOT
BRANCH   1   9
HETATM    9  C   UNL     1      28.059  46.360  37.430  1.00  0.00     0.037 C 
HETATM   10  C   UNL     1      26.987  45.279  37.483  1.00  0.00     0.008 C 
ENDBRANCH   1   9
BRANCH   1  11
HETATM   11  C   UNL     1      26.821  47.547  39.423  1.00  0.00     0.026 C 
HETATM   12  C   UNL     1      25.958  48.636  38.763  1.00  0.00     0.035 C 
HETATM   13  C   UNL     1      26.416  50.062  39.046  1.00  0.00     0.235 C 
HETATM   14  N   UNL     1      26.538  50.306  40.530  1.00  0.00    -0.067 N 
HETATM   15  H   UNL     1      25.591  50.233  40.924  1.00  0.00     0.280 HD
HETATM   16  C   UNL     1      27.404  49.286  41.236  1.00  0.00     0.235 C 
HETATM   17  C   UNL     1      26.936  47.874  40.927  1.00  0.00     0.035 C 
BRANCH  14  18
HETATM   18  C   UNL     1      27.036  51.704  40.868  1.00  0.00     0.273 C 
BRANCH  18  19
HETATM   19  C   UNL     1      28.422  52.021  40.377  1.00  0.00    -0.027 A 
HETATM   20  C   UNL     1      29.440  52.405  41.261  1.00  0.00     0.051 A 
HETATM   21  C   UNL     1      30.710  52.717  40.771  1.00  0.00     0.119 A 
HETATM   22  F   UNL     1      31.664  53.087  41.633  1.00  0.00    -0.206 F 
HETATM   23  C   UNL     1      30.996  52.660  39.415  1.00  0.00     0.084 A 
HETATM   24  C   UNL     1      29.991  52.277  38.541  1.00  0.00     0.119 A 
HETATM   25  F   UNL     1      30.239  52.222  37.228  1.00  0.00    -0.206 F 
HETATM   26  C   UNL     1      28.716  51.958  39.004  1.00  0.00     0.051 A 
ENDBRANCH  18  19
ENDBRANCH  14  18
ENDBRANCH   1  11
BRANCH   5  27
HETATM   27  C   UNL     1      31.589  47.104  40.271  1.00  0.00     0.175 C 
BRANCH  27  28
HETATM   28  C   UNL     1      31.988  48.232  41.194  1.00  0.00    -0.037 A 
HETATM   29  C   UNL     1      33.272  48.794  41.109  1.00  0.00     0.048 A 
HETATM   30  C   UNL     1      33.582  49.835  41.958  1.00  0.00     0.105 A 
HETATM   31  C   UNL     1      32.681  50.311  42.882  1.00  0.00     0.105 A 
HETATM   32  O   UNL     1      34.765  50.505  41.996  1.00  0.00    -0.323 OA
HETATM   33  O   UNL     1      33.184  51.342  43.612  1.00  0.00    -0.323 OA
HETATM   34  C   UNL     1      31.422  49.770  43.013  1.00  0.00     0.040 A 
HETATM   35  C   UNL     1      34.469  51.520  42.979  1.00  0.00     0.352 A 
HETATM   36  C   UNL     1      31.075  48.717  42.160  1.00  0.00     0.012 A 
ENDBRANCH  27  28
ENDBRANCH   5  27
TORSDOF 6
ENDMDL
MODEL 9
REMARK VINA RESULT:      -8.7     13.243     16.252
REMARK  6 active torsions:
REMARK  status: ('A' for Active; 'I' for Inactive)
REMARK    1  A    between atoms: C_2  and  C_3 
REMARK    2  A    between atoms: C_3  and  C_4 
REMARK    3  A    between atoms: N_7  and  C_9 
REMARK    4  A    between atoms: C_9  and  C_10 
REMARK    5  A    between atoms: N_23  and  C_24 
REMARK    6  A    between atoms: C_24  and  C_25 
ROOT
HETATM    1  C   UNL     1      30.590  52.292  41.183  1.00  0.00     0.119 C 
HETATM    2  N   UNL     1      30.561  50.879  40.838  1.00  0.00    -0.324 N 
HETATM    3  C   UNL     1      31.700  50.497  40.157  1.00  0.00     0.326 C 
HETATM    4  O   UNL     1      31.951  49.330  39.918  1.00  0.00    -0.247 OA
HETATM    5  N   UNL     1      32.412  51.603  39.836  1.00  0.00    -0.264 N 
HETATM    6  C   UNL     1      31.825  52.720  40.353  1.00  0.00     0.257 C 
HETATM    7  O   UNL     1      32.199  53.874  40.204  1.00  0.00    -0.270 OA
HETATM    8  H   UNL     1      30.183  50.155  41.439  1.00  0.00     0.165 HD
ENDROOT
BRANCH   1   9
HETATM    9  C   UNL     1      30.935  52.411  42.688  1.00  0.00     0.037 C 
HETATM   10  C   UNL     1      32.254  51.782  43.115  1.00  0.00     0.008 C 
ENDBRANCH   1   9
BRANCH   1  11
HETATM   11  C   UNL     1      29.306  53.054  40.726  1.00  0.00     0.026 C 
HETATM   12  C   UNL     1      28.014  52.586  41.418  1.00  0.00     0.035 C 
HETATM   13  C   UNL     1      27.438  51.287  40.867  1.00  0.00     0.235 C 
HETATM   14  N   UNL     1      27.241  51.373  39.374  1.00  0.00    -0.067 N 
HETATM   15  H   UNL     1      26.523  52.090  39.207  1.00  0.00     0.280 HD
HETATM   16  C   UNL     1      28.488  51.797  38.628  1.00  0.00     0.235 C 
HETATM   17  C   UNL     1      29.050  53.086  39.204  1.00  0.00     0.035 C 
BRANCH  14  18
HETATM   18  C   UNL     1      26.709  50.083  38.764  1.00  0.00     0.273 C 
BRANCH  18  19
HETATM   19  C   UNL     1      27.404  48.830  39.221  1.00  0.00    -0.027 A 
HETATM   20  C   UNL     1      26.883  48.044  40.258  1.00  0.00     0.051 A 
HETATM   21  C   UNL     1      27.565  46.899  40.676  1.00  0.00     0.119 A 
HETATM   22  F   UNL     1      27.052  46.167  41.672  1.00  0.00    -0.206 F 
HETATM   23  C   UNL     1      28.762  46.515  40.091  1.00  0.00     0.084 A 
HETATM   24  C   UNL     1      29.276  47.291  39.064  1.00  0.00     0.119 A 
HETATM   25  F   UNL     1      30.433  46.947  38.487  1.00  0.00    -0.206 F 
HETATM   26  C   UNL     1      28.615  48.436  38.625  1.00  0.00     0.051 A 
ENDBRANCH  18  19
ENDBRANCH  14  18
ENDBRANCH   1  11
BRANCH   5  27
HETATM   27  C   UNL     1      33.636  51.589  39.067  1.00  0.00     0.175 C 
BRANCH  27  28
HETATM   28  C   UNL     1      34.846  51.789  39.950  1.00  0.00    -0.037 A 
HETATM   29  C   UNL     1      35.191  50.820  40.907  1.00  0.00     0.048 A 
HETATM   30  C   UNL     1      36.315  51.039  41.674  1.00  0.00     0.105 A 
HETATM   31  C   UNL     1      37.080  52.173  41.535  1.00  0.00     0.105 A 
HETATM   32  O   UNL     1      36.802  50.200  42.628  1.00  0.00    -0.323 OA
HETATM   33  O   UNL     1      38.145  52.186  42.381  1.00  0.00    -0.323 OA
HETATM   34  C   UNL     1      36.762  53.156  40.626  1.00  0.00     0.040 A 
HETATM   35  C   UNL     1      38.014  50.889  43.001  1.00  0.00     0.352 A 
HETATM   36  C   UNL     1      35.630  52.960  39.827  1.00  0.00     0.012 A 
ENDBRANCH  27  28
ENDBRANCH   5  27
TORSDOF 6
ENDMDL
MODEL 10
REMARK VINA RESULT:      -8.7     11.688     13.969
REMARK  6 active torsions:
REMARK  status: ('A' for Active; 'I' for Inactive)
REMARK    1  A    between atoms: C_2  and  C_3 
REMARK    2  A    between atoms: C_3  and  C_4 
REMARK    3  A    between atoms: N_7  and  C_9 
REMARK    4  A    between atoms: C_9  and  C_10 
REMARK    5  A    between atoms: N_23  and  C_24 
REMARK    6  A    between atoms: C_24  and  C_25 
ROOT
HETATM    1  C   UNL     1      29.282  51.156  38.895  1.00  0.00     0.119 C 
HETATM    2  N   UNL     1      30.037  50.064  39.487  1.00  0.00    -0.324 N 
HETATM    3  C   UNL     1      29.514  48.834  39.136  1.00  0.00     0.326 C 
HETATM    4  O   UNL     1      30.087  47.791  39.389  1.00  0.00    -0.247 OA
HETATM    5  N   UNL     1      28.329  49.023  38.510  1.00  0.00    -0.264 N 
HETATM    6  C   UNL     1      28.072  50.354  38.355  1.00  0.00     0.257 C 
HETATM    7  O   UNL     1      27.068  50.850  37.868  1.00  0.00    -0.270 OA
HETATM    8  H   UNL     1      31.046  50.063  39.593  1.00  0.00     0.165 HD
ENDROOT
BRANCH   1   9
HETATM    9  C   UNL     1      30.092  51.706  37.695  1.00  0.00     0.037 C 
HETATM   10  C   UNL     1      31.575  51.360  37.686  1.00  0.00     0.008 C 
ENDBRANCH   1   9
BRANCH   1  11
HETATM   11  C   UNL     1      28.834  52.222  39.946  1.00  0.00     0.026 C 
HETATM   12  C   UNL     1      29.852  53.353  40.171  1.00  0.00     0.035 C 
HETATM   13  C   UNL     1      31.031  52.973  41.060  1.00  0.00     0.235 C 
HETATM   14  N   UNL     1      30.555  52.413  42.378  1.00  0.00    -0.067 N 
HETATM   15  H   UNL     1      30.070  53.174  42.869  1.00  0.00     0.280 HD
HETATM   16  C   UNL     1      29.575  51.271  42.226  1.00  0.00     0.235 C 
HETATM   17  C   UNL     1      28.417  51.670  41.325  1.00  0.00     0.035 C 
BRANCH  14  18
HETATM   18  C   UNL     1      31.695  51.974  43.288  1.00  0.00     0.273 C 
BRANCH  18  19
HETATM   19  C   UNL     1      32.720  51.085  42.639  1.00  0.00    -0.027 A 
HETATM   20  C   UNL     1      34.062  51.477  42.532  1.00  0.00     0.051 A 
HETATM   21  C   UNL     1      34.985  50.640  41.902  1.00  0.00     0.119 A 
HETATM   22  F   UNL     1      36.259  51.037  41.807  1.00  0.00    -0.206 F 
HETATM   23  C   UNL     1      34.607  49.418  41.368  1.00  0.00     0.084 A 
HETATM   24  C   UNL     1      33.281  49.029  41.476  1.00  0.00     0.119 A 
HETATM   25  F   UNL     1      32.889  47.858  40.962  1.00  0.00    -0.206 F 
HETATM   26  C   UNL     1      32.339  49.844  42.102  1.00  0.00     0.051 A 
ENDBRANCH  18  19
ENDBRANCH  14  18
ENDBRANCH   1  11
BRANCH   5  27
HETATM   27  C   UNL     1      27.468  47.954  38.056  1.00  0.00     0.175 C 
BRANCH  27  28
HETATM   28  C   UNL     1      26.573  47.455  39.167  1.00  0.00    -0.037 A 
HETATM   29  C   UNL     1      26.933  46.317  39.907  1.00  0.00     0.048 A 
HETATM   30  C   UNL     1      26.093  45.914  40.924  1.00  0.00     0.105 A 
HETATM   31  C   UNL     1      24.926  46.581  41.209  1.00  0.00     0.105 A 
HETATM   32  O   UNL     1      26.297  44.852  41.749  1.00  0.00    -0.323 OA
HETATM   33  O   UNL     1      24.252  46.024  42.251  1.00  0.00    -0.323 OA
HETATM   34  C   UNL     1      24.526  47.685  40.491  1.00  0.00     0.040 A 
HETATM   35  C   UNL     1      25.176  44.987  42.647  1.00  0.00     0.352 A 
HETATM   36  C   UNL     1      25.360  48.124  39.457  1.00  0.00     0.012 A 
ENDBRANCH  27  28
ENDBRANCH   5  27
TORSDOF 6
ENDMDL
