MODEL 1
REMARK VINA RESULT:      -9.5      0.000      0.000
REMARK  8 active torsions:
REMARK  status: ('A' for Active; 'I' for Inactive)
REMARK    1  A    between atoms: C_2  and  C_3 
REMARK    2  A    between atoms: C_4  and  O_5 
REMARK    3  A    between atoms: N_10  and  N_11 
REMARK       I    between atoms: N_11  and  C_12 
REMARK    4  A    between atoms: C_12  and  C_13 
REMARK    5  A    between atoms: C_13  and  N_14 
REMARK       I    between atoms: N_14  and  C_15 
REMARK    6  A    between atoms: C_15  and  C_16 
REMARK    7  A    between atoms: C_16  and  N_17 
REMARK       I    between atoms: N_17  and  C_18 
REMARK    8  A    between atoms: C_18  and  C_19 
ROOT
HETATM    1  C   UNL     1      26.376  46.387  49.716  1.00  0.00     0.227 C 
ENDROOT
BRANCH   1   2
HETATM    2  C   UNL     1      24.944  46.923  49.672  1.00  0.00     0.255 C 
HETATM    3  N   UNL     1      24.844  48.305  49.690  1.00  0.00    -0.246 N 
HETATM    4  H   UNL     1      25.682  48.870  49.576  1.00  0.00     0.192 HD
HETATM    5  O   UNL     1      23.979  46.161  49.737  1.00  0.00    -0.270 OA
BRANCH   3   6
HETATM    6  N   UNL     1      23.607  48.874  49.710  1.00  0.00    -0.176 NA
HETATM    7  C   UNL     1      23.316  49.819  48.864  1.00  0.00     0.064 C 
HETATM    8  C   UNL     1      24.303  50.390  47.875  1.00  0.00     0.073 C 
BRANCH   7   9
HETATM    9  C   UNL     1      21.927  50.377  48.895  1.00  0.00     0.023 A 
HETATM   10  C   UNL     1      21.401  50.913  50.080  1.00  0.00     0.077 A 
HETATM   11  C   UNL     1      20.119  51.464  50.103  1.00  0.00     0.037 A 
HETATM   12  C   UNL     1      19.339  51.464  48.947  1.00  0.00     0.003 A 
HETATM   13  C   UNL     1      19.838  50.908  47.772  1.00  0.00     0.001 A 
HETATM   14  C   UNL     1      21.126  50.364  47.744  1.00  0.00     0.016 A 
BRANCH  10  15
HETATM   15  O   UNL     1      22.085  50.940  51.266  1.00  0.00    -0.360 OA
HETATM   16  H   UNL     1      22.079  51.866  51.603  1.00  0.00     0.217 HD
ENDBRANCH  10  15
ENDBRANCH   7   9
ENDBRANCH   3   6
ENDBRANCH   1   2
BRANCH   1  17
HETATM   17  N   UNL     1      26.678  45.394  50.735  1.00  0.00    -0.351 N 
HETATM   18  C   UNL     1      26.868  44.065  50.423  1.00  0.00     0.235 C 
HETATM   19  O   UNL     1      26.973  43.649  49.273  1.00  0.00    -0.272 OA
HETATM   20  H   UNL     1      26.835  45.690  51.697  1.00  0.00     0.163 HD
BRANCH  18  21
HETATM   21  C   UNL     1      27.007  43.155  51.644  1.00  0.00     0.225 C 
BRANCH  21  22
HETATM   22  N   UNL     1      28.023  43.638  52.554  1.00  0.00    -0.348 N 
HETATM   23  C   UNL     1      27.804  43.717  53.904  1.00  0.00     0.253 C 
HETATM   24  O   UNL     1      26.685  43.499  54.373  1.00  0.00    -0.268 OA
HETATM   25  H   UNL     1      28.906  43.939  52.156  1.00  0.00     0.163 HD
BRANCH  23  26
HETATM   26  C   UNL     1      28.945  44.092  54.805  1.00  0.00     0.053 A 
HETATM   27  C   UNL     1      29.162  45.342  55.409  1.00  0.00     0.049 A 
HETATM   28 CL   UNL     1      28.144  46.725  55.201  1.00  0.00    -0.083 Cl
HETATM   29  C   UNL     1      30.270  45.535  56.252  1.00  0.00     0.025 A 
HETATM   30  C   UNL     1      31.167  44.499  56.503  1.00  0.00     0.002 A 
HETATM   31  C   UNL     1      30.973  43.262  55.903  1.00  0.00     0.001 A 
HETATM   32  C   UNL     1      29.880  43.066  55.057  1.00  0.00     0.019 A 
ENDBRANCH  23  26
ENDBRANCH  21  22
ENDBRANCH  18  21
ENDBRANCH   1  17
TORSDOF 8
ENDMDL
MODEL 2
REMARK VINA RESULT:      -9.2      1.791      2.028
REMARK  8 active torsions:
REMARK  status: ('A' for Active; 'I' for Inactive)
REMARK    1  A    between atoms: C_2  and  C_3 
REMARK    2  A    between atoms: C_4  and  O_5 
REMARK    3  A    between atoms: N_10  and  N_11 
REMARK       I    between atoms: N_11  and  C_12 
REMARK    4  A    between atoms: C_12  and  C_13 
REMARK    5  A    between atoms: C_13  and  N_14 
REMARK       I    between atoms: N_14  and  C_15 
REMARK    6  A    between atoms: C_15  and  C_16 
REMARK    7  A    between atoms: C_16  and  N_17 
REMARK       I    between atoms: N_17  and  C_18 
REMARK    8  A    between atoms: C_18  and  C_19 
ROOT
HETATM    1  C   UNL     1      24.386  46.513  49.302  1.00  0.00     0.227 C 
ENDROOT
BRANCH   1   2
HETATM    2  C   UNL     1      22.999  47.134  49.120  1.00  0.00     0.255 C 
HETATM    3  N   UNL     1      22.882  48.432  49.590  1.00  0.00    -0.246 N 
HETATM    4  H   UNL     1      23.717  48.941  49.873  1.00  0.00     0.192 HD
HETATM    5  O   UNL     1      22.055  46.466  48.698  1.00  0.00    -0.270 OA
BRANCH   3   6
HETATM    6  N   UNL     1      21.670  49.048  49.524  1.00  0.00    -0.176 NA
HETATM    7  C   UNL     1      21.608  50.343  49.416  1.00  0.00     0.064 C 
HETATM    8  C   UNL     1      22.820  51.243  49.424  1.00  0.00     0.073 C 
BRANCH   7   9
HETATM    9  C   UNL     1      20.253  50.968  49.296  1.00  0.00     0.023 A 
HETATM   10  C   UNL     1      19.200  50.552  50.126  1.00  0.00     0.077 A 
HETATM   11  C   UNL     1      17.946  51.156  50.039  1.00  0.00     0.037 A 
HETATM   12  C   UNL     1      17.721  52.166  49.106  1.00  0.00     0.003 A 
HETATM   13  C   UNL     1      18.748  52.568  48.255  1.00  0.00     0.001 A 
HETATM   14  C   UNL     1      20.009  51.971  48.346  1.00  0.00     0.016 A 
BRANCH  10  15
HETATM   15  O   UNL     1      19.323  49.557  51.058  1.00  0.00    -0.360 OA
HETATM   16  H   UNL     1      19.168  49.950  51.949  1.00  0.00     0.217 HD
ENDBRANCH  10  15
ENDBRANCH   7   9
ENDBRANCH   3   6
ENDBRANCH   1   2
BRANCH   1  17
HETATM   17  N   UNL     1      24.560  45.603  50.424  1.00  0.00    -0.351 N 
HETATM   18  C   UNL     1      25.118  46.016  51.614  1.00  0.00     0.235 C 
HETATM   19  O   UNL     1      25.343  47.192  51.884  1.00  0.00    -0.272 OA
HETATM   20  H   UNL     1      24.191  44.656  50.367  1.00  0.00     0.163 HD
BRANCH  18  21
HETATM   21  C   UNL     1      25.370  44.881  52.607  1.00  0.00     0.225 C 
BRANCH  21  22
HETATM   22  N   UNL     1      26.655  45.019  53.256  1.00  0.00    -0.348 N 
HETATM   23  C   UNL     1      26.983  44.292  54.371  1.00  0.00     0.253 C 
HETATM   24  O   UNL     1      26.140  43.589  54.932  1.00  0.00    -0.268 OA
HETATM   25  H   UNL     1      27.308  45.692  52.871  1.00  0.00     0.163 HD
BRANCH  23  26
HETATM   26  C   UNL     1      28.380  44.379  54.911  1.00  0.00     0.053 A 
HETATM   27  C   UNL     1      28.920  45.423  55.682  1.00  0.00     0.049 A 
HETATM   28 CL   UNL     1      28.060  46.852  56.140  1.00  0.00    -0.083 Cl
HETATM   29  C   UNL     1      30.247  45.350  56.138  1.00  0.00     0.025 A 
HETATM   30  C   UNL     1      31.048  44.251  55.838  1.00  0.00     0.002 A 
HETATM   31  C   UNL     1      30.533  43.217  55.066  1.00  0.00     0.001 A 
HETATM   32  C   UNL     1      29.218  43.287  54.602  1.00  0.00     0.019 A 
ENDBRANCH  23  26
ENDBRANCH  21  22
ENDBRANCH  18  21
ENDBRANCH   1  17
TORSDOF 8
ENDMDL
MODEL 3
REMARK VINA RESULT:      -9.1      2.616     10.351
REMARK  8 active torsions:
REMARK  status: ('A' for Active; 'I' for Inactive)
REMARK    1  A    between atoms: C_2  and  C_3 
REMARK    2  A    between atoms: C_4  and  O_5 
REMARK    3  A    between atoms: N_10  and  N_11 
REMARK       I    between atoms: N_11  and  C_12 
REMARK    4  A    between atoms: C_12  and  C_13 
REMARK    5  A    between atoms: C_13  and  N_14 
REMARK       I    between atoms: N_14  and  C_15 
REMARK    6  A    between atoms: C_15  and  C_16 
REMARK    7  A    between atoms: C_16  and  N_17 
REMARK       I    between atoms: N_17  and  C_18 
REMARK    8  A    between atoms: C_18  and  C_19 
ROOT
HETATM    1  C   UNL     1      24.648  44.618  51.906  1.00  0.00     0.227 C 
ENDROOT
BRANCH   1   2
HETATM    2  C   UNL     1      25.469  44.586  53.196  1.00  0.00     0.255 C 
HETATM    3  N   UNL     1      26.815  44.866  53.031  1.00  0.00    -0.246 N 
HETATM    4  H   UNL     1      27.149  45.216  52.136  1.00  0.00     0.192 HD
HETATM    5  O   UNL     1      24.965  44.220  54.259  1.00  0.00    -0.270 OA
BRANCH   3   6
HETATM    6  N   UNL     1      27.637  44.806  54.115  1.00  0.00    -0.176 NA
HETATM    7  C   UNL     1      28.797  44.224  54.016  1.00  0.00     0.064 C 
HETATM    8  C   UNL     1      29.283  43.534  52.765  1.00  0.00     0.073 C 
BRANCH   7   9
HETATM    9  C   UNL     1      29.683  44.228  55.223  1.00  0.00     0.023 A 
HETATM   10  C   UNL     1      29.697  45.330  56.092  1.00  0.00     0.077 A 
HETATM   11  C   UNL     1      30.498  45.322  57.235  1.00  0.00     0.037 A 
HETATM   12  C   UNL     1      31.310  44.223  57.511  1.00  0.00     0.003 A 
HETATM   13  C   UNL     1      31.327  43.136  56.640  1.00  0.00     0.001 A 
HETATM   14  C   UNL     1      30.520  43.137  55.498  1.00  0.00     0.016 A 
BRANCH  10  15
HETATM   15  O   UNL     1      28.948  46.458  55.894  1.00  0.00    -0.360 OA
HETATM   16  H   UNL     1      28.263  46.500  56.601  1.00  0.00     0.217 HD
ENDBRANCH  10  15
ENDBRANCH   7   9
ENDBRANCH   3   6
ENDBRANCH   1   2
BRANCH   1  17
HETATM   17  N   UNL     1      24.513  45.905  51.240  1.00  0.00    -0.351 N 
HETATM   18  C   UNL     1      25.032  46.132  49.984  1.00  0.00     0.235 C 
HETATM   19  O   UNL     1      25.482  45.243  49.267  1.00  0.00    -0.272 OA
HETATM   20  H   UNL     1      23.954  46.639  51.670  1.00  0.00     0.163 HD
BRANCH  18  21
HETATM   21  C   UNL     1      24.937  47.588  49.528  1.00  0.00     0.225 C 
BRANCH  21  22
HETATM   22  N   UNL     1      23.633  48.148  49.807  1.00  0.00    -0.348 N 
HETATM   23  C   UNL     1      22.976  48.937  48.899  1.00  0.00     0.253 C 
HETATM   24  O   UNL     1      23.535  49.300  47.862  1.00  0.00    -0.268 OA
HETATM   25  H   UNL     1      23.222  47.955  50.714  1.00  0.00     0.163 HD
BRANCH  23  26
HETATM   26  C   UNL     1      21.569  49.370  49.195  1.00  0.00     0.053 A 
HETATM   27  C   UNL     1      20.416  48.569  49.145  1.00  0.00     0.049 A 
HETATM   28 CL   UNL     1      20.397  46.899  48.695  1.00  0.00    -0.083 Cl
HETATM   29  C   UNL     1      19.164  49.115  49.476  1.00  0.00     0.025 A 
HETATM   30  C   UNL     1      19.042  50.449  49.856  1.00  0.00     0.002 A 
HETATM   31  C   UNL     1      20.171  51.257  49.897  1.00  0.00     0.001 A 
HETATM   32  C   UNL     1      21.417  50.724  49.561  1.00  0.00     0.019 A 
ENDBRANCH  23  26
ENDBRANCH  21  22
ENDBRANCH  18  21
ENDBRANCH   1  17
TORSDOF 8
ENDMDL
MODEL 4
REMARK VINA RESULT:      -9.1      2.616      3.885
REMARK  8 active torsions:
REMARK  status: ('A' for Active; 'I' for Inactive)
REMARK    1  A    between atoms: C_2  and  C_3 
REMARK    2  A    between atoms: C_4  and  O_5 
REMARK    3  A    between atoms: N_10  and  N_11 
REMARK       I    between atoms: N_11  and  C_12 
REMARK    4  A    between atoms: C_12  and  C_13 
REMARK    5  A    between atoms: C_13  and  N_14 
REMARK       I    between atoms: N_14  and  C_15 
REMARK    6  A    between atoms: C_15  and  C_16 
REMARK    7  A    between atoms: C_16  and  N_17 
REMARK       I    between atoms: N_17  and  C_18 
REMARK    8  A    between atoms: C_18  and  C_19 
ROOT
HETATM    1  C   UNL     1      25.470  42.191  51.079  1.00  0.00     0.227 C 
ENDROOT
BRANCH   1   2
HETATM    2  C   UNL     1      25.415  43.408  50.153  1.00  0.00     0.255 C 
HETATM    3  N   UNL     1      25.099  44.600  50.785  1.00  0.00    -0.246 N 
HETATM    4  H   UNL     1      25.076  44.639  51.801  1.00  0.00     0.192 HD
HETATM    5  O   UNL     1      25.528  43.282  48.933  1.00  0.00    -0.270 OA
BRANCH   3   6
HETATM    6  N   UNL     1      24.971  45.728  50.033  1.00  0.00    -0.176 NA
HETATM    7  C   UNL     1      25.418  46.862  50.487  1.00  0.00     0.064 C 
HETATM    8  C   UNL     1      26.029  47.033  51.857  1.00  0.00     0.073 C 
BRANCH   7   9
HETATM    9  C   UNL     1      25.298  48.063  49.601  1.00  0.00     0.023 A 
HETATM   10  C   UNL     1      24.036  48.566  49.249  1.00  0.00     0.077 A 
HETATM   11  C   UNL     1      23.922  49.704  48.451  1.00  0.00     0.037 A 
HETATM   12  C   UNL     1      25.068  50.341  47.976  1.00  0.00     0.003 A 
HETATM   13  C   UNL     1      26.326  49.834  48.293  1.00  0.00     0.001 A 
HETATM   14  C   UNL     1      26.443  48.699  49.100  1.00  0.00     0.016 A 
BRANCH  10  15
HETATM   15  O   UNL     1      22.858  47.998  49.654  1.00  0.00    -0.360 OA
HETATM   16  H   UNL     1      22.244  48.721  49.922  1.00  0.00     0.217 HD
ENDBRANCH  10  15
ENDBRANCH   7   9
ENDBRANCH   3   6
ENDBRANCH   1   2
BRANCH   1  17
HETATM   17  N   UNL     1      26.676  42.020  51.874  1.00  0.00    -0.351 N 
HETATM   18  C   UNL     1      27.556  40.984  51.648  1.00  0.00     0.235 C 
HETATM   19  O   UNL     1      27.492  40.244  50.671  1.00  0.00    -0.272 OA
HETATM   20  H   UNL     1      26.928  42.724  52.565  1.00  0.00     0.163 HD
BRANCH  18  21
HETATM   21  C   UNL     1      28.669  40.877  52.690  1.00  0.00     0.225 C 
BRANCH  21  22
HETATM   22  N   UNL     1      28.595  41.949  53.659  1.00  0.00    -0.348 N 
HETATM   23  C   UNL     1      29.544  42.936  53.719  1.00  0.00     0.253 C 
HETATM   24  O   UNL     1      30.563  42.869  53.030  1.00  0.00    -0.268 OA
HETATM   25  H   UNL     1      27.822  41.937  54.316  1.00  0.00     0.163 HD
BRANCH  23  26
HETATM   26  C   UNL     1      29.333  44.092  54.653  1.00  0.00     0.053 A 
HETATM   27  C   UNL     1      30.082  44.390  55.804  1.00  0.00     0.049 A 
HETATM   28 CL   UNL     1      31.404  43.441  56.390  1.00  0.00    -0.083 Cl
HETATM   29  C   UNL     1      29.777  45.529  56.569  1.00  0.00     0.025 A 
HETATM   30  C   UNL     1      28.734  46.378  56.204  1.00  0.00     0.002 A 
HETATM   31  C   UNL     1      27.976  46.089  55.077  1.00  0.00     0.001 A 
HETATM   32  C   UNL     1      28.268  44.954  54.318  1.00  0.00     0.019 A 
ENDBRANCH  23  26
ENDBRANCH  21  22
ENDBRANCH  18  21
ENDBRANCH   1  17
TORSDOF 8
ENDMDL
MODEL 5
REMARK VINA RESULT:      -9.1      1.616      2.000
REMARK  8 active torsions:
REMARK  status: ('A' for Active; 'I' for Inactive)
REMARK    1  A    between atoms: C_2  and  C_3 
REMARK    2  A    between atoms: C_4  and  O_5 
REMARK    3  A    between atoms: N_10  and  N_11 
REMARK       I    between atoms: N_11  and  C_12 
REMARK    4  A    between atoms: C_12  and  C_13 
REMARK    5  A    between atoms: C_13  and  N_14 
REMARK       I    between atoms: N_14  and  C_15 
REMARK    6  A    between atoms: C_15  and  C_16 
REMARK    7  A    between atoms: C_16  and  N_17 
REMARK       I    between atoms: N_17  and  C_18 
REMARK    8  A    between atoms: C_18  and  C_19 
ROOT
HETATM    1  C   UNL     1      26.918  45.652  49.917  1.00  0.00     0.227 C 
ENDROOT
BRANCH   1   2
HETATM    2  C   UNL     1      25.531  46.182  49.548  1.00  0.00     0.255 C 
HETATM    3  N   UNL     1      25.350  47.536  49.780  1.00  0.00    -0.246 N 
HETATM    4  H   UNL     1      26.150  48.115  50.020  1.00  0.00     0.192 HD
HETATM    5  O   UNL     1      24.634  45.417  49.191  1.00  0.00    -0.270 OA
BRANCH   3   6
HETATM    6  N   UNL     1      24.128  48.087  49.535  1.00  0.00    -0.176 NA
HETATM    7  C   UNL     1      24.034  49.138  48.775  1.00  0.00     0.064 C 
HETATM    8  C   UNL     1      25.224  49.850  48.178  1.00  0.00     0.073 C 
BRANCH   7   9
HETATM    9  C   UNL     1      22.665  49.675  48.497  1.00  0.00     0.023 A 
HETATM   10  C   UNL     1      21.738  48.920  47.762  1.00  0.00     0.077 A 
HETATM   11  C   UNL     1      20.450  49.405  47.531  1.00  0.00     0.037 A 
HETATM   12  C   UNL     1      20.080  50.660  48.011  1.00  0.00     0.003 A 
HETATM   13  C   UNL     1      21.000  51.433  48.716  1.00  0.00     0.001 A 
HETATM   14  C   UNL     1      22.289  50.946  48.957  1.00  0.00     0.016 A 
BRANCH  10  15
HETATM   15  O   UNL     1      22.017  47.687  47.238  1.00  0.00    -0.360 OA
HETATM   16  H   UNL     1      22.080  47.777  46.258  1.00  0.00     0.217 HD
ENDBRANCH  10  15
ENDBRANCH   7   9
ENDBRANCH   3   6
ENDBRANCH   1   2
BRANCH   1  17
HETATM   17  N   UNL     1      26.970  44.508  50.814  1.00  0.00    -0.351 N 
HETATM   18  C   UNL     1      26.891  44.652  52.182  1.00  0.00     0.235 C 
HETATM   19  O   UNL     1      26.599  45.708  52.735  1.00  0.00    -0.272 OA
HETATM   20  H   UNL     1      26.985  43.565  50.429  1.00  0.00     0.163 HD
BRANCH  18  21
HETATM   21  C   UNL     1      27.134  43.357  52.957  1.00  0.00     0.225 C 
BRANCH  21  22
HETATM   22  N   UNL     1      27.885  43.595  54.170  1.00  0.00    -0.348 N 
HETATM   23  C   UNL     1      29.253  43.687  54.166  1.00  0.00     0.253 C 
HETATM   24  O   UNL     1      29.895  43.441  53.144  1.00  0.00    -0.268 OA
HETATM   25  H   UNL     1      27.366  43.673  55.037  1.00  0.00     0.163 HD
BRANCH  23  26
HETATM   26  C   UNL     1      29.959  44.075  55.432  1.00  0.00     0.053 A 
HETATM   27  C   UNL     1      29.764  45.250  56.177  1.00  0.00     0.049 A 
HETATM   28 CL   UNL     1      28.666  46.516  55.747  1.00  0.00    -0.083 Cl
HETATM   29  C   UNL     1      30.487  45.462  57.363  1.00  0.00     0.025 A 
HETATM   30  C   UNL     1      31.404  44.518  57.821  1.00  0.00     0.002 A 
HETATM   31  C   UNL     1      31.617  43.357  57.089  1.00  0.00     0.001 A 
HETATM   32  C   UNL     1      30.909  43.145  55.905  1.00  0.00     0.019 A 
ENDBRANCH  23  26
ENDBRANCH  21  22
ENDBRANCH  18  21
ENDBRANCH   1  17
TORSDOF 8
ENDMDL
MODEL 6
REMARK VINA RESULT:      -9.0      2.157      2.719
REMARK  8 active torsions:
REMARK  status: ('A' for Active; 'I' for Inactive)
REMARK    1  A    between atoms: C_2  and  C_3 
REMARK    2  A    between atoms: C_4  and  O_5 
REMARK    3  A    between atoms: N_10  and  N_11 
REMARK       I    between atoms: N_11  and  C_12 
REMARK    4  A    between atoms: C_12  and  C_13 
REMARK    5  A    between atoms: C_13  and  N_14 
REMARK       I    between atoms: N_14  and  C_15 
REMARK    6  A    between atoms: C_15  and  C_16 
REMARK    7  A    between atoms: C_16  and  N_17 
REMARK       I    between atoms: N_17  and  C_18 
REMARK    8  A    between atoms: C_18  and  C_19 
ROOT
HETATM    1  C   UNL     1      24.938  46.998  49.587  1.00  0.00     0.227 C 
ENDROOT
BRANCH   1   2
HETATM    2  C   UNL     1      24.119  48.289  49.533  1.00  0.00     0.255 C 
HETATM    3  N   UNL     1      22.748  48.107  49.615  1.00  0.00    -0.246 N 
HETATM    4  H   UNL     1      22.376  47.191  49.854  1.00  0.00     0.192 HD
HETATM    5  O   UNL     1      24.659  49.374  49.313  1.00  0.00    -0.270 OA
BRANCH   3   6
HETATM    6  N   UNL     1      21.934  49.194  49.519  1.00  0.00    -0.176 NA
HETATM    7  C   UNL     1      20.698  49.045  49.140  1.00  0.00     0.064 C 
HETATM    8  C   UNL     1      20.103  47.722  48.725  1.00  0.00     0.073 C 
BRANCH   7   9
HETATM    9  C   UNL     1      19.831  50.265  49.098  1.00  0.00     0.023 A 
HETATM   10  C   UNL     1      18.856  50.481  50.084  1.00  0.00     0.077 A 
HETATM   11  C   UNL     1      18.070  51.634  50.066  1.00  0.00     0.037 A 
HETATM   12  C   UNL     1      18.233  52.573  49.049  1.00  0.00     0.003 A 
HETATM   13  C   UNL     1      19.176  52.357  48.047  1.00  0.00     0.001 A 
HETATM   14  C   UNL     1      19.971  51.207  48.068  1.00  0.00     0.016 A 
BRANCH  10  15
HETATM   15  O   UNL     1      18.614  49.607  51.109  1.00  0.00    -0.360 OA
HETATM   16  H   UNL     1      17.813  49.080  50.881  1.00  0.00     0.217 HD
ENDBRANCH  10  15
ENDBRANCH   7   9
ENDBRANCH   3   6
ENDBRANCH   1   2
BRANCH   1  17
HETATM   17  N   UNL     1      24.705  46.116  50.720  1.00  0.00    -0.351 N 
HETATM   18  C   UNL     1      25.294  46.337  51.946  1.00  0.00     0.235 C 
HETATM   19  O   UNL     1      25.902  47.365  52.230  1.00  0.00    -0.272 OA
HETATM   20  H   UNL     1      24.031  45.358  50.640  1.00  0.00     0.163 HD
BRANCH  18  21
HETATM   21  C   UNL     1      25.063  45.213  52.957  1.00  0.00     0.225 C 
BRANCH  21  22
HETATM   22  N   UNL     1      26.208  45.034  53.823  1.00  0.00    -0.348 N 
HETATM   23  C   UNL     1      27.357  44.428  53.386  1.00  0.00     0.253 C 
HETATM   24  O   UNL     1      27.404  43.900  52.274  1.00  0.00    -0.268 OA
HETATM   25  H   UNL     1      26.127  45.355  54.782  1.00  0.00     0.163 HD
BRANCH  23  26
HETATM   26  C   UNL     1      28.553  44.400  54.292  1.00  0.00     0.053 A 
HETATM   27  C   UNL     1      29.533  43.395  54.361  1.00  0.00     0.049 A 
HETATM   28 CL   UNL     1      29.527  41.951  53.409  1.00  0.00    -0.083 Cl
HETATM   29  C   UNL     1      30.614  43.523  55.248  1.00  0.00     0.025 A 
HETATM   30  C   UNL     1      30.737  44.640  56.072  1.00  0.00     0.002 A 
HETATM   31  C   UNL     1      29.770  45.636  56.025  1.00  0.00     0.001 A 
HETATM   32  C   UNL     1      28.687  45.511  55.152  1.00  0.00     0.019 A 
ENDBRANCH  23  26
ENDBRANCH  21  22
ENDBRANCH  18  21
ENDBRANCH   1  17
TORSDOF 8
ENDMDL
MODEL 7
REMARK VINA RESULT:      -8.9      2.227      3.024
REMARK  8 active torsions:
REMARK  status: ('A' for Active; 'I' for Inactive)
REMARK    1  A    between atoms: C_2  and  C_3 
REMARK    2  A    between atoms: C_4  and  O_5 
REMARK    3  A    between atoms: N_10  and  N_11 
REMARK       I    between atoms: N_11  and  C_12 
REMARK    4  A    between atoms: C_12  and  C_13 
REMARK    5  A    between atoms: C_13  and  N_14 
REMARK       I    between atoms: N_14  and  C_15 
REMARK    6  A    between atoms: C_15  and  C_16 
REMARK    7  A    between atoms: C_16  and  N_17 
REMARK       I    between atoms: N_17  and  C_18 
REMARK    8  A    between atoms: C_18  and  C_19 
ROOT
HETATM    1  C   UNL     1      25.270  43.196  51.745  1.00  0.00     0.227 C 
ENDROOT
BRANCH   1   2
HETATM    2  C   UNL     1      25.381  44.650  51.281  1.00  0.00     0.255 C 
HETATM    3  N   UNL     1      24.196  45.203  50.825  1.00  0.00    -0.246 N 
HETATM    4  H   UNL     1      23.322  44.699  50.960  1.00  0.00     0.192 HD
HETATM    5  O   UNL     1      26.474  45.214  51.219  1.00  0.00    -0.270 OA
BRANCH   3   6
HETATM    6  N   UNL     1      24.208  46.474  50.338  1.00  0.00    -0.176 NA
HETATM    7  C   UNL     1      23.526  46.764  49.269  1.00  0.00     0.064 C 
HETATM    8  C   UNL     1      22.751  45.746  48.468  1.00  0.00     0.073 C 
BRANCH   7   9
HETATM    9  C   UNL     1      23.533  48.187  48.804  1.00  0.00     0.023 A 
HETATM   10  C   UNL     1      24.711  48.947  48.851  1.00  0.00     0.077 A 
HETATM   11  C   UNL     1      24.727  50.263  48.387  1.00  0.00     0.037 A 
HETATM   12  C   UNL     1      23.560  50.842  47.891  1.00  0.00     0.003 A 
HETATM   13  C   UNL     1      22.376  50.109  47.867  1.00  0.00     0.001 A 
HETATM   14  C   UNL     1      22.359  48.787  48.323  1.00  0.00     0.016 A 
BRANCH  10  15
HETATM   15  O   UNL     1      25.898  48.469  49.337  1.00  0.00    -0.360 OA
HETATM   16  H   UNL     1      26.209  47.751  48.737  1.00  0.00     0.217 HD
ENDBRANCH  10  15
ENDBRANCH   7   9
ENDBRANCH   3   6
ENDBRANCH   1   2
BRANCH   1  17
HETATM   17  N   UNL     1      26.426  42.630  52.424  1.00  0.00    -0.351 N 
HETATM   18  C   UNL     1      27.376  41.893  51.751  1.00  0.00     0.235 C 
HETATM   19  O   UNL     1      27.423  41.806  50.528  1.00  0.00    -0.272 OA
HETATM   20  H   UNL     1      26.589  42.844  53.406  1.00  0.00     0.163 HD
BRANCH  18  21
HETATM   21  C   UNL     1      28.418  41.245  52.663  1.00  0.00     0.225 C 
BRANCH  21  22
HETATM   22  N   UNL     1      28.692  42.063  53.823  1.00  0.00    -0.348 N 
HETATM   23  C   UNL     1      29.777  42.900  53.877  1.00  0.00     0.253 C 
HETATM   24  O   UNL     1      30.626  42.884  52.985  1.00  0.00    -0.268 OA
HETATM   25  H   UNL     1      28.063  41.984  54.614  1.00  0.00     0.163 HD
BRANCH  23  26
HETATM   26  C   UNL     1      29.925  43.823  55.051  1.00  0.00     0.053 A 
HETATM   27  C   UNL     1      29.158  44.969  55.322  1.00  0.00     0.049 A 
HETATM   28 CL   UNL     1      27.885  45.560  54.310  1.00  0.00    -0.083 Cl
HETATM   29  C   UNL     1      29.401  45.723  56.482  1.00  0.00     0.025 A 
HETATM   30  C   UNL     1      30.399  45.354  57.380  1.00  0.00     0.002 A 
HETATM   31  C   UNL     1      31.175  44.231  57.120  1.00  0.00     0.001 A 
HETATM   32  C   UNL     1      30.945  43.482  55.965  1.00  0.00     0.019 A 
ENDBRANCH  23  26
ENDBRANCH  21  22
ENDBRANCH  18  21
ENDBRANCH   1  17
TORSDOF 8
ENDMDL
MODEL 8
REMARK VINA RESULT:      -8.7      2.609      9.884
REMARK  8 active torsions:
REMARK  status: ('A' for Active; 'I' for Inactive)
REMARK    1  A    between atoms: C_2  and  C_3 
REMARK    2  A    between atoms: C_4  and  O_5 
REMARK    3  A    between atoms: N_10  and  N_11 
REMARK       I    between atoms: N_11  and  C_12 
REMARK    4  A    between atoms: C_12  and  C_13 
REMARK    5  A    between atoms: C_13  and  N_14 
REMARK       I    between atoms: N_14  and  C_15 
REMARK    6  A    between atoms: C_15  and  C_16 
REMARK    7  A    between atoms: C_16  and  N_17 
REMARK       I    between atoms: N_17  and  C_18 
REMARK    8  A    between atoms: C_18  and  C_19 
ROOT
HETATM    1  C   UNL     1      25.031  42.782  50.946  1.00  0.00     0.227 C 
ENDROOT
BRANCH   1   2
HETATM    2  C   UNL     1      25.787  43.495  52.069  1.00  0.00     0.255 C 
HETATM    3  N   UNL     1      26.738  42.718  52.709  1.00  0.00    -0.246 N 
HETATM    4  H   UNL     1      26.990  41.812  52.322  1.00  0.00     0.192 HD
HETATM    5  O   UNL     1      25.467  44.629  52.429  1.00  0.00    -0.270 OA
BRANCH   3   6
HETATM    6  N   UNL     1      27.423  43.249  53.760  1.00  0.00    -0.176 NA
HETATM    7  C   UNL     1      28.718  43.357  53.700  1.00  0.00     0.064 C 
HETATM    8  C   UNL     1      29.547  42.861  52.539  1.00  0.00     0.073 C 
BRANCH   7   9
HETATM    9  C   UNL     1      29.418  43.993  54.860  1.00  0.00     0.023 A 
HETATM   10  C   UNL     1      28.987  45.232  55.360  1.00  0.00     0.077 A 
HETATM   11  C   UNL     1      29.617  45.810  56.463  1.00  0.00     0.037 A 
HETATM   12  C   UNL     1      30.700  45.170  57.064  1.00  0.00     0.003 A 
HETATM   13  C   UNL     1      31.156  43.955  56.558  1.00  0.00     0.001 A 
HETATM   14  C   UNL     1      30.521  43.368  55.459  1.00  0.00     0.016 A 
BRANCH  10  15
HETATM   15  O   UNL     1      27.947  45.941  54.825  1.00  0.00    -0.360 OA
HETATM   16  H   UNL     1      27.551  46.493  55.539  1.00  0.00     0.217 HD
ENDBRANCH  10  15
ENDBRANCH   7   9
ENDBRANCH   3   6
ENDBRANCH   1   2
BRANCH   1  17
HETATM   17  N   UNL     1      23.777  43.379  50.512  1.00  0.00    -0.351 N 
HETATM   18  C   UNL     1      23.663  44.035  49.306  1.00  0.00     0.235 C 
HETATM   19  O   UNL     1      24.534  44.016  48.441  1.00  0.00    -0.272 OA
HETATM   20  H   UNL     1      22.936  43.246  51.070  1.00  0.00     0.163 HD
BRANCH  18  21
HETATM   21  C   UNL     1      22.319  44.736  49.106  1.00  0.00     0.225 C 
BRANCH  21  22
HETATM   22  N   UNL     1      22.451  46.173  49.197  1.00  0.00    -0.348 N 
HETATM   23  C   UNL     1      22.385  46.976  48.088  1.00  0.00     0.253 C 
HETATM   24  O   UNL     1      22.341  46.484  46.959  1.00  0.00    -0.268 OA
HETATM   25  H   UNL     1      22.615  46.574  50.114  1.00  0.00     0.163 HD
BRANCH  23  26
HETATM   26  C   UNL     1      22.389  48.466  48.268  1.00  0.00     0.053 A 
HETATM   27  C   UNL     1      23.464  49.257  48.707  1.00  0.00     0.049 A 
HETATM   28 CL   UNL     1      25.016  48.642  49.160  1.00  0.00    -0.083 Cl
HETATM   29  C   UNL     1      23.321  50.652  48.802  1.00  0.00     0.025 A 
HETATM   30  C   UNL     1      22.120  51.273  48.466  1.00  0.00     0.002 A 
HETATM   31  C   UNL     1      21.044  50.504  48.043  1.00  0.00     0.001 A 
HETATM   32  C   UNL     1      21.176  49.116  47.955  1.00  0.00     0.019 A 
ENDBRANCH  23  26
ENDBRANCH  21  22
ENDBRANCH  18  21
ENDBRANCH   1  17
TORSDOF 8
ENDMDL
MODEL 9
REMARK VINA RESULT:      -8.5      2.118      3.073
REMARK  8 active torsions:
REMARK  status: ('A' for Active; 'I' for Inactive)
REMARK    1  A    between atoms: C_2  and  C_3 
REMARK    2  A    between atoms: C_4  and  O_5 
REMARK    3  A    between atoms: N_10  and  N_11 
REMARK       I    between atoms: N_11  and  C_12 
REMARK    4  A    between atoms: C_12  and  C_13 
REMARK    5  A    between atoms: C_13  and  N_14 
REMARK       I    between atoms: N_14  and  C_15 
REMARK    6  A    between atoms: C_15  and  C_16 
REMARK    7  A    between atoms: C_16  and  N_17 
REMARK       I    between atoms: N_17  and  C_18 
REMARK    8  A    between atoms: C_18  and  C_19 
ROOT
HETATM    1  C   UNL     1      24.434  42.629  49.077  1.00  0.00     0.227 C 
ENDROOT
BRANCH   1   2
HETATM    2  C   UNL     1      23.952  43.974  48.529  1.00  0.00     0.255 C 
HETATM    3  N   UNL     1      23.754  44.952  49.490  1.00  0.00    -0.246 N 
HETATM    4  H   UNL     1      24.072  44.791  50.442  1.00  0.00     0.192 HD
HETATM    5  O   UNL     1      23.659  44.105  47.340  1.00  0.00    -0.270 OA
BRANCH   3   6
HETATM    6  N   UNL     1      23.272  46.165  49.103  1.00  0.00    -0.176 NA
HETATM    7  C   UNL     1      23.852  47.253  49.518  1.00  0.00     0.064 C 
HETATM    8  C   UNL     1      25.016  47.268  50.478  1.00  0.00     0.073 C 
BRANCH   7   9
HETATM    9  C   UNL     1      23.313  48.560  49.024  1.00  0.00     0.023 A 
HETATM   10  C   UNL     1      21.935  48.824  49.064  1.00  0.00     0.077 A 
HETATM   11  C   UNL     1      21.435  50.054  48.635  1.00  0.00     0.037 A 
HETATM   12  C   UNL     1      22.303  51.026  48.141  1.00  0.00     0.003 A 
HETATM   13  C   UNL     1      23.670  50.766  48.067  1.00  0.00     0.001 A 
HETATM   14  C   UNL     1      24.175  49.538  48.505  1.00  0.00     0.016 A 
BRANCH  10  15
HETATM   15  O   UNL     1      21.008  47.925  49.516  1.00  0.00    -0.360 OA
HETATM   16  H   UNL     1      20.112  48.265  49.285  1.00  0.00     0.217 HD
ENDBRANCH  10  15
ENDBRANCH   7   9
ENDBRANCH   3   6
ENDBRANCH   1   2
BRANCH   1  17
HETATM   17  N   UNL     1      25.463  42.665  50.105  1.00  0.00    -0.351 N 
HETATM   18  C   UNL     1      26.783  42.388  49.823  1.00  0.00     0.235 C 
HETATM   19  O   UNL     1      27.220  42.266  48.682  1.00  0.00    -0.272 OA
HETATM   20  H   UNL     1      25.228  42.980  51.044  1.00  0.00     0.163 HD
BRANCH  18  21
HETATM   21  C   UNL     1      27.679  42.313  51.059  1.00  0.00     0.225 C 
BRANCH  21  22
HETATM   22  N   UNL     1      27.667  43.554  51.801  1.00  0.00    -0.348 N 
HETATM   23  C   UNL     1      27.584  43.578  53.169  1.00  0.00     0.253 C 
HETATM   24  O   UNL     1      27.386  42.540  53.803  1.00  0.00    -0.268 OA
HETATM   25  H   UNL     1      27.702  44.419  51.272  1.00  0.00     0.163 HD
BRANCH  23  26
HETATM   26  C   UNL     1      27.717  44.892  53.882  1.00  0.00     0.053 A 
HETATM   27  C   UNL     1      28.706  45.244  54.816  1.00  0.00     0.049 A 
HETATM   28 CL   UNL     1      29.972  44.193  55.352  1.00  0.00    -0.083 Cl
HETATM   29  C   UNL     1      28.714  46.529  55.384  1.00  0.00     0.025 A 
HETATM   30  C   UNL     1      27.749  47.472  55.037  1.00  0.00     0.002 A 
HETATM   31  C   UNL     1      26.757  47.134  54.126  1.00  0.00     0.001 A 
HETATM   32  C   UNL     1      26.738  45.856  53.563  1.00  0.00     0.019 A 
ENDBRANCH  23  26
ENDBRANCH  21  22
ENDBRANCH  18  21
ENDBRANCH   1  17
TORSDOF 8
ENDMDL
MODEL 10
REMARK VINA RESULT:      -8.4      3.324      9.650
REMARK  8 active torsions:
REMARK  status: ('A' for Active; 'I' for Inactive)
REMARK    1  A    between atoms: C_2  and  C_3 
REMARK    2  A    between atoms: C_4  and  O_5 
REMARK    3  A    between atoms: N_10  and  N_11 
REMARK       I    between atoms: N_11  and  C_12 
REMARK    4  A    between atoms: C_12  and  C_13 
REMARK    5  A    between atoms: C_13  and  N_14 
REMARK       I    between atoms: N_14  and  C_15 
REMARK    6  A    between atoms: C_15  and  C_16 
REMARK    7  A    between atoms: C_16  and  N_17 
REMARK       I    between atoms: N_17  and  C_18 
REMARK    8  A    between atoms: C_18  and  C_19 
ROOT
HETATM    1  C   UNL     1      22.872  43.759  49.316  1.00  0.00     0.227 C 
ENDROOT
BRANCH   1   2
HETATM    2  C   UNL     1      23.687  43.825  50.609  1.00  0.00     0.255 C 
HETATM    3  N   UNL     1      24.019  45.106  51.018  1.00  0.00    -0.246 N 
HETATM    4  H   UNL     1      23.595  45.906  50.555  1.00  0.00     0.192 HD
HETATM    5  O   UNL     1      24.100  42.799  51.151  1.00  0.00    -0.270 OA
BRANCH   3   6
HETATM    6  N   UNL     1      24.792  45.263  52.128  1.00  0.00    -0.176 NA
HETATM    7  C   UNL     1      25.691  46.202  52.162  1.00  0.00     0.064 C 
HETATM    8  C   UNL     1      25.992  47.117  51.000  1.00  0.00     0.073 C 
BRANCH   7   9
HETATM    9  C   UNL     1      26.481  46.364  53.424  1.00  0.00     0.023 A 
HETATM   10  C   UNL     1      27.320  45.334  53.877  1.00  0.00     0.077 A 
HETATM   11  C   UNL     1      28.082  45.496  55.035  1.00  0.00     0.037 A 
HETATM   12  C   UNL     1      27.996  46.679  55.767  1.00  0.00     0.003 A 
HETATM   13  C   UNL     1      27.143  47.697  55.345  1.00  0.00     0.001 A 
HETATM   14  C   UNL     1      26.386  47.541  54.180  1.00  0.00     0.016 A 
BRANCH  10  15
HETATM   15  O   UNL     1      27.455  44.133  53.235  1.00  0.00    -0.360 OA
HETATM   16  H   UNL     1      26.686  43.567  53.477  1.00  0.00     0.217 HD
ENDBRANCH  10  15
ENDBRANCH   7   9
ENDBRANCH   3   6
ENDBRANCH   1   2
BRANCH   1  17
HETATM   17  N   UNL     1      22.722  44.996  48.566  1.00  0.00    -0.351 N 
HETATM   18  C   UNL     1      21.487  45.561  48.333  1.00  0.00     0.235 C 
HETATM   19  O   UNL     1      20.455  45.177  48.876  1.00  0.00    -0.272 OA
HETATM   20  H   UNL     1      23.550  45.509  48.268  1.00  0.00     0.163 HD
BRANCH  18  21
HETATM   21  C   UNL     1      21.522  46.761  47.388  1.00  0.00     0.225 C 
BRANCH  21  22
HETATM   22  N   UNL     1      20.629  47.811  47.827  1.00  0.00    -0.348 N 
HETATM   23  C   UNL     1      21.044  48.803  48.677  1.00  0.00     0.253 C 
HETATM   24  O   UNL     1      22.160  48.759  49.196  1.00  0.00    -0.268 OA
HETATM   25  H   UNL     1      19.669  47.779  47.501  1.00  0.00     0.163 HD
BRANCH  23  26
HETATM   26  C   UNL     1      20.108  49.937  48.981  1.00  0.00     0.053 A 
HETATM   27  C   UNL     1      19.080  49.945  49.939  1.00  0.00     0.049 A 
HETATM   28 CL   UNL     1      18.671  48.603  50.952  1.00  0.00    -0.083 Cl
HETATM   29  C   UNL     1      18.298  51.097  50.126  1.00  0.00     0.025 A 
HETATM   30  C   UNL     1      18.526  52.246  49.373  1.00  0.00     0.002 A 
HETATM   31  C   UNL     1      19.530  52.251  48.414  1.00  0.00     0.001 A 
HETATM   32  C   UNL     1      20.305  51.106  48.216  1.00  0.00     0.019 A 
ENDBRANCH  23  26
ENDBRANCH  21  22
ENDBRANCH  18  21
ENDBRANCH   1  17
TORSDOF 8
ENDMDL
