MODEL 1
REMARK VINA RESULT:      -9.7      0.000      0.000
REMARK  7 active torsions:
REMARK  status: ('A' for Active; 'I' for Inactive)
REMARK    1  A    between atoms: C_8  and  C_9 
REMARK    2  A    between atoms: C_9  and  C_10 
REMARK    3  A    between atoms: C_10  and  N_11 
REMARK    4  A    between atoms: C_10  and  C_19 
REMARK       I    between atoms: N_11  and  C_12 
REMARK    5  A    between atoms: C_12  and  C_13 
REMARK       I    between atoms: C_19  and  N_20 
REMARK    6  A    between atoms: N_20  and  N_21 
REMARK       I    between atoms: N_21  and  C_22 
REMARK       I    between atoms: C_22  and  N_23 
REMARK    7  A    between atoms: N_23  and  C_24 
ROOT
HETATM    1  C   UNL     1      25.973  45.699  52.109  1.00  0.00     0.183 C 
ENDROOT
BRANCH   1   2
HETATM    2  C   UNL     1      25.817  46.105  53.587  1.00  0.00     0.076 C 
BRANCH   2   3
HETATM    3  C   UNL     1      27.104  46.058  54.358  1.00  0.00    -0.028 A 
HETATM    4  C   UNL     1      28.005  44.948  54.447  1.00  0.00    -0.002 A 
HETATM    5  C   UNL     1      28.021  43.648  53.900  1.00  0.00     0.014 A 
HETATM    6  C   UNL     1      29.063  45.334  55.271  1.00  0.00     0.042 A 
HETATM    7  C   UNL     1      29.082  42.786  54.199  1.00  0.00     0.001 A 
HETATM    8  C   UNL     1      30.121  43.201  55.028  1.00  0.00     0.002 A 
HETATM    9  C   UNL     1      30.132  44.485  55.581  1.00  0.00     0.030 A 
HETATM   10  N   UNL     1      28.823  46.631  55.657  1.00  0.00    -0.365 N 
HETATM   11  H   UNL     1      29.435  47.174  56.249  1.00  0.00     0.165 HD
HETATM   12  C   UNL     1      27.648  47.078  55.114  1.00  0.00     0.096 A 
ENDBRANCH   2   3
ENDBRANCH   1   2
BRANCH   1  13
HETATM   13  N   UNL     1      25.753  46.832  51.202  1.00  0.00    -0.343 N 
HETATM   14  C   UNL     1      26.376  46.934  49.978  1.00  0.00     0.259 C 
HETATM   15  O   UNL     1      26.913  45.949  49.468  1.00  0.00    -0.267 OA
HETATM   16  H   UNL     1      25.450  47.708  51.617  1.00  0.00     0.163 HD
BRANCH  14  17
HETATM   17  C   UNL     1      26.341  48.243  49.343  1.00  0.00     0.072 A 
HETATM   18  S   UNL     1      24.876  48.970  48.826  1.00  0.00    -0.097 SA
HETATM   19  C   UNL     1      25.686  50.355  48.238  1.00  0.00     0.050 A 
HETATM   20  C   UNL     1      27.046  50.279  48.436  1.00  0.00     0.009 A 
HETATM   21  C   UNL     1      27.423  49.062  49.074  1.00  0.00     0.025 A 
ENDBRANCH  14  17
ENDBRANCH   1  13
BRANCH   1  22
HETATM   22  C   UNL     1      25.019  44.517  51.819  1.00  0.00     0.259 C 
HETATM   23  N   UNL     1      24.509  44.470  50.527  1.00  0.00    -0.264 N 
HETATM   24  H   UNL     1      25.020  44.999  49.813  1.00  0.00     0.190 HD
HETATM   25  O   UNL     1      24.829  43.595  52.616  1.00  0.00    -0.269 OA
BRANCH  23  26
HETATM   26  N   UNL     1      23.955  43.236  50.142  1.00  0.00    -0.249 N 
HETATM   27  C   UNL     1      24.681  42.177  49.650  1.00  0.00     0.339 C 
HETATM   28  N   UNL     1      26.038  42.284  49.829  1.00  0.00    -0.308 N 
HETATM   29  O   UNL     1      24.080  41.239  49.135  1.00  0.00    -0.245 OA
HETATM   30  H   UNL     1      26.346  43.178  50.183  1.00  0.00     0.170 HD
HETATM   31  H   UNL     1      22.969  43.251  49.881  1.00  0.00     0.192 HD
BRANCH  28  32
HETATM   32  C   UNL     1      27.021  41.318  49.539  1.00  0.00     0.036 A 
HETATM   33  C   UNL     1      27.536  41.091  48.259  1.00  0.00     0.031 A 
HETATM   34  C   UNL     1      28.495  40.096  48.038  1.00  0.00     0.026 A 
HETATM   35  C   UNL     1      28.944  39.320  49.101  1.00  0.00     0.034 A 
HETATM   36 CL   UNL     1      30.113  38.088  48.829  1.00  0.00    -0.084 Cl
HETATM   37  C   UNL     1      28.445  39.534  50.384  1.00  0.00     0.026 A 
HETATM   38  C   UNL     1      27.487  40.532  50.602  1.00  0.00     0.031 A 
ENDBRANCH  28  32
ENDBRANCH  23  26
ENDBRANCH   1  22
TORSDOF 7
ENDMDL
MODEL 2
REMARK VINA RESULT:      -9.6      4.788      7.112
REMARK  7 active torsions:
REMARK  status: ('A' for Active; 'I' for Inactive)
REMARK    1  A    between atoms: C_8  and  C_9 
REMARK    2  A    between atoms: C_9  and  C_10 
REMARK    3  A    between atoms: C_10  and  N_11 
REMARK    4  A    between atoms: C_10  and  C_19 
REMARK       I    between atoms: N_11  and  C_12 
REMARK    5  A    between atoms: C_12  and  C_13 
REMARK       I    between atoms: C_19  and  N_20 
REMARK    6  A    between atoms: N_20  and  N_21 
REMARK       I    between atoms: N_21  and  C_22 
REMARK       I    between atoms: C_22  and  N_23 
REMARK    7  A    between atoms: N_23  and  C_24 
ROOT
HETATM    1  C   UNL     1      25.063  44.606  50.409  1.00  0.00     0.183 C 
ENDROOT
BRANCH   1   2
HETATM    2  C   UNL     1      25.361  44.394  51.905  1.00  0.00     0.076 C 
BRANCH   2   3
HETATM    3  C   UNL     1      26.589  43.569  52.158  1.00  0.00    -0.028 A 
HETATM    4  C   UNL     1      27.591  43.811  53.153  1.00  0.00    -0.002 A 
HETATM    5  C   UNL     1      27.769  44.793  54.150  1.00  0.00     0.014 A 
HETATM    6  C   UNL     1      28.553  42.808  53.029  1.00  0.00     0.042 A 
HETATM    7  C   UNL     1      28.896  44.739  54.978  1.00  0.00     0.001 A 
HETATM    8  C   UNL     1      29.840  43.726  54.826  1.00  0.00     0.002 A 
HETATM    9  C   UNL     1      29.686  42.740  53.848  1.00  0.00     0.030 A 
HETATM   10  N   UNL     1      28.146  41.980  52.011  1.00  0.00    -0.365 N 
HETATM   11  H   UNL     1      28.647  41.156  51.709  1.00  0.00     0.165 HD
HETATM   12  C   UNL     1      26.965  42.426  51.479  1.00  0.00     0.096 A 
ENDBRANCH   2   3
ENDBRANCH   1   2
BRANCH   1  13
HETATM   13  N   UNL     1      25.703  45.821  49.889  1.00  0.00    -0.343 N 
HETATM   14  C   UNL     1      25.481  47.067  50.432  1.00  0.00     0.259 C 
HETATM   15  O   UNL     1      24.971  47.178  51.548  1.00  0.00    -0.267 OA
HETATM   16  H   UNL     1      26.003  45.811  48.919  1.00  0.00     0.163 HD
BRANCH  14  17
HETATM   17  C   UNL     1      25.894  48.206  49.626  1.00  0.00     0.072 A 
HETATM   18  S   UNL     1      24.773  49.158  48.743  1.00  0.00    -0.097 SA
HETATM   19  C   UNL     1      26.004  50.173  48.132  1.00  0.00     0.050 A 
HETATM   20  C   UNL     1      27.249  49.808  48.594  1.00  0.00     0.009 A 
HETATM   21  C   UNL     1      27.185  48.675  49.455  1.00  0.00     0.025 A 
ENDBRANCH  14  17
ENDBRANCH   1  13
BRANCH   1  22
HETATM   22  C   UNL     1      23.530  44.614  50.206  1.00  0.00     0.259 C 
HETATM   23  N   UNL     1      23.038  45.671  49.450  1.00  0.00    -0.264 N 
HETATM   24  H   UNL     1      23.710  46.157  48.848  1.00  0.00     0.190 HD
HETATM   25  O   UNL     1      22.802  43.683  50.556  1.00  0.00    -0.269 OA
BRANCH  23  26
HETATM   26  N   UNL     1      21.734  45.499  48.952  1.00  0.00    -0.249 N 
HETATM   27  C   UNL     1      20.760  46.469  48.966  1.00  0.00     0.339 C 
HETATM   28  N   UNL     1      21.220  47.734  49.233  1.00  0.00    -0.308 N 
HETATM   29  O   UNL     1      19.602  46.146  48.720  1.00  0.00    -0.245 OA
HETATM   30  H   UNL     1      22.190  47.779  49.509  1.00  0.00     0.170 HD
HETATM   31  H   UNL     1      21.394  44.537  48.914  1.00  0.00     0.192 HD
BRANCH  28  32
HETATM   32  C   UNL     1      20.490  48.939  49.201  1.00  0.00     0.036 A 
HETATM   33  C   UNL     1      20.800  50.014  48.363  1.00  0.00     0.031 A 
HETATM   34  C   UNL     1      20.047  51.193  48.401  1.00  0.00     0.026 A 
HETATM   35  C   UNL     1      18.977  51.302  49.284  1.00  0.00     0.034 A 
HETATM   36 CL   UNL     1      18.059  52.756  49.342  1.00  0.00    -0.084 Cl
HETATM   37  C   UNL     1      18.652  50.240  50.124  1.00  0.00     0.026 A 
HETATM   38  C   UNL     1      19.407  49.061  50.081  1.00  0.00     0.031 A 
ENDBRANCH  28  32
ENDBRANCH  23  26
ENDBRANCH   1  22
TORSDOF 7
ENDMDL
MODEL 3
REMARK VINA RESULT:      -9.6      3.688      7.050
REMARK  7 active torsions:
REMARK  status: ('A' for Active; 'I' for Inactive)
REMARK    1  A    between atoms: C_8  and  C_9 
REMARK    2  A    between atoms: C_9  and  C_10 
REMARK    3  A    between atoms: C_10  and  N_11 
REMARK    4  A    between atoms: C_10  and  C_19 
REMARK       I    between atoms: N_11  and  C_12 
REMARK    5  A    between atoms: C_12  and  C_13 
REMARK       I    between atoms: C_19  and  N_20 
REMARK    6  A    between atoms: N_20  and  N_21 
REMARK       I    between atoms: N_21  and  C_22 
REMARK       I    between atoms: C_22  and  N_23 
REMARK    7  A    between atoms: N_23  and  C_24 
ROOT
HETATM    1  C   UNL     1      24.657  45.040  50.036  1.00  0.00     0.183 C 
ENDROOT
BRANCH   1   2
HETATM    2  C   UNL     1      25.147  46.227  50.887  1.00  0.00     0.076 C 
BRANCH   2   3
HETATM    3  C   UNL     1      25.563  47.415  50.069  1.00  0.00    -0.028 A 
HETATM    4  C   UNL     1      24.695  48.357  49.428  1.00  0.00    -0.002 A 
HETATM    5  C   UNL     1      23.295  48.505  49.345  1.00  0.00     0.014 A 
HETATM    6  C   UNL     1      25.501  49.288  48.773  1.00  0.00     0.042 A 
HETATM    7  C   UNL     1      22.755  49.568  48.612  1.00  0.00     0.001 A 
HETATM    8  C   UNL     1      23.588  50.478  47.966  1.00  0.00     0.002 A 
HETATM    9  C   UNL     1      24.979  50.356  48.034  1.00  0.00     0.030 A 
HETATM   10  N   UNL     1      26.807  48.937  49.016  1.00  0.00    -0.365 N 
HETATM   11  H   UNL     1      27.610  49.445  48.673  1.00  0.00     0.165 HD
HETATM   12  C   UNL     1      26.858  47.812  49.796  1.00  0.00     0.096 A 
ENDBRANCH   2   3
ENDBRANCH   1   2
BRANCH   1  13
HETATM   13  N   UNL     1      23.243  45.177  49.665  1.00  0.00    -0.343 N 
HETATM   14  C   UNL     1      22.786  44.945  48.387  1.00  0.00     0.259 C 
HETATM   15  O   UNL     1      23.485  44.335  47.576  1.00  0.00    -0.267 OA
HETATM   16  H   UNL     1      22.671  45.796  50.232  1.00  0.00     0.163 HD
BRANCH  14  17
HETATM   17  C   UNL     1      21.453  45.441  48.079  1.00  0.00     0.072 A 
HETATM   18  S   UNL     1      21.155  46.512  46.772  1.00  0.00    -0.097 SA
HETATM   19  C   UNL     1      19.483  46.583  47.116  1.00  0.00     0.050 A 
HETATM   20  C   UNL     1      19.145  45.800  48.197  1.00  0.00     0.009 A 
HETATM   21  C   UNL     1      20.281  45.142  48.752  1.00  0.00     0.025 A 
ENDBRANCH  14  17
ENDBRANCH   1  13
BRANCH   1  22
HETATM   22  C   UNL     1      24.940  43.729  50.807  1.00  0.00     0.259 C 
HETATM   23  N   UNL     1      26.280  43.477  51.076  1.00  0.00    -0.264 N 
HETATM   24  H   UNL     1      26.915  44.281  51.036  1.00  0.00     0.190 HD
HETATM   25  O   UNL     1      24.047  43.024  51.282  1.00  0.00    -0.269 OA
BRANCH  23  26
HETATM   26  N   UNL     1      26.523  42.514  52.071  1.00  0.00    -0.249 N 
HETATM   27  C   UNL     1      27.356  42.700  53.149  1.00  0.00     0.339 C 
HETATM   28  N   UNL     1      27.722  44.005  53.367  1.00  0.00    -0.308 N 
HETATM   29  O   UNL     1      27.672  41.726  53.825  1.00  0.00    -0.245 OA
HETATM   30  H   UNL     1      27.441  44.647  52.641  1.00  0.00     0.170 HD
HETATM   31  H   UNL     1      26.369  41.542  51.799  1.00  0.00     0.192 HD
BRANCH  28  32
HETATM   32  C   UNL     1      28.464  44.520  54.448  1.00  0.00     0.036 A 
HETATM   33  C   UNL     1      29.719  44.035  54.831  1.00  0.00     0.031 A 
HETATM   34  C   UNL     1      30.390  44.578  55.933  1.00  0.00     0.026 A 
HETATM   35  C   UNL     1      29.807  45.610  56.660  1.00  0.00     0.034 A 
HETATM   36 CL   UNL     1      30.625  46.269  58.022  1.00  0.00    -0.084 Cl
HETATM   37  C   UNL     1      28.559  46.107  56.290  1.00  0.00     0.026 A 
HETATM   38  C   UNL     1      27.891  45.564  55.186  1.00  0.00     0.031 A 
ENDBRANCH  28  32
ENDBRANCH  23  26
ENDBRANCH   1  22
TORSDOF 7
ENDMDL
MODEL 4
REMARK VINA RESULT:      -9.6      4.797      8.113
REMARK  7 active torsions:
REMARK  status: ('A' for Active; 'I' for Inactive)
REMARK    1  A    between atoms: C_8  and  C_9 
REMARK    2  A    between atoms: C_9  and  C_10 
REMARK    3  A    between atoms: C_10  and  N_11 
REMARK    4  A    between atoms: C_10  and  C_19 
REMARK       I    between atoms: N_11  and  C_12 
REMARK    5  A    between atoms: C_12  and  C_13 
REMARK       I    between atoms: C_19  and  N_20 
REMARK    6  A    between atoms: N_20  and  N_21 
REMARK       I    between atoms: N_21  and  C_22 
REMARK       I    between atoms: C_22  and  N_23 
REMARK    7  A    between atoms: N_23  and  C_24 
ROOT
HETATM    1  C   UNL     1      24.493  45.272  50.905  1.00  0.00     0.183 C 
ENDROOT
BRANCH   1   2
HETATM    2  C   UNL     1      25.453  45.853  51.961  1.00  0.00     0.076 C 
BRANCH   2   3
HETATM    3  C   UNL     1      25.917  44.841  52.967  1.00  0.00    -0.028 A 
HETATM    4  C   UNL     1      27.141  44.096  52.927  1.00  0.00    -0.002 A 
HETATM    5  C   UNL     1      28.236  44.052  52.040  1.00  0.00     0.014 A 
HETATM    6  C   UNL     1      27.161  43.267  54.049  1.00  0.00     0.042 A 
HETATM    7  C   UNL     1      29.302  43.183  52.302  1.00  0.00     0.001 A 
HETATM    8  C   UNL     1      29.290  42.366  53.429  1.00  0.00     0.002 A 
HETATM    9  C   UNL     1      28.218  42.392  54.326  1.00  0.00     0.030 A 
HETATM   10  N   UNL     1      26.004  43.507  54.752  1.00  0.00    -0.365 N 
HETATM   11  H   UNL     1      25.758  43.053  55.620  1.00  0.00     0.165 HD
HETATM   12  C   UNL     1      25.248  44.452  54.111  1.00  0.00     0.096 A 
ENDBRANCH   2   3
ENDBRANCH   1   2
BRANCH   1  13
HETATM   13  N   UNL     1      25.033  44.057  50.282  1.00  0.00    -0.343 N 
HETATM   14  C   UNL     1      24.490  42.810  50.497  1.00  0.00     0.259 C 
HETATM   15  O   UNL     1      23.364  42.695  50.982  1.00  0.00    -0.267 OA
HETATM   16  H   UNL     1      26.009  44.071  50.003  1.00  0.00     0.163 HD
BRANCH  14  17
HETATM   17  C   UNL     1      25.311  41.674  50.105  1.00  0.00     0.072 A 
HETATM   18  S   UNL     1      25.143  40.905  48.580  1.00  0.00    -0.097 SA
HETATM   19  C   UNL     1      26.371  39.772  48.935  1.00  0.00     0.050 A 
HETATM   20  C   UNL     1      26.914  39.973  50.184  1.00  0.00     0.009 A 
HETATM   21  C   UNL     1      26.302  41.069  50.858  1.00  0.00     0.025 A 
ENDBRANCH  14  17
ENDBRANCH   1  13
BRANCH   1  22
HETATM   22  C   UNL     1      24.172  46.375  49.869  1.00  0.00     0.259 C 
HETATM   23  N   UNL     1      24.683  47.632  50.164  1.00  0.00    -0.264 N 
HETATM   24  H   UNL     1      25.459  47.667  50.833  1.00  0.00     0.190 HD
HETATM   25  O   UNL     1      23.629  46.141  48.787  1.00  0.00    -0.269 OA
BRANCH  23  26
HETATM   26  N   UNL     1      24.723  48.534  49.086  1.00  0.00    -0.249 N 
HETATM   27  C   UNL     1      23.629  49.202  48.589  1.00  0.00     0.339 C 
HETATM   28  N   UNL     1      22.522  49.166  49.400  1.00  0.00    -0.308 N 
HETATM   29  O   UNL     1      23.730  49.782  47.512  1.00  0.00    -0.245 OA
HETATM   30  H   UNL     1      22.605  48.552  50.197  1.00  0.00     0.170 HD
HETATM   31  H   UNL     1      25.497  48.415  48.432  1.00  0.00     0.192 HD
BRANCH  28  32
HETATM   32  C   UNL     1      21.302  49.846  49.220  1.00  0.00     0.036 A 
HETATM   33  C   UNL     1      21.208  51.188  48.838  1.00  0.00     0.031 A 
HETATM   34  C   UNL     1      19.961  51.809  48.703  1.00  0.00     0.026 A 
HETATM   35  C   UNL     1      18.798  51.087  48.951  1.00  0.00     0.034 A 
HETATM   36 CL   UNL     1      17.265  51.853  48.797  1.00  0.00    -0.084 Cl
HETATM   37  C   UNL     1      18.872  49.749  49.328  1.00  0.00     0.026 A 
HETATM   38  C   UNL     1      20.121  49.130  49.461  1.00  0.00     0.031 A 
ENDBRANCH  28  32
ENDBRANCH  23  26
ENDBRANCH   1  22
TORSDOF 7
ENDMDL
MODEL 5
REMARK VINA RESULT:      -9.5      3.746      5.129
REMARK  7 active torsions:
REMARK  status: ('A' for Active; 'I' for Inactive)
REMARK    1  A    between atoms: C_8  and  C_9 
REMARK    2  A    between atoms: C_9  and  C_10 
REMARK    3  A    between atoms: C_10  and  N_11 
REMARK    4  A    between atoms: C_10  and  C_19 
REMARK       I    between atoms: N_11  and  C_12 
REMARK    5  A    between atoms: C_12  and  C_13 
REMARK       I    between atoms: C_19  and  N_20 
REMARK    6  A    between atoms: N_20  and  N_21 
REMARK       I    between atoms: N_21  and  C_22 
REMARK       I    between atoms: C_22  and  N_23 
REMARK    7  A    between atoms: N_23  and  C_24 
ROOT
HETATM    1  C   UNL     1      26.952  44.662  51.206  1.00  0.00     0.183 C 
ENDROOT
BRANCH   1   2
HETATM    2  C   UNL     1      26.307  44.535  52.599  1.00  0.00     0.076 C 
BRANCH   2   3
HETATM    3  C   UNL     1      27.122  45.159  53.693  1.00  0.00    -0.028 A 
HETATM    4  C   UNL     1      28.323  44.632  54.270  1.00  0.00    -0.002 A 
HETATM    5  C   UNL     1      29.097  43.475  54.043  1.00  0.00     0.014 A 
HETATM    6  C   UNL     1      28.739  45.527  55.256  1.00  0.00     0.042 A 
HETATM    7  C   UNL     1      30.248  43.255  54.808  1.00  0.00     0.001 A 
HETATM    8  C   UNL     1      30.635  44.166  55.787  1.00  0.00     0.002 A 
HETATM    9  C   UNL     1      29.887  45.321  56.030  1.00  0.00     0.030 A 
HETATM   10  N   UNL     1      27.837  46.564  55.270  1.00  0.00    -0.365 N 
HETATM   11  H   UNL     1      27.898  47.367  55.880  1.00  0.00     0.165 HD
HETATM   12  C   UNL     1      26.859  46.354  54.334  1.00  0.00     0.096 A 
ENDBRANCH   2   3
ENDBRANCH   1   2
BRANCH   1  13
HETATM   13  N   UNL     1      26.873  46.033  50.687  1.00  0.00    -0.343 N 
HETATM   14  C   UNL     1      25.675  46.682  50.486  1.00  0.00     0.259 C 
HETATM   15  O   UNL     1      24.640  46.254  51.001  1.00  0.00    -0.267 OA
HETATM   16  H   UNL     1      27.653  46.365  50.129  1.00  0.00     0.163 HD
BRANCH  14  17
HETATM   17  C   UNL     1      25.720  47.880  49.662  1.00  0.00     0.072 A 
HETATM   18  S   UNL     1      27.198  48.561  49.118  1.00  0.00    -0.097 SA
HETATM   19  C   UNL     1      26.397  49.831  48.303  1.00  0.00     0.050 A 
HETATM   20  C   UNL     1      25.029  49.742  48.427  1.00  0.00     0.009 A 
HETATM   21  C   UNL     1      24.639  48.617  49.210  1.00  0.00     0.025 A 
ENDBRANCH  14  17
ENDBRANCH   1  13
BRANCH   1  22
HETATM   22  C   UNL     1      26.290  43.634  50.258  1.00  0.00     0.259 C 
HETATM   23  N   UNL     1      25.006  43.240  50.615  1.00  0.00    -0.264 N 
HETATM   24  H   UNL     1      24.497  43.859  51.254  1.00  0.00     0.190 HD
HETATM   25  O   UNL     1      26.791  43.290  49.185  1.00  0.00    -0.269 OA
BRANCH  23  26
HETATM   26  N   UNL     1      24.265  42.613  49.598  1.00  0.00    -0.249 N 
HETATM   27  C   UNL     1      23.143  43.148  49.009  1.00  0.00     0.339 C 
HETATM   28  N   UNL     1      22.946  44.481  49.266  1.00  0.00    -0.308 N 
HETATM   29  O   UNL     1      22.447  42.426  48.302  1.00  0.00    -0.245 OA
HETATM   30  H   UNL     1      23.572  44.874  49.953  1.00  0.00     0.170 HD
HETATM   31  H   UNL     1      24.342  41.596  49.551  1.00  0.00     0.192 HD
BRANCH  28  32
HETATM   32  C   UNL     1      21.962  45.326  48.717  1.00  0.00     0.036 A 
HETATM   33  C   UNL     1      20.589  45.164  48.932  1.00  0.00     0.031 A 
HETATM   34  C   UNL     1      19.664  46.027  48.333  1.00  0.00     0.026 A 
HETATM   35  C   UNL     1      20.109  47.058  47.512  1.00  0.00     0.034 A 
HETATM   36 CL   UNL     1      18.972  48.110  46.765  1.00  0.00    -0.084 Cl
HETATM   37  C   UNL     1      21.472  47.236  47.290  1.00  0.00     0.026 A 
HETATM   38  C   UNL     1      22.396  46.373  47.892  1.00  0.00     0.031 A 
ENDBRANCH  28  32
ENDBRANCH  23  26
ENDBRANCH   1  22
TORSDOF 7
ENDMDL
MODEL 6
REMARK VINA RESULT:      -9.5      4.297      7.306
REMARK  7 active torsions:
REMARK  status: ('A' for Active; 'I' for Inactive)
REMARK    1  A    between atoms: C_8  and  C_9 
REMARK    2  A    between atoms: C_9  and  C_10 
REMARK    3  A    between atoms: C_10  and  N_11 
REMARK    4  A    between atoms: C_10  and  C_19 
REMARK       I    between atoms: N_11  and  C_12 
REMARK    5  A    between atoms: C_12  and  C_13 
REMARK       I    between atoms: C_19  and  N_20 
REMARK    6  A    between atoms: N_20  and  N_21 
REMARK       I    between atoms: N_21  and  C_22 
REMARK       I    between atoms: C_22  and  N_23 
REMARK    7  A    between atoms: N_23  and  C_24 
ROOT
HETATM    1  C   UNL     1      25.369  43.707  51.799  1.00  0.00     0.183 C 
ENDROOT
BRANCH   1   2
HETATM    2  C   UNL     1      26.272  44.953  51.877  1.00  0.00     0.076 C 
BRANCH   2   3
HETATM    3  C   UNL     1      27.059  45.040  53.151  1.00  0.00    -0.028 A 
HETATM    4  C   UNL     1      28.264  44.330  53.461  1.00  0.00    -0.002 A 
HETATM    5  C   UNL     1      29.066  43.403  52.763  1.00  0.00     0.014 A 
HETATM    6  C   UNL     1      28.648  44.703  54.749  1.00  0.00     0.042 A 
HETATM    7  C   UNL     1      30.212  42.883  53.375  1.00  0.00     0.001 A 
HETATM    8  C   UNL     1      30.566  43.272  54.665  1.00  0.00     0.002 A 
HETATM    9  C   UNL     1      29.790  44.191  55.377  1.00  0.00     0.030 A 
HETATM   10  N   UNL     1      27.724  45.614  55.201  1.00  0.00    -0.365 N 
HETATM   11  H   UNL     1      27.759  46.065  56.104  1.00  0.00     0.165 HD
HETATM   12  C   UNL     1      26.763  45.826  54.248  1.00  0.00     0.096 A 
ENDBRANCH   2   3
ENDBRANCH   1   2
BRANCH   1  13
HETATM   13  N   UNL     1      26.135  42.492  51.492  1.00  0.00    -0.343 N 
HETATM   14  C   UNL     1      26.787  42.310  50.294  1.00  0.00     0.259 C 
HETATM   15  O   UNL     1      27.000  43.267  49.548  1.00  0.00    -0.267 OA
HETATM   16  H   UNL     1      25.880  41.644  51.989  1.00  0.00     0.163 HD
BRANCH  14  17
HETATM   17  C   UNL     1      27.209  40.951  49.989  1.00  0.00     0.072 A 
HETATM   18  S   UNL     1      26.352  39.951  48.890  1.00  0.00    -0.097 SA
HETATM   19  C   UNL     1      27.432  38.647  49.121  1.00  0.00     0.050 A 
HETATM   20  C   UNL     1      28.436  38.960  50.008  1.00  0.00     0.009 A 
HETATM   21  C   UNL     1      28.308  40.288  50.508  1.00  0.00     0.025 A 
ENDBRANCH  14  17
ENDBRANCH   1  13
BRANCH   1  22
HETATM   22  C   UNL     1      24.247  43.973  50.767  1.00  0.00     0.259 C 
HETATM   23  N   UNL     1      24.501  45.001  49.867  1.00  0.00    -0.264 N 
HETATM   24  H   UNL     1      25.482  45.275  49.749  1.00  0.00     0.190 HD
HETATM   25  O   UNL     1      23.260  43.244  50.646  1.00  0.00    -0.269 OA
BRANCH  23  26
HETATM   26  N   UNL     1      23.686  45.012  48.721  1.00  0.00    -0.249 N 
HETATM   27  C   UNL     1      22.786  46.005  48.415  1.00  0.00     0.339 C 
HETATM   28  N   UNL     1      22.933  47.154  49.151  1.00  0.00    -0.308 N 
HETATM   29  O   UNL     1      21.970  45.806  47.521  1.00  0.00    -0.245 OA
HETATM   30  H   UNL     1      23.596  47.085  49.909  1.00  0.00     0.170 HD
HETATM   31  H   UNL     1      23.494  44.102  48.301  1.00  0.00     0.192 HD
BRANCH  28  32
HETATM   32  C   UNL     1      22.245  48.372  48.990  1.00  0.00     0.036 A 
HETATM   33  C   UNL     1      22.874  49.591  48.716  1.00  0.00     0.031 A 
HETATM   34  C   UNL     1      22.130  50.770  48.593  1.00  0.00     0.026 A 
HETATM   35  C   UNL     1      20.748  50.735  48.746  1.00  0.00     0.034 A 
HETATM   36 CL   UNL     1      19.833  52.185  48.608  1.00  0.00    -0.084 Cl
HETATM   37  C   UNL     1      20.104  49.530  49.015  1.00  0.00     0.026 A 
HETATM   38  C   UNL     1      20.851  48.351  49.135  1.00  0.00     0.031 A 
ENDBRANCH  28  32
ENDBRANCH  23  26
ENDBRANCH   1  22
TORSDOF 7
ENDMDL
MODEL 7
REMARK VINA RESULT:      -9.4      2.786      5.977
REMARK  7 active torsions:
REMARK  status: ('A' for Active; 'I' for Inactive)
REMARK    1  A    between atoms: C_8  and  C_9 
REMARK    2  A    between atoms: C_9  and  C_10 
REMARK    3  A    between atoms: C_10  and  N_11 
REMARK    4  A    between atoms: C_10  and  C_19 
REMARK       I    between atoms: N_11  and  C_12 
REMARK    5  A    between atoms: C_12  and  C_13 
REMARK       I    between atoms: C_19  and  N_20 
REMARK    6  A    between atoms: N_20  and  N_21 
REMARK       I    between atoms: N_21  and  C_22 
REMARK       I    between atoms: C_22  and  N_23 
REMARK    7  A    between atoms: N_23  and  C_24 
ROOT
HETATM    1  C   UNL     1      25.023  46.002  51.211  1.00  0.00     0.183 C 
ENDROOT
BRANCH   1   2
HETATM    2  C   UNL     1      26.225  45.560  50.355  1.00  0.00     0.076 C 
BRANCH   2   3
HETATM    3  C   UNL     1      26.243  44.087  50.067  1.00  0.00    -0.028 A 
HETATM    4  C   UNL     1      27.066  43.103  50.704  1.00  0.00    -0.002 A 
HETATM    5  C   UNL     1      28.041  43.146  51.722  1.00  0.00     0.014 A 
HETATM    6  C   UNL     1      26.764  41.869  50.125  1.00  0.00     0.042 A 
HETATM    7  C   UNL     1      28.678  41.964  52.118  1.00  0.00     0.001 A 
HETATM    8  C   UNL     1      28.357  40.749  51.518  1.00  0.00     0.002 A 
HETATM    9  C   UNL     1      27.392  40.678  50.509  1.00  0.00     0.030 A 
HETATM   10  N   UNL     1      25.787  42.091  49.185  1.00  0.00    -0.365 N 
HETATM   11  H   UNL     1      25.365  41.369  48.617  1.00  0.00     0.165 HD
HETATM   12  C   UNL     1      25.464  43.421  49.141  1.00  0.00     0.096 A 
ENDBRANCH   2   3
ENDBRANCH   1   2
BRANCH   1  13
HETATM   13  N   UNL     1      24.360  47.188  50.655  1.00  0.00    -0.343 N 
HETATM   14  C   UNL     1      23.611  47.145  49.500  1.00  0.00     0.259 C 
HETATM   15  O   UNL     1      23.225  46.066  49.047  1.00  0.00    -0.267 OA
HETATM   16  H   UNL     1      24.750  48.095  50.894  1.00  0.00     0.163 HD
BRANCH  14  17
HETATM   17  C   UNL     1      23.303  48.427  48.883  1.00  0.00     0.072 A 
HETATM   18  S   UNL     1      21.700  48.886  48.479  1.00  0.00    -0.097 SA
HETATM   19  C   UNL     1      22.212  50.390  47.848  1.00  0.00     0.050 A 
HETATM   20  C   UNL     1      23.576  50.553  47.949  1.00  0.00     0.009 A 
HETATM   21  C   UNL     1      24.204  49.421  48.546  1.00  0.00     0.025 A 
ENDBRANCH  14  17
ENDBRANCH   1  13
BRANCH   1  22
HETATM   22  C   UNL     1      25.505  46.223  52.664  1.00  0.00     0.259 C 
HETATM   23  N   UNL     1      26.290  47.353  52.863  1.00  0.00    -0.264 N 
HETATM   24  H   UNL     1      26.228  48.086  52.149  1.00  0.00     0.190 HD
HETATM   25  O   UNL     1      25.112  45.541  53.613  1.00  0.00    -0.269 OA
BRANCH  23  26
HETATM   26  N   UNL     1      26.423  47.765  54.200  1.00  0.00    -0.249 N 
HETATM   27  C   UNL     1      27.190  47.121  55.142  1.00  0.00     0.339 C 
HETATM   28  N   UNL     1      28.070  46.201  54.628  1.00  0.00    -0.308 N 
HETATM   29  O   UNL     1      27.056  47.428  56.322  1.00  0.00    -0.245 OA
HETATM   30  H   UNL     1      27.958  46.019  53.641  1.00  0.00     0.170 HD
HETATM   31  H   UNL     1      25.659  48.332  54.571  1.00  0.00     0.192 HD
BRANCH  28  32
HETATM   32  C   UNL     1      29.057  45.475  55.321  1.00  0.00     0.036 A 
HETATM   33  C   UNL     1      29.660  45.916  56.504  1.00  0.00     0.031 A 
HETATM   34  C   UNL     1      30.655  45.154  57.128  1.00  0.00     0.026 A 
HETATM   35  C   UNL     1      31.053  43.945  56.569  1.00  0.00     0.034 A 
HETATM   36 CL   UNL     1      32.285  43.014  57.328  1.00  0.00    -0.084 Cl
HETATM   37  C   UNL     1      30.461  43.489  55.394  1.00  0.00     0.026 A 
HETATM   38  C   UNL     1      29.464  44.252  54.773  1.00  0.00     0.031 A 
ENDBRANCH  28  32
ENDBRANCH  23  26
ENDBRANCH   1  22
TORSDOF 7
ENDMDL
MODEL 8
REMARK VINA RESULT:      -9.2      3.127      4.446
REMARK  7 active torsions:
REMARK  status: ('A' for Active; 'I' for Inactive)
REMARK    1  A    between atoms: C_8  and  C_9 
REMARK    2  A    between atoms: C_9  and  C_10 
REMARK    3  A    between atoms: C_10  and  N_11 
REMARK    4  A    between atoms: C_10  and  C_19 
REMARK       I    between atoms: N_11  and  C_12 
REMARK    5  A    between atoms: C_12  and  C_13 
REMARK       I    between atoms: C_19  and  N_20 
REMARK    6  A    between atoms: N_20  and  N_21 
REMARK       I    between atoms: N_21  and  C_22 
REMARK       I    between atoms: C_22  and  N_23 
REMARK    7  A    between atoms: N_23  and  C_24 
ROOT
HETATM    1  C   UNL     1      27.684  42.570  52.163  1.00  0.00     0.183 C 
ENDROOT
BRANCH   1   2
HETATM    2  C   UNL     1      27.088  42.906  53.544  1.00  0.00     0.076 C 
BRANCH   2   3
HETATM    3  C   UNL     1      27.758  44.068  54.216  1.00  0.00    -0.028 A 
HETATM    4  C   UNL     1      28.996  44.040  54.937  1.00  0.00    -0.002 A 
HETATM    5  C   UNL     1      29.936  43.032  55.237  1.00  0.00     0.014 A 
HETATM    6  C   UNL     1      29.238  45.333  55.401  1.00  0.00     0.042 A 
HETATM    7  C   UNL     1      31.073  43.351  55.988  1.00  0.00     0.001 A 
HETATM    8  C   UNL     1      31.284  44.651  56.440  1.00  0.00     0.002 A 
HETATM    9  C   UNL     1      30.369  45.669  56.154  1.00  0.00     0.030 A 
HETATM   10  N   UNL     1      28.198  46.121  54.968  1.00  0.00    -0.365 N 
HETATM   11  H   UNL     1      28.118  47.111  55.148  1.00  0.00     0.165 HD
HETATM   12  C   UNL     1      27.301  45.371  54.254  1.00  0.00     0.096 A 
ENDBRANCH   2   3
ENDBRANCH   1   2
BRANCH   1  13
HETATM   13  N   UNL     1      26.702  42.739  51.085  1.00  0.00    -0.343 N 
HETATM   14  C   UNL     1      26.612  43.893  50.339  1.00  0.00     0.259 C 
HETATM   15  O   UNL     1      27.532  44.713  50.345  1.00  0.00    -0.267 OA
HETATM   16  H   UNL     1      25.857  42.178  51.133  1.00  0.00     0.163 HD
BRANCH  14  17
HETATM   17  C   UNL     1      25.399  44.060  49.553  1.00  0.00     0.072 A 
HETATM   18  S   UNL     1      24.514  45.530  49.538  1.00  0.00    -0.097 SA
HETATM   19  C   UNL     1      23.342  44.898  48.467  1.00  0.00     0.050 A 
HETATM   20  C   UNL     1      23.616  43.596  48.113  1.00  0.00     0.009 A 
HETATM   21  C   UNL     1      24.802  43.113  48.739  1.00  0.00     0.025 A 
ENDBRANCH  14  17
ENDBRANCH   1  13
BRANCH   1  22
HETATM   22  C   UNL     1      28.266  41.138  52.211  1.00  0.00     0.259 C 
HETATM   23  N   UNL     1      28.534  40.565  50.974  1.00  0.00    -0.264 N 
HETATM   24  H   UNL     1      28.627  41.208  50.181  1.00  0.00     0.190 HD
HETATM   25  O   UNL     1      28.610  40.588  53.260  1.00  0.00    -0.269 OA
BRANCH  23  26
HETATM   26  N   UNL     1      29.386  39.447  51.000  1.00  0.00    -0.249 N 
HETATM   27  C   UNL     1      29.212  38.316  50.237  1.00  0.00     0.339 C 
HETATM   28  N   UNL     1      28.308  38.454  49.213  1.00  0.00    -0.308 N 
HETATM   29  O   UNL     1      29.875  37.318  50.502  1.00  0.00    -0.245 OA
HETATM   30  H   UNL     1      27.792  39.321  49.222  1.00  0.00     0.170 HD
HETATM   31  H   UNL     1      29.929  39.319  51.855  1.00  0.00     0.192 HD
BRANCH  28  32
HETATM   32  C   UNL     1      28.006  37.521  48.203  1.00  0.00     0.036 A 
HETATM   33  C   UNL     1      26.930  36.629  48.263  1.00  0.00     0.031 A 
HETATM   34  C   UNL     1      26.703  35.710  47.233  1.00  0.00     0.026 A 
HETATM   35  C   UNL     1      27.555  35.676  46.135  1.00  0.00     0.034 A 
HETATM   36 CL   UNL     1      27.284  34.537  44.874  1.00  0.00    -0.084 Cl
HETATM   37  C   UNL     1      28.629  36.558  46.056  1.00  0.00     0.026 A 
HETATM   38  C   UNL     1      28.853  37.479  47.087  1.00  0.00     0.031 A 
ENDBRANCH  28  32
ENDBRANCH  23  26
ENDBRANCH   1  22
TORSDOF 7
ENDMDL
MODEL 9
REMARK VINA RESULT:      -9.2      3.336      4.540
REMARK  7 active torsions:
REMARK  status: ('A' for Active; 'I' for Inactive)
REMARK    1  A    between atoms: C_8  and  C_9 
REMARK    2  A    between atoms: C_9  and  C_10 
REMARK    3  A    between atoms: C_10  and  N_11 
REMARK    4  A    between atoms: C_10  and  C_19 
REMARK       I    between atoms: N_11  and  C_12 
REMARK    5  A    between atoms: C_12  and  C_13 
REMARK       I    between atoms: C_19  and  N_20 
REMARK    6  A    between atoms: N_20  and  N_21 
REMARK       I    between atoms: N_21  and  C_22 
REMARK       I    between atoms: C_22  and  N_23 
REMARK    7  A    between atoms: N_23  and  C_24 
ROOT
HETATM    1  C   UNL     1      26.994  44.890  51.992  1.00  0.00     0.183 C 
ENDROOT
BRANCH   1   2
HETATM    2  C   UNL     1      27.077  45.047  53.523  1.00  0.00     0.076 C 
BRANCH   2   3
HETATM    3  C   UNL     1      28.354  44.518  54.108  1.00  0.00    -0.028 A 
HETATM    4  C   UNL     1      28.958  44.921  55.344  1.00  0.00    -0.002 A 
HETATM    5  C   UNL     1      28.612  45.845  56.351  1.00  0.00     0.014 A 
HETATM    6  C   UNL     1      30.133  44.183  55.493  1.00  0.00     0.042 A 
HETATM    7  C   UNL     1      29.450  46.000  57.462  1.00  0.00     0.001 A 
HETATM    8  C   UNL     1      30.618  45.251  57.579  1.00  0.00     0.002 A 
HETATM    9  C   UNL     1      30.982  44.327  56.596  1.00  0.00     0.030 A 
HETATM   10  N   UNL     1      30.233  43.355  54.401  1.00  0.00    -0.365 N 
HETATM   11  H   UNL     1      30.984  42.695  54.251  1.00  0.00     0.165 HD
HETATM   12  C   UNL     1      29.169  43.547  53.561  1.00  0.00     0.096 A 
ENDBRANCH   2   3
ENDBRANCH   1   2
BRANCH   1  13
HETATM   13  N   UNL     1      26.494  46.108  51.342  1.00  0.00    -0.343 N 
HETATM   14  C   UNL     1      26.431  46.244  49.973  1.00  0.00     0.259 C 
HETATM   15  O   UNL     1      26.514  45.255  49.243  1.00  0.00    -0.267 OA
HETATM   16  H   UNL     1      26.551  46.974  51.869  1.00  0.00     0.163 HD
BRANCH  14  17
HETATM   17  C   UNL     1      26.247  47.597  49.468  1.00  0.00     0.072 A 
HETATM   18  S   UNL     1      24.693  48.290  49.250  1.00  0.00    -0.097 SA
HETATM   19  C   UNL     1      25.348  49.756  48.666  1.00  0.00     0.050 A 
HETATM   20  C   UNL     1      26.724  49.732  48.643  1.00  0.00     0.009 A 
HETATM   21  C   UNL     1      27.242  48.488  49.106  1.00  0.00     0.025 A 
ENDBRANCH  14  17
ENDBRANCH   1  13
BRANCH   1  22
HETATM   22  C   UNL     1      26.128  43.650  51.669  1.00  0.00     0.259 C 
HETATM   23  N   UNL     1      24.768  43.899  51.525  1.00  0.00    -0.264 N 
HETATM   24  H   UNL     1      24.497  44.868  51.333  1.00  0.00     0.190 HD
HETATM   25  O   UNL     1      26.608  42.545  51.410  1.00  0.00    -0.269 OA
BRANCH  23  26
HETATM   26  N   UNL     1      24.037  42.886  50.880  1.00  0.00    -0.249 N 
HETATM   27  C   UNL     1      23.264  43.075  49.759  1.00  0.00     0.339 C 
HETATM   28  N   UNL     1      23.478  44.269  49.115  1.00  0.00    -0.308 N 
HETATM   29  O   UNL     1      22.493  42.185  49.416  1.00  0.00    -0.245 OA
HETATM   30  H   UNL     1      24.079  44.911  49.610  1.00  0.00     0.170 HD
HETATM   31  H   UNL     1      23.782  42.083  51.457  1.00  0.00     0.192 HD
BRANCH  28  32
HETATM   32  C   UNL     1      22.929  44.695  47.890  1.00  0.00     0.036 A 
HETATM   33  C   UNL     1      22.026  45.756  47.770  1.00  0.00     0.031 A 
HETATM   34  C   UNL     1      21.499  46.110  46.522  1.00  0.00     0.026 A 
HETATM   35  C   UNL     1      21.874  45.401  45.386  1.00  0.00     0.034 A 
HETATM   36 CL   UNL     1      21.218  45.828  43.854  1.00  0.00    -0.084 Cl
HETATM   37  C   UNL     1      22.775  44.344  45.487  1.00  0.00     0.026 A 
HETATM   38  C   UNL     1      23.302  43.994  46.736  1.00  0.00     0.031 A 
ENDBRANCH  28  32
ENDBRANCH  23  26
ENDBRANCH   1  22
TORSDOF 7
ENDMDL
MODEL 10
REMARK VINA RESULT:      -9.2      3.981      7.223
REMARK  7 active torsions:
REMARK  status: ('A' for Active; 'I' for Inactive)
REMARK    1  A    between atoms: C_8  and  C_9 
REMARK    2  A    between atoms: C_9  and  C_10 
REMARK    3  A    between atoms: C_10  and  N_11 
REMARK    4  A    between atoms: C_10  and  C_19 
REMARK       I    between atoms: N_11  and  C_12 
REMARK    5  A    between atoms: C_12  and  C_13 
REMARK       I    between atoms: C_19  and  N_20 
REMARK    6  A    between atoms: N_20  and  N_21 
REMARK       I    between atoms: N_21  and  C_22 
REMARK       I    between atoms: C_22  and  N_23 
REMARK    7  A    between atoms: N_23  and  C_24 
ROOT
HETATM    1  C   UNL     1      25.509  45.301  50.995  1.00  0.00     0.183 C 
ENDROOT
BRANCH   1   2
HETATM    2  C   UNL     1      26.644  44.311  51.322  1.00  0.00     0.076 C 
BRANCH   2   3
HETATM    3  C   UNL     1      27.183  44.461  52.715  1.00  0.00    -0.028 A 
HETATM    4  C   UNL     1      28.419  43.935  53.213  1.00  0.00    -0.002 A 
HETATM    5  C   UNL     1      29.467  43.181  52.644  1.00  0.00     0.014 A 
HETATM    6  C   UNL     1      28.518  44.302  54.555  1.00  0.00     0.042 A 
HETATM    7  C   UNL     1      30.565  42.820  53.434  1.00  0.00     0.001 A 
HETATM    8  C   UNL     1      30.630  43.198  54.772  1.00  0.00     0.002 A 
HETATM    9  C   UNL     1      29.607  43.948  55.360  1.00  0.00     0.030 A 
HETATM   10  N   UNL     1      27.395  45.033  54.860  1.00  0.00    -0.365 N 
HETATM   11  H   UNL     1      27.205  45.440  55.764  1.00  0.00     0.165 HD
HETATM   12  C   UNL     1      26.584  45.136  53.760  1.00  0.00     0.096 A 
ENDBRANCH   2   3
ENDBRANCH   1   2
BRANCH   1  13
HETATM   13  N   UNL     1      24.715  44.863  49.841  1.00  0.00    -0.343 N 
HETATM   14  C   UNL     1      23.635  44.017  49.962  1.00  0.00     0.259 C 
HETATM   15  O   UNL     1      23.114  43.825  51.062  1.00  0.00    -0.267 OA
HETATM   16  H   UNL     1      25.170  44.869  48.933  1.00  0.00     0.163 HD
BRANCH  14  17
HETATM   17  C   UNL     1      23.159  43.399  48.733  1.00  0.00     0.072 A 
HETATM   18  S   UNL     1      22.359  44.295  47.509  1.00  0.00    -0.097 SA
HETATM   19  C   UNL     1      22.156  42.911  46.527  1.00  0.00     0.050 A 
HETATM   20  C   UNL     1      22.694  41.784  47.107  1.00  0.00     0.009 A 
HETATM   21  C   UNL     1      23.272  42.066  48.379  1.00  0.00     0.025 A 
ENDBRANCH  14  17
ENDBRANCH   1  13
BRANCH   1  22
HETATM   22  C   UNL     1      26.122  46.706  50.791  1.00  0.00     0.259 C 
HETATM   23  N   UNL     1      26.717  46.919  49.554  1.00  0.00    -0.264 N 
HETATM   24  H   UNL     1      26.441  46.285  48.796  1.00  0.00     0.190 HD
HETATM   25  O   UNL     1      25.974  47.627  51.598  1.00  0.00    -0.269 OA
BRANCH  23  26
HETATM   26  N   UNL     1      26.941  48.266  49.217  1.00  0.00    -0.249 N 
HETATM   27  C   UNL     1      25.972  49.124  48.754  1.00  0.00     0.339 C 
HETATM   28  N   UNL     1      24.686  48.672  48.915  1.00  0.00    -0.308 N 
HETATM   29  O   UNL     1      26.317  50.201  48.277  1.00  0.00    -0.245 OA
HETATM   30  H   UNL     1      24.613  47.717  49.234  1.00  0.00     0.170 HD
HETATM   31  H   UNL     1      27.899  48.510  48.965  1.00  0.00     0.192 HD
BRANCH  28  32
HETATM   32  C   UNL     1      23.491  49.367  48.648  1.00  0.00     0.036 A 
HETATM   33  C   UNL     1      23.275  50.705  48.996  1.00  0.00     0.031 A 
HETATM   34  C   UNL     1      22.051  51.327  48.724  1.00  0.00     0.026 A 
HETATM   35  C   UNL     1      21.034  50.611  48.102  1.00  0.00     0.034 A 
HETATM   36 CL   UNL     1      19.525  51.372  47.779  1.00  0.00    -0.084 Cl
HETATM   37  C   UNL     1      21.232  49.280  47.746  1.00  0.00     0.026 A 
HETATM   38  C   UNL     1      22.459  48.660  48.017  1.00  0.00     0.031 A 
ENDBRANCH  28  32
ENDBRANCH  23  26
ENDBRANCH   1  22
TORSDOF 7
ENDMDL
