MODEL 1
REMARK VINA RESULT:      -8.2      0.000      0.000
REMARK  5 active torsions:
REMARK  status: ('A' for Active; 'I' for Inactive)
REMARK    1  A    between atoms: C_2  and  O_3 
REMARK    2  A    between atoms: C_2  and  C_5 
REMARK    3  A    between atoms: C_7  and  N_8 
REMARK    4  A    between atoms: N_8  and  C_9 
REMARK    5  A    between atoms: C_9  and  C_10 
ROOT
HETATM    1  N   UNL     1      28.854  41.578  52.735  1.00  0.00    -0.289 NA
HETATM    2  H   UNL     1      29.660  41.567  52.109  1.00  0.00     0.128 HD
ENDROOT
BRANCH   1   3
HETATM    3  C   UNL     1      28.840  42.762  53.478  1.00  0.00     0.009 A 
HETATM    4  C   UNL     1      29.913  42.987  54.357  1.00  0.00     0.033 A 
HETATM    5  C   UNL     1      29.977  44.118  55.188  1.00  0.00    -0.028 A 
HETATM    6  C   UNL     1      28.927  45.045  55.116  1.00  0.00     0.010 A 
HETATM    7  C   UNL     1      27.855  44.842  54.250  1.00  0.00     0.002 A 
HETATM    8  C   UNL     1      27.808  43.702  53.446  1.00  0.00     0.023 A 
BRANCH   5   9
HETATM    9  C   UNL     1      31.093  44.357  56.192  1.00  0.00     0.149 C 
HETATM   10  C   UNL     1      31.431  43.171  57.095  1.00  0.00     0.045 C 
BRANCH   9  11
HETATM   11  O   UNL     1      30.683  45.473  56.992  1.00  0.00    -0.386 OA
HETATM   12  C   UNL     1      30.713  45.215  58.388  1.00  0.00     0.202 C 
ENDBRANCH   9  11
ENDBRANCH   5   9
ENDBRANCH   1   3
BRANCH   1  13
HETATM   13  C   UNL     1      27.647  41.108  52.061  1.00  0.00     0.133 C 
BRANCH  13  14
HETATM   14  C   UNL     1      27.982  40.668  50.652  1.00  0.00    -0.016 A 
HETATM   15  C   UNL     1      28.817  39.579  50.342  1.00  0.00     0.069 A 
HETATM   16  C   UNL     1      29.103  39.160  49.049  1.00  0.00     0.012 A 
HETATM   17  N   UNL     1      29.511  38.719  51.159  1.00  0.00    -0.277 N 
HETATM   18  C   UNL     1      29.993  38.076  49.218  1.00  0.00     0.152 A 
HETATM   19  C   UNL     1      28.514  39.830  47.966  1.00  0.00     0.015 A 
HETATM   20  N   UNL     1      30.252  37.809  50.500  1.00  0.00    -0.186 NA
HETATM   21  C   UNL     1      27.650  40.899  48.231  1.00  0.00     0.002 A 
HETATM   22  C   UNL     1      27.389  41.304  49.542  1.00  0.00     0.011 A 
HETATM   23  H   UNL     1      29.521  38.739  52.175  1.00  0.00     0.189 HD
ENDBRANCH  13  14
ENDBRANCH   1  13
TORSDOF 5
ENDMDL
MODEL 2
REMARK VINA RESULT:      -8.0      3.549      5.007
REMARK  5 active torsions:
REMARK  status: ('A' for Active; 'I' for Inactive)
REMARK    1  A    between atoms: C_2  and  O_3 
REMARK    2  A    between atoms: C_2  and  C_5 
REMARK    3  A    between atoms: C_7  and  N_8 
REMARK    4  A    between atoms: N_8  and  C_9 
REMARK    5  A    between atoms: C_9  and  C_10 
ROOT
HETATM    1  N   UNL     1      26.405  42.898  54.418  1.00  0.00    -0.289 NA
HETATM    2  H   UNL     1      25.899  42.359  53.715  1.00  0.00     0.128 HD
ENDROOT
BRANCH   1   3
HETATM    3  C   UNL     1      27.778  42.858  54.157  1.00  0.00     0.009 A 
HETATM    4  C   UNL     1      28.630  43.486  55.080  1.00  0.00     0.033 A 
HETATM    5  C   UNL     1      30.021  43.550  54.893  1.00  0.00    -0.028 A 
HETATM    6  C   UNL     1      30.556  42.953  53.742  1.00  0.00     0.010 A 
HETATM    7  C   UNL     1      29.729  42.323  52.815  1.00  0.00     0.002 A 
HETATM    8  C   UNL     1      28.348  42.287  53.017  1.00  0.00     0.023 A 
BRANCH   5   9
HETATM    9  C   UNL     1      30.962  44.275  55.842  1.00  0.00     0.149 C 
HETATM   10  C   UNL     1      31.547  43.421  56.968  1.00  0.00     0.045 C 
BRANCH   9  11
HETATM   11  O   UNL     1      30.213  45.363  56.398  1.00  0.00    -0.386 OA
HETATM   12  C   UNL     1      30.381  45.512  57.800  1.00  0.00     0.202 C 
ENDBRANCH   9  11
ENDBRANCH   5   9
ENDBRANCH   1   3
BRANCH   1  13
HETATM   13  C   UNL     1      25.739  44.167  54.702  1.00  0.00     0.133 C 
BRANCH  13  14
HETATM   14  C   UNL     1      25.582  44.963  53.425  1.00  0.00    -0.016 A 
HETATM   15  C   UNL     1      25.144  44.418  52.203  1.00  0.00     0.069 A 
HETATM   16  C   UNL     1      24.974  45.154  51.038  1.00  0.00     0.012 A 
HETATM   17  N   UNL     1      24.800  43.131  51.867  1.00  0.00    -0.277 N 
HETATM   18  C   UNL     1      24.563  44.204  50.076  1.00  0.00     0.152 A 
HETATM   19  C   UNL     1      25.223  46.535  51.058  1.00  0.00     0.015 A 
HETATM   20  N   UNL     1      24.465  42.969  50.573  1.00  0.00    -0.186 NA
HETATM   21  C   UNL     1      25.629  47.124  52.261  1.00  0.00     0.002 A 
HETATM   22  C   UNL     1      25.800  46.356  53.416  1.00  0.00     0.011 A 
HETATM   23  H   UNL     1      24.806  42.329  52.490  1.00  0.00     0.189 HD
ENDBRANCH  13  14
ENDBRANCH   1  13
TORSDOF 5
ENDMDL
MODEL 3
REMARK VINA RESULT:      -8.0      3.867      5.381
REMARK  5 active torsions:
REMARK  status: ('A' for Active; 'I' for Inactive)
REMARK    1  A    between atoms: C_2  and  O_3 
REMARK    2  A    between atoms: C_2  and  C_5 
REMARK    3  A    between atoms: C_7  and  N_8 
REMARK    4  A    between atoms: N_8  and  C_9 
REMARK    5  A    between atoms: C_9  and  C_10 
ROOT
HETATM    1  N   UNL     1      26.833  45.001  53.642  1.00  0.00    -0.289 NA
HETATM    2  H   UNL     1      26.777  45.739  54.344  1.00  0.00     0.128 HD
ENDROOT
BRANCH   1   3
HETATM    3  C   UNL     1      28.028  44.289  53.790  1.00  0.00     0.009 A 
HETATM    4  C   UNL     1      28.852  44.628  54.877  1.00  0.00     0.033 A 
HETATM    5  C   UNL     1      30.097  44.013  55.094  1.00  0.00    -0.028 A 
HETATM    6  C   UNL     1      30.507  43.026  54.187  1.00  0.00     0.010 A 
HETATM    7  C   UNL     1      29.705  42.673  53.104  1.00  0.00     0.002 A 
HETATM    8  C   UNL     1      28.479  43.310  52.902  1.00  0.00     0.023 A 
BRANCH   5   9
HETATM    9  C   UNL     1      31.036  44.401  56.224  1.00  0.00     0.149 C 
HETATM   10  C   UNL     1      31.459  43.259  57.149  1.00  0.00     0.045 C 
BRANCH   9  11
HETATM   11  O   UNL     1      30.360  45.413  56.982  1.00  0.00    -0.386 OA
HETATM   12  C   UNL     1      30.557  45.301  58.383  1.00  0.00     0.202 C 
ENDBRANCH   9  11
ENDBRANCH   5   9
ENDBRANCH   1   3
BRANCH   1  13
HETATM   13  C   UNL     1      25.562  44.297  53.499  1.00  0.00     0.133 C 
BRANCH  13  14
HETATM   14  C   UNL     1      25.067  44.415  52.073  1.00  0.00    -0.016 A 
HETATM   15  C   UNL     1      24.917  45.633  51.387  1.00  0.00     0.069 A 
HETATM   16  C   UNL     1      24.488  45.739  50.070  1.00  0.00     0.012 A 
HETATM   17  N   UNL     1      25.133  46.927  51.796  1.00  0.00    -0.277 N 
HETATM   18  C   UNL     1      24.456  47.129  49.818  1.00  0.00     0.152 A 
HETATM   19  C   UNL     1      24.204  44.570  49.347  1.00  0.00     0.015 A 
HETATM   20  N   UNL     1      24.839  47.857  50.870  1.00  0.00    -0.186 NA
HETATM   21  C   UNL     1      24.371  43.333  49.981  1.00  0.00     0.002 A 
HETATM   22  C   UNL     1      24.796  43.260  51.311  1.00  0.00     0.011 A 
HETATM   23  H   UNL     1      25.460  47.216  52.714  1.00  0.00     0.189 HD
ENDBRANCH  13  14
ENDBRANCH   1  13
TORSDOF 5
ENDMDL
MODEL 4
REMARK VINA RESULT:      -8.0      5.695      7.722
REMARK  5 active torsions:
REMARK  status: ('A' for Active; 'I' for Inactive)
REMARK    1  A    between atoms: C_2  and  O_3 
REMARK    2  A    between atoms: C_2  and  C_5 
REMARK    3  A    between atoms: C_7  and  N_8 
REMARK    4  A    between atoms: N_8  and  C_9 
REMARK    5  A    between atoms: C_9  and  C_10 
ROOT
HETATM    1  N   UNL     1      25.447  47.102  52.478  1.00  0.00    -0.289 NA
HETATM    2  H   UNL     1      24.537  47.043  52.936  1.00  0.00     0.128 HD
ENDROOT
BRANCH   1   3
HETATM    3  C   UNL     1      26.458  46.730  53.369  1.00  0.00     0.009 A 
HETATM    4  C   UNL     1      26.875  45.388  53.349  1.00  0.00     0.033 A 
HETATM    5  C   UNL     1      27.848  44.893  54.234  1.00  0.00    -0.028 A 
HETATM    6  C   UNL     1      28.413  45.787  55.155  1.00  0.00     0.010 A 
HETATM    7  C   UNL     1      28.015  47.121  55.190  1.00  0.00     0.002 A 
HETATM    8  C   UNL     1      27.036  47.585  54.310  1.00  0.00     0.023 A 
BRANCH   5   9
HETATM    9  C   UNL     1      28.275  43.434  54.278  1.00  0.00     0.149 C 
HETATM   10  C   UNL     1      29.784  43.193  54.329  1.00  0.00     0.045 C 
BRANCH   9  11
HETATM   11  O   UNL     1      27.725  42.818  53.107  1.00  0.00    -0.386 OA
HETATM   12  C   UNL     1      28.704  42.249  52.250  1.00  0.00     0.202 C 
ENDBRANCH   9  11
ENDBRANCH   5   9
ENDBRANCH   1   3
BRANCH   1  13
HETATM   13  C   UNL     1      25.405  46.547  51.127  1.00  0.00     0.133 C 
BRANCH  13  14
HETATM   14  C   UNL     1      25.528  47.661  50.110  1.00  0.00    -0.016 A 
HETATM   15  C   UNL     1      24.433  48.317  49.519  1.00  0.00     0.069 A 
HETATM   16  C   UNL     1      24.546  49.357  48.606  1.00  0.00     0.012 A 
HETATM   17  N   UNL     1      23.081  48.122  49.673  1.00  0.00    -0.277 N 
HETATM   18  C   UNL     1      23.213  49.675  48.264  1.00  0.00     0.152 A 
HETATM   19  C   UNL     1      25.823  49.819  48.251  1.00  0.00     0.015 A 
HETATM   20  N   UNL     1      22.317  48.920  48.904  1.00  0.00    -0.186 NA
HETATM   21  C   UNL     1      26.941  49.216  48.840  1.00  0.00     0.002 A 
HETATM   22  C   UNL     1      26.795  48.165  49.749  1.00  0.00     0.011 A 
HETATM   23  H   UNL     1      22.642  47.435  50.279  1.00  0.00     0.189 HD
ENDBRANCH  13  14
ENDBRANCH   1  13
TORSDOF 5
ENDMDL
MODEL 5
REMARK VINA RESULT:      -7.8      5.078      7.864
REMARK  5 active torsions:
REMARK  status: ('A' for Active; 'I' for Inactive)
REMARK    1  A    between atoms: C_2  and  O_3 
REMARK    2  A    between atoms: C_2  and  C_5 
REMARK    3  A    between atoms: C_7  and  N_8 
REMARK    4  A    between atoms: N_8  and  C_9 
REMARK    5  A    between atoms: C_9  and  C_10 
ROOT
HETATM    1  N   UNL     1      26.581  45.477  54.478  1.00  0.00    -0.289 NA
HETATM    2  H   UNL     1      25.871  45.750  55.158  1.00  0.00     0.128 HD
ENDROOT
BRANCH   1   3
HETATM    3  C   UNL     1      26.021  45.417  53.198  1.00  0.00     0.009 A 
HETATM    4  C   UNL     1      26.192  46.536  52.365  1.00  0.00     0.033 A 
HETATM    5  C   UNL     1      25.631  46.605  51.078  1.00  0.00    -0.028 A 
HETATM    6  C   UNL     1      24.885  45.505  50.628  1.00  0.00     0.010 A 
HETATM    7  C   UNL     1      24.706  44.386  51.438  1.00  0.00     0.002 A 
HETATM    8  C   UNL     1      25.261  44.348  52.718  1.00  0.00     0.023 A 
BRANCH   5   9
HETATM    9  C   UNL     1      25.747  47.824  50.179  1.00  0.00     0.149 C 
HETATM   10  C   UNL     1      24.479  48.195  49.408  1.00  0.00     0.045 C 
BRANCH   9  11
HETATM   11  O   UNL     1      26.810  47.547  49.258  1.00  0.00    -0.386 OA
HETATM   12  C   UNL     1      27.654  48.662  49.012  1.00  0.00     0.202 C 
ENDBRANCH   9  11
ENDBRANCH   5   9
ENDBRANCH   1   3
BRANCH   1  13
HETATM   13  C   UNL     1      27.841  46.179  54.706  1.00  0.00     0.133 C 
BRANCH  13  14
HETATM   14  C   UNL     1      28.924  45.187  55.072  1.00  0.00    -0.016 A 
HETATM   15  C   UNL     1      29.644  45.213  56.280  1.00  0.00     0.069 A 
HETATM   16  C   UNL     1      30.619  44.286  56.626  1.00  0.00     0.012 A 
HETATM   17  N   UNL     1      29.582  46.081  57.343  1.00  0.00    -0.277 N 
HETATM   18  C   UNL     1      31.086  44.718  57.888  1.00  0.00     0.152 A 
HETATM   19  C   UNL     1      30.906  43.233  55.744  1.00  0.00     0.015 A 
HETATM   20  N   UNL     1      30.464  45.817  58.325  1.00  0.00    -0.186 NA
HETATM   21  C   UNL     1      30.190  43.151  54.545  1.00  0.00     0.002 A 
HETATM   22  C   UNL     1      29.221  44.103  54.220  1.00  0.00     0.011 A 
HETATM   23  H   UNL     1      28.964  46.883  57.424  1.00  0.00     0.189 HD
ENDBRANCH  13  14
ENDBRANCH   1  13
TORSDOF 5
ENDMDL
MODEL 6
REMARK VINA RESULT:      -7.7      3.196      4.742
REMARK  5 active torsions:
REMARK  status: ('A' for Active; 'I' for Inactive)
REMARK    1  A    between atoms: C_2  and  O_3 
REMARK    2  A    between atoms: C_2  and  C_5 
REMARK    3  A    between atoms: C_7  and  N_8 
REMARK    4  A    between atoms: N_8  and  C_9 
REMARK    5  A    between atoms: C_9  and  C_10 
ROOT
HETATM    1  N   UNL     1      27.298  42.508  53.055  1.00  0.00    -0.289 NA
HETATM    2  H   UNL     1      26.939  41.639  53.452  1.00  0.00     0.128 HD
ENDROOT
BRANCH   1   3
HETATM    3  C   UNL     1      28.297  43.035  53.879  1.00  0.00     0.009 A 
HETATM    4  C   UNL     1      28.024  44.250  54.530  1.00  0.00     0.033 A 
HETATM    5  C   UNL     1      28.973  44.895  55.341  1.00  0.00    -0.028 A 
HETATM    6  C   UNL     1      30.225  44.284  55.498  1.00  0.00     0.010 A 
HETATM    7  C   UNL     1      30.515  43.078  54.864  1.00  0.00     0.002 A 
HETATM    8  C   UNL     1      29.561  42.465  54.050  1.00  0.00     0.023 A 
BRANCH   5   9
HETATM    9  C   UNL     1      28.728  46.239  56.008  1.00  0.00     0.149 C 
HETATM   10  C   UNL     1      28.777  46.233  57.537  1.00  0.00     0.045 C 
BRANCH   9  11
HETATM   11  O   UNL     1      27.438  46.680  55.567  1.00  0.00    -0.386 OA
HETATM   12  C   UNL     1      27.451  47.967  54.969  1.00  0.00     0.202 C 
ENDBRANCH   9  11
ENDBRANCH   5   9
ENDBRANCH   1   3
BRANCH   1  13
HETATM   13  C   UNL     1      27.505  42.393  51.614  1.00  0.00     0.133 C 
BRANCH  13  14
HETATM   14  C   UNL     1      26.743  43.486  50.896  1.00  0.00    -0.016 A 
HETATM   15  C   UNL     1      25.344  43.511  50.754  1.00  0.00     0.069 A 
HETATM   16  C   UNL     1      24.643  44.528  50.119  1.00  0.00     0.012 A 
HETATM   17  N   UNL     1      24.384  42.619  51.166  1.00  0.00    -0.277 N 
HETATM   18  C   UNL     1      23.292  44.121  50.183  1.00  0.00     0.152 A 
HETATM   19  C   UNL     1      25.348  45.625  49.599  1.00  0.00     0.015 A 
HETATM   20  N   UNL     1      23.129  42.954  50.812  1.00  0.00    -0.186 NA
HETATM   21  C   UNL     1      26.740  45.656  49.748  1.00  0.00     0.002 A 
HETATM   22  C   UNL     1      27.418  44.613  50.384  1.00  0.00     0.011 A 
HETATM   23  H   UNL     1      24.551  41.754  51.673  1.00  0.00     0.189 HD
ENDBRANCH  13  14
ENDBRANCH   1  13
TORSDOF 5
ENDMDL
MODEL 7
REMARK VINA RESULT:      -7.7      2.936      7.722
REMARK  5 active torsions:
REMARK  status: ('A' for Active; 'I' for Inactive)
REMARK    1  A    between atoms: C_2  and  O_3 
REMARK    2  A    between atoms: C_2  and  C_5 
REMARK    3  A    between atoms: C_7  and  N_8 
REMARK    4  A    between atoms: N_8  and  C_9 
REMARK    5  A    between atoms: C_9  and  C_10 
ROOT
HETATM    1  N   UNL     1      29.164  42.281  53.988  1.00  0.00    -0.289 NA
HETATM    2  H   UNL     1      28.456  42.690  54.598  1.00  0.00     0.128 HD
ENDROOT
BRANCH   1   3
HETATM    3  C   UNL     1      28.621  42.029  52.724  1.00  0.00     0.009 A 
HETATM    4  C   UNL     1      27.872  43.058  52.127  1.00  0.00     0.033 A 
HETATM    5  C   UNL     1      27.240  42.898  50.882  1.00  0.00    -0.028 A 
HETATM    6  C   UNL     1      27.380  41.665  50.228  1.00  0.00     0.010 A 
HETATM    7  C   UNL     1      28.120  40.633  50.803  1.00  0.00     0.002 A 
HETATM    8  C   UNL     1      28.726  40.812  52.048  1.00  0.00     0.023 A 
BRANCH   5   9
HETATM    9  C   UNL     1      26.374  43.969  50.239  1.00  0.00     0.149 C 
HETATM   10  C   UNL     1      25.345  43.463  49.227  1.00  0.00     0.045 C 
BRANCH   9  11
HETATM   11  O   UNL     1      27.273  44.884  49.599  1.00  0.00    -0.386 OA
HETATM   12  C   UNL     1      26.844  46.236  49.656  1.00  0.00     0.202 C 
ENDBRANCH   9  11
ENDBRANCH   5   9
ENDBRANCH   1   3
BRANCH   1  13
HETATM   13  C   UNL     1      30.449  42.963  54.123  1.00  0.00     0.133 C 
BRANCH  13  14
HETATM   14  C   UNL     1      30.466  43.778  55.398  1.00  0.00    -0.016 A 
HETATM   15  C   UNL     1      29.581  44.837  55.671  1.00  0.00     0.069 A 
HETATM   16  C   UNL     1      29.580  45.568  56.852  1.00  0.00     0.012 A 
HETATM   17  N   UNL     1      28.574  45.383  54.912  1.00  0.00    -0.277 N 
HETATM   18  C   UNL     1      28.564  46.532  56.671  1.00  0.00     0.152 A 
HETATM   19  C   UNL     1      30.492  45.233  57.865  1.00  0.00     0.015 A 
HETATM   20  N   UNL     1      27.954  46.431  55.487  1.00  0.00    -0.186 NA
HETATM   21  C   UNL     1      31.369  44.164  57.648  1.00  0.00     0.002 A 
HETATM   22  C   UNL     1      31.353  43.453  56.445  1.00  0.00     0.011 A 
HETATM   23  H   UNL     1      28.296  45.082  53.982  1.00  0.00     0.189 HD
ENDBRANCH  13  14
ENDBRANCH   1  13
TORSDOF 5
ENDMDL
MODEL 8
REMARK VINA RESULT:      -7.6      5.701      7.621
REMARK  5 active torsions:
REMARK  status: ('A' for Active; 'I' for Inactive)
REMARK    1  A    between atoms: C_2  and  O_3 
REMARK    2  A    between atoms: C_2  and  C_5 
REMARK    3  A    between atoms: C_7  and  N_8 
REMARK    4  A    between atoms: N_8  and  C_9 
REMARK    5  A    between atoms: C_9  and  C_10 
ROOT
HETATM    1  N   UNL     1      24.912  47.174  52.132  1.00  0.00    -0.289 NA
HETATM    2  H   UNL     1      24.062  47.224  52.694  1.00  0.00     0.128 HD
ENDROOT
BRANCH   1   3
HETATM    3  C   UNL     1      25.956  46.634  52.890  1.00  0.00     0.009 A 
HETATM    4  C   UNL     1      26.464  45.385  52.492  1.00  0.00     0.033 A 
HETATM    5  C   UNL     1      27.477  44.726  53.208  1.00  0.00    -0.028 A 
HETATM    6  C   UNL     1      27.990  45.358  54.351  1.00  0.00     0.010 A 
HETATM    7  C   UNL     1      27.502  46.597  54.760  1.00  0.00     0.002 A 
HETATM    8  C   UNL     1      26.484  47.223  54.040  1.00  0.00     0.023 A 
BRANCH   5   9
HETATM    9  C   UNL     1      28.004  43.349  52.838  1.00  0.00     0.149 C 
HETATM   10  C   UNL     1      27.897  42.288  53.935  1.00  0.00     0.045 C 
BRANCH   9  11
HETATM   11  O   UNL     1      29.377  43.528  52.469  1.00  0.00    -0.386 OA
HETATM   12  C   UNL     1      30.273  42.697  53.192  1.00  0.00     0.202 C 
ENDBRANCH   9  11
ENDBRANCH   5   9
ENDBRANCH   1   3
BRANCH   1  13
HETATM   13  C   UNL     1      24.638  46.681  50.785  1.00  0.00     0.133 C 
BRANCH  13  14
HETATM   14  C   UNL     1      24.559  47.842  49.818  1.00  0.00    -0.016 A 
HETATM   15  C   UNL     1      25.673  48.578  49.375  1.00  0.00     0.069 A 
HETATM   16  C   UNL     1      25.603  49.627  48.467  1.00  0.00     0.012 A 
HETATM   17  N   UNL     1      27.005  48.469  49.693  1.00  0.00    -0.277 N 
HETATM   18  C   UNL     1      26.936  50.081  48.347  1.00  0.00     0.152 A 
HETATM   19  C   UNL     1      24.359  49.978  47.921  1.00  0.00     0.015 A 
HETATM   20  N   UNL     1      27.792  49.385  49.099  1.00  0.00    -0.186 NA
HETATM   21  C   UNL     1      23.228  49.250  48.310  1.00  0.00     0.002 A 
HETATM   22  C   UNL     1      23.329  48.206  49.233  1.00  0.00     0.011 A 
HETATM   23  H   UNL     1      27.413  47.793  50.333  1.00  0.00     0.189 HD
ENDBRANCH  13  14
ENDBRANCH   1  13
TORSDOF 5
ENDMDL
MODEL 9
REMARK VINA RESULT:      -7.6      4.477      7.086
REMARK  5 active torsions:
REMARK  status: ('A' for Active; 'I' for Inactive)
REMARK    1  A    between atoms: C_2  and  O_3 
REMARK    2  A    between atoms: C_2  and  C_5 
REMARK    3  A    between atoms: C_7  and  N_8 
REMARK    4  A    between atoms: N_8  and  C_9 
REMARK    5  A    between atoms: C_9  and  C_10 
ROOT
HETATM    1  N   UNL     1      26.071  46.105  53.666  1.00  0.00    -0.289 NA
HETATM    2  H   UNL     1      26.967  46.591  53.699  1.00  0.00     0.128 HD
ENDROOT
BRANCH   1   3
HETATM    3  C   UNL     1      25.610  46.038  52.347  1.00  0.00     0.009 A 
HETATM    4  C   UNL     1      26.014  47.059  51.469  1.00  0.00     0.033 A 
HETATM    5  C   UNL     1      25.572  47.119  50.137  1.00  0.00    -0.028 A 
HETATM    6  C   UNL     1      24.705  46.112  49.687  1.00  0.00     0.010 A 
HETATM    7  C   UNL     1      24.295  45.090  50.541  1.00  0.00     0.002 A 
HETATM    8  C   UNL     1      24.737  45.061  51.865  1.00  0.00     0.023 A 
BRANCH   5   9
HETATM    9  C   UNL     1      25.941  48.242  49.182  1.00  0.00     0.149 C 
HETATM   10  C   UNL     1      27.334  48.842  49.380  1.00  0.00     0.045 C 
BRANCH   9  11
HETATM   11  O   UNL     1      24.947  49.260  49.352  1.00  0.00    -0.386 OA
HETATM   12  C   UNL     1      24.670  49.990  48.166  1.00  0.00     0.202 C 
ENDBRANCH   9  11
ENDBRANCH   5   9
ENDBRANCH   1   3
BRANCH   1  13
HETATM   13  C   UNL     1      26.074  44.916  54.514  1.00  0.00     0.133 C 
BRANCH  13  14
HETATM   14  C   UNL     1      27.454  44.294  54.523  1.00  0.00    -0.016 A 
HETATM   15  C   UNL     1      27.803  43.134  53.808  1.00  0.00     0.069 A 
HETATM   16  C   UNL     1      29.076  42.580  53.795  1.00  0.00     0.012 A 
HETATM   17  N   UNL     1      27.048  42.314  53.005  1.00  0.00    -0.277 N 
HETATM   18  C   UNL     1      28.952  41.426  52.988  1.00  0.00     0.152 A 
HETATM   19  C   UNL     1      30.105  43.210  54.511  1.00  0.00     0.015 A 
HETATM   20  N   UNL     1      27.716  41.255  52.512  1.00  0.00    -0.186 NA
HETATM   21  C   UNL     1      29.809  44.387  55.211  1.00  0.00     0.002 A 
HETATM   22  C   UNL     1      28.516  44.916  55.212  1.00  0.00     0.011 A 
HETATM   23  H   UNL     1      26.062  42.432  52.790  1.00  0.00     0.189 HD
ENDBRANCH  13  14
ENDBRANCH   1  13
TORSDOF 5
ENDMDL
MODEL 10
REMARK VINA RESULT:      -7.5      1.652      2.307
REMARK  5 active torsions:
REMARK  status: ('A' for Active; 'I' for Inactive)
REMARK    1  A    between atoms: C_2  and  O_3 
REMARK    2  A    between atoms: C_2  and  C_5 
REMARK    3  A    between atoms: C_7  and  N_8 
REMARK    4  A    between atoms: N_8  and  C_9 
REMARK    5  A    between atoms: C_9  and  C_10 
ROOT
HETATM    1  N   UNL     1      27.796  41.595  53.263  1.00  0.00    -0.289 NA
HETATM    2  H   UNL     1      27.172  41.012  53.821  1.00  0.00     0.128 HD
ENDROOT
BRANCH   1   3
HETATM    3  C   UNL     1      27.975  42.836  53.882  1.00  0.00     0.009 A 
HETATM    4  C   UNL     1      29.210  43.073  54.510  1.00  0.00     0.033 A 
HETATM    5  C   UNL     1      29.481  44.264  55.204  1.00  0.00    -0.028 A 
HETATM    6  C   UNL     1      28.473  45.239  55.253  1.00  0.00     0.010 A 
HETATM    7  C   UNL     1      27.243  45.025  54.634  1.00  0.00     0.002 A 
HETATM    8  C   UNL     1      26.993  43.826  53.964  1.00  0.00     0.023 A 
BRANCH   5   9
HETATM    9  C   UNL     1      30.783  44.524  55.945  1.00  0.00     0.149 C 
HETATM   10  C   UNL     1      31.384  43.315  56.661  1.00  0.00     0.045 C 
BRANCH   9  11
HETATM   11  O   UNL     1      30.506  45.561  56.894  1.00  0.00    -0.386 OA
HETATM   12  C   UNL     1      30.734  45.175  58.241  1.00  0.00     0.202 C 
ENDBRANCH   9  11
ENDBRANCH   5   9
ENDBRANCH   1   3
BRANCH   1  13
HETATM   13  C   UNL     1      28.944  40.835  52.774  1.00  0.00     0.133 C 
BRANCH  13  14
HETATM   14  C   UNL     1      28.660  40.314  51.382  1.00  0.00    -0.016 A 
HETATM   15  C   UNL     1      28.022  41.059  50.374  1.00  0.00     0.069 A 
HETATM   16  C   UNL     1      27.786  40.590  49.088  1.00  0.00     0.012 A 
HETATM   17  N   UNL     1      27.509  42.333  50.389  1.00  0.00    -0.277 N 
HETATM   18  C   UNL     1      27.104  41.646  48.445  1.00  0.00     0.152 A 
HETATM   19  C   UNL     1      28.223  39.302  48.738  1.00  0.00     0.015 A 
HETATM   20  N   UNL     1      26.924  42.708  49.235  1.00  0.00    -0.186 NA
HETATM   21  C   UNL     1      28.891  38.538  49.702  1.00  0.00     0.002 A 
HETATM   22  C   UNL     1      29.106  39.035  50.991  1.00  0.00     0.011 A 
HETATM   23  H   UNL     1      27.517  42.972  51.179  1.00  0.00     0.189 HD
ENDBRANCH  13  14
ENDBRANCH   1  13
TORSDOF 5
ENDMDL
