MODEL 1
REMARK VINA RESULT:     -11.1      0.000      0.000
REMARK  5 active torsions:
REMARK  status: ('A' for Active; 'I' for Inactive)
REMARK    1  A    between atoms: C_5  and  C_6 
REMARK    2  A    between atoms: C_6  and  O_7 
REMARK    3  A    between atoms: O_7  and  C_8 
REMARK    4  A    between atoms: C_12  and  C_13 
REMARK    5  A    between atoms: C_30  and  O_31 
ROOT
HETATM    1  C   UNL     1      25.456  44.947  51.234  1.00  0.00     0.130 A 
HETATM    2  C   UNL     1      24.575  44.466  50.253  1.00  0.00     0.048 A 
HETATM    3 BR   UNL     1      24.450  42.618  49.832  1.00  0.00    -0.048 Br
HETATM    4  C   UNL     1      23.762  45.351  49.541  1.00  0.00     0.033 A 
HETATM    5  C   UNL     1      23.841  46.734  49.769  1.00  0.00    -0.012 A 
HETATM    6  C   UNL     1      24.747  47.198  50.739  1.00  0.00     0.050 A 
HETATM    7  C   UNL     1      25.573  46.324  51.459  1.00  0.00     0.104 A 
ENDROOT
BRANCH   5   8
HETATM    8  C   UNL     1      22.942  47.717  49.053  1.00  0.00     0.219 C 
HETATM    9  N   UNL     1      23.138  49.044  49.571  1.00  0.00    -0.332 N 
HETATM   10  C   UNL     1      22.268  50.067  49.298  1.00  0.00     0.256 C 
HETATM   11  H   UNL     1      24.084  49.341  49.764  1.00  0.00     0.165 HD
HETATM   12  O   UNL     1      22.594  51.245  49.386  1.00  0.00    -0.267 OA
HETATM   13  C   UNL     1      20.924  49.650  48.938  1.00  0.00     0.073 A 
HETATM   14  C   UNL     1      20.626  48.306  48.918  1.00  0.00     0.088 A 
HETATM   15  C   UNL     1      19.784  50.452  48.615  1.00  0.00    -0.023 A 
HETATM   16  S   UNL     1      18.993  48.003  48.554  1.00  0.00    -0.074 SA
HETATM   17  N   UNL     1      21.541  47.349  49.180  1.00  0.00    -0.358 N 
HETATM   18  C   UNL     1      18.661  49.668  48.420  1.00  0.00     0.018 A 
HETATM   19  C   UNL     1      17.299  50.186  48.110  1.00  0.00     0.281 C 
HETATM   20  N   UNL     1      17.197  51.681  48.394  1.00  0.00    -0.070 N 
HETATM   21  C   UNL     1      18.422  52.433  47.879  1.00  0.00     0.239 C 
HETATM   22  H   UNL     1      16.394  52.019  47.850  1.00  0.00     0.279 HD
HETATM   23  C   UNL     1      16.882  51.978  49.833  1.00  0.00     0.270 C 
HETATM   24  C   UNL     1      19.725  51.949  48.541  1.00  0.00     0.068 C 
HETATM   25  H   UNL     1      21.334  46.387  48.925  1.00  0.00     0.162 HD
ENDBRANCH   5   8
BRANCH   7  26
HETATM   26  O   UNL     1      26.385  46.965  52.352  1.00  0.00    -0.353 OA
HETATM   27  C   UNL     1      25.843  47.284  53.627  1.00  0.00     0.210 C 
ENDBRANCH   7  26
BRANCH   1  28
HETATM   28  O   UNL     1      26.223  44.035  51.964  1.00  0.00    -0.271 OA
BRANCH  28  29
HETATM   29  C   UNL     1      27.520  43.940  51.490  1.00  0.00     0.298 C 
HETATM   30  O   UNL     1      27.886  44.036  50.328  1.00  0.00    -0.259 OA
BRANCH  29  31
HETATM   31  C   UNL     1      28.452  43.764  52.636  1.00  0.00     0.040 A 
HETATM   32  C   UNL     1      28.180  44.462  53.819  1.00  0.00     0.018 A 
HETATM   33  C   UNL     1      29.010  44.313  54.933  1.00  0.00     0.007 A 
HETATM   34  C   UNL     1      30.121  43.464  54.879  1.00  0.00    -0.062 A 
HETATM   35  C   UNL     1      31.029  43.321  56.066  1.00  0.00     0.048 C 
HETATM   36  C   UNL     1      30.408  42.789  53.686  1.00  0.00     0.007 A 
HETATM   37  C   UNL     1      29.577  42.932  52.572  1.00  0.00     0.018 A 
ENDBRANCH  29  31
ENDBRANCH  28  29
ENDBRANCH   1  28
TORSDOF 5
ENDMDL
MODEL 2
REMARK VINA RESULT:     -10.5      1.951      2.772
REMARK  5 active torsions:
REMARK  status: ('A' for Active; 'I' for Inactive)
REMARK    1  A    between atoms: C_5  and  C_6 
REMARK    2  A    between atoms: C_6  and  O_7 
REMARK    3  A    between atoms: O_7  and  C_8 
REMARK    4  A    between atoms: C_12  and  C_13 
REMARK    5  A    between atoms: C_30  and  O_31 
ROOT
HETATM    1  C   UNL     1      26.110  44.949  52.627  1.00  0.00     0.130 A 
HETATM    2  C   UNL     1      25.988  46.346  52.697  1.00  0.00     0.048 A 
HETATM    3 BR   UNL     1      26.763  47.354  54.109  1.00  0.00    -0.048 Br
HETATM    4  C   UNL     1      25.273  47.041  51.719  1.00  0.00     0.033 A 
HETATM    5  C   UNL     1      24.635  46.351  50.676  1.00  0.00    -0.012 A 
HETATM    6  C   UNL     1      24.748  44.950  50.638  1.00  0.00     0.050 A 
HETATM    7  C   UNL     1      25.459  44.237  51.613  1.00  0.00     0.104 A 
ENDROOT
BRANCH   5   8
HETATM    8  C   UNL     1      23.893  47.074  49.574  1.00  0.00     0.219 C 
HETATM    9  N   UNL     1      23.564  48.412  49.987  1.00  0.00    -0.332 N 
HETATM   10  C   UNL     1      22.665  49.185  49.300  1.00  0.00     0.256 C 
HETATM   11  H   UNL     1      24.264  48.936  50.492  1.00  0.00     0.165 HD
HETATM   12  O   UNL     1      22.654  50.407  49.382  1.00  0.00    -0.267 OA
HETATM   13  C   UNL     1      21.702  48.443  48.503  1.00  0.00     0.073 A 
HETATM   14  C   UNL     1      21.749  47.068  48.512  1.00  0.00     0.088 A 
HETATM   15  C   UNL     1      20.632  48.935  47.691  1.00  0.00    -0.023 A 
HETATM   16  S   UNL     1      20.505  46.365  47.590  1.00  0.00    -0.074 SA
HETATM   17  N   UNL     1      22.678  46.370  49.199  1.00  0.00    -0.358 N 
HETATM   18  C   UNL     1      19.885  47.894  47.168  1.00  0.00     0.018 A 
HETATM   19  C   UNL     1      18.675  48.054  46.313  1.00  0.00     0.281 C 
HETATM   20  N   UNL     1      18.134  49.479  46.379  1.00  0.00    -0.070 N 
HETATM   21  C   UNL     1      19.259  50.509  46.291  1.00  0.00     0.239 C 
HETATM   22  H   UNL     1      17.556  49.602  45.539  1.00  0.00     0.279 HD
HETATM   23  C   UNL     1      17.222  49.698  47.552  1.00  0.00     0.270 C 
HETATM   24  C   UNL     1      20.269  50.369  47.445  1.00  0.00     0.068 C 
HETATM   25  H   UNL     1      22.811  45.385  48.986  1.00  0.00     0.162 HD
ENDBRANCH   5   8
BRANCH   7  26
HETATM   26  O   UNL     1      25.451  42.887  51.403  1.00  0.00    -0.353 OA
HETATM   27  C   UNL     1      26.018  42.403  50.194  1.00  0.00     0.210 C 
ENDBRANCH   7  26
BRANCH   1  28
HETATM   28  O   UNL     1      26.872  44.285  53.592  1.00  0.00    -0.271 OA
BRANCH  28  29
HETATM   29  C   UNL     1      28.181  44.088  53.186  1.00  0.00     0.298 C 
HETATM   30  O   UNL     1      28.581  43.951  52.040  1.00  0.00    -0.259 OA
BRANCH  29  31
HETATM   31  C   UNL     1      29.077  44.134  54.372  1.00  0.00     0.040 A 
HETATM   32  C   UNL     1      29.891  43.023  54.626  1.00  0.00     0.018 A 
HETATM   33  C   UNL     1      30.768  43.026  55.713  1.00  0.00     0.007 A 
HETATM   34  C   UNL     1      30.845  44.138  56.559  1.00  0.00    -0.062 A 
HETATM   35  C   UNL     1      31.769  44.134  57.742  1.00  0.00     0.048 C 
HETATM   36  C   UNL     1      30.011  45.237  56.320  1.00  0.00     0.007 A 
HETATM   37  C   UNL     1      29.135  45.240  55.230  1.00  0.00     0.018 A 
ENDBRANCH  29  31
ENDBRANCH  28  29
ENDBRANCH   1  28
TORSDOF 5
ENDMDL
MODEL 3
REMARK VINA RESULT:      -9.7      1.376      2.284
REMARK  5 active torsions:
REMARK  status: ('A' for Active; 'I' for Inactive)
REMARK    1  A    between atoms: C_5  and  C_6 
REMARK    2  A    between atoms: C_6  and  O_7 
REMARK    3  A    between atoms: O_7  and  C_8 
REMARK    4  A    between atoms: C_12  and  C_13 
REMARK    5  A    between atoms: C_30  and  O_31 
ROOT
HETATM    1  C   UNL     1      25.664  45.236  50.573  1.00  0.00     0.130 A 
HETATM    2  C   UNL     1      25.443  46.539  51.044  1.00  0.00     0.048 A 
HETATM    3 BR   UNL     1      26.432  47.265  52.495  1.00  0.00    -0.048 Br
HETATM    4  C   UNL     1      24.467  47.347  50.455  1.00  0.00     0.033 A 
HETATM    5  C   UNL     1      23.669  46.854  49.411  1.00  0.00    -0.012 A 
HETATM    6  C   UNL     1      23.888  45.537  48.970  1.00  0.00     0.050 A 
HETATM    7  C   UNL     1      24.861  44.713  49.552  1.00  0.00     0.104 A 
ENDROOT
BRANCH   5   8
HETATM    8  C   UNL     1      22.636  47.715  48.718  1.00  0.00     0.219 C 
HETATM    9  N   UNL     1      22.894  49.107  48.971  1.00  0.00    -0.332 N 
HETATM   10  C   UNL     1      21.969  50.079  48.697  1.00  0.00     0.256 C 
HETATM   11  H   UNL     1      23.853  49.423  48.941  1.00  0.00     0.165 HD
HETATM   12  O   UNL     1      22.281  51.253  48.534  1.00  0.00    -0.267 OA
HETATM   13  C   UNL     1      20.590  49.621  48.657  1.00  0.00     0.073 A 
HETATM   14  C   UNL     1      20.322  48.295  48.907  1.00  0.00     0.088 A 
HETATM   15  C   UNL     1      19.395  50.371  48.418  1.00  0.00    -0.023 A 
HETATM   16  S   UNL     1      18.657  47.951  48.897  1.00  0.00    -0.074 SA
HETATM   17  N   UNL     1      21.289  47.385  49.152  1.00  0.00    -0.358 N 
HETATM   18  C   UNL     1      18.272  49.575  48.557  1.00  0.00     0.018 A 
HETATM   19  C   UNL     1      16.866  50.047  48.417  1.00  0.00     0.281 C 
HETATM   20  N   UNL     1      16.785  51.570  48.469  1.00  0.00    -0.070 N 
HETATM   21  C   UNL     1      17.883  52.217  47.627  1.00  0.00     0.239 C 
HETATM   22  H   UNL     1      15.891  51.821  48.030  1.00  0.00     0.279 HD
HETATM   23  C   UNL     1      16.727  52.099  49.873  1.00  0.00     0.270 C 
HETATM   24  C   UNL     1      19.293  51.836  48.115  1.00  0.00     0.068 C 
HETATM   25  H   UNL     1      21.059  46.396  49.097  1.00  0.00     0.162 HD
ENDBRANCH   5   8
BRANCH   7  26
HETATM   26  O   UNL     1      24.920  43.470  48.988  1.00  0.00    -0.353 OA
HETATM   27  C   UNL     1      23.759  42.653  49.066  1.00  0.00     0.210 C 
ENDBRANCH   7  26
BRANCH   1  28
HETATM   28  O   UNL     1      26.679  44.468  51.149  1.00  0.00    -0.271 OA
BRANCH  28  29
HETATM   29  C   UNL     1      26.288  43.892  52.346  1.00  0.00     0.298 C 
HETATM   30  O   UNL     1      25.172  43.488  52.637  1.00  0.00    -0.259 OA
BRANCH  29  31
HETATM   31  C   UNL     1      27.470  43.765  53.241  1.00  0.00     0.040 A 
HETATM   32  C   UNL     1      28.427  42.790  52.934  1.00  0.00     0.018 A 
HETATM   33  C   UNL     1      29.567  42.647  53.728  1.00  0.00     0.007 A 
HETATM   34  C   UNL     1      29.766  43.477  54.837  1.00  0.00    -0.062 A 
HETATM   35  C   UNL     1      30.978  43.309  55.707  1.00  0.00     0.048 C 
HETATM   36  C   UNL     1      28.795  44.433  55.159  1.00  0.00     0.007 A 
HETATM   37  C   UNL     1      27.655  44.582  54.364  1.00  0.00     0.018 A 
ENDBRANCH  29  31
ENDBRANCH  28  29
ENDBRANCH   1  28
TORSDOF 5
ENDMDL
MODEL 4
REMARK VINA RESULT:      -9.3      2.283      2.905
REMARK  5 active torsions:
REMARK  status: ('A' for Active; 'I' for Inactive)
REMARK    1  A    between atoms: C_5  and  C_6 
REMARK    2  A    between atoms: C_6  and  O_7 
REMARK    3  A    between atoms: O_7  and  C_8 
REMARK    4  A    between atoms: C_12  and  C_13 
REMARK    5  A    between atoms: C_30  and  O_31 
ROOT
HETATM    1  C   UNL     1      25.601  45.064  50.778  1.00  0.00     0.130 A 
HETATM    2  C   UNL     1      24.906  43.949  50.285  1.00  0.00     0.048 A 
HETATM    3 BR   UNL     1      25.512  42.173  50.582  1.00  0.00    -0.048 Br
HETATM    4  C   UNL     1      23.736  44.120  49.541  1.00  0.00     0.033 A 
HETATM    5  C   UNL     1      23.260  45.408  49.245  1.00  0.00    -0.012 A 
HETATM    6  C   UNL     1      23.985  46.512  49.727  1.00  0.00     0.050 A 
HETATM    7  C   UNL     1      25.163  46.357  50.472  1.00  0.00     0.104 A 
ENDROOT
BRANCH   5   8
HETATM    8  C   UNL     1      21.972  45.630  48.485  1.00  0.00     0.219 C 
HETATM    9  N   UNL     1      22.243  45.818  47.084  1.00  0.00    -0.332 N 
HETATM   10  C   UNL     1      21.300  46.305  46.220  1.00  0.00     0.256 C 
HETATM   11  H   UNL     1      22.936  45.222  46.654  1.00  0.00     0.165 HD
HETATM   12  O   UNL     1      21.359  46.115  45.011  1.00  0.00    -0.267 OA
HETATM   13  C   UNL     1      20.251  47.097  46.839  1.00  0.00     0.073 A 
HETATM   14  C   UNL     1      20.291  47.309  48.198  1.00  0.00     0.088 A 
HETATM   15  C   UNL     1      19.138  47.758  46.230  1.00  0.00    -0.023 A 
HETATM   16  S   UNL     1      19.035  48.319  48.741  1.00  0.00    -0.074 SA
HETATM   17  N   UNL     1      21.244  46.780  48.995  1.00  0.00    -0.358 N 
HETATM   18  C   UNL     1      18.420  48.487  47.161  1.00  0.00     0.018 A 
HETATM   19  C   UNL     1      17.227  49.326  46.857  1.00  0.00     0.281 C 
HETATM   20  N   UNL     1      17.102  49.589  45.359  1.00  0.00    -0.070 N 
HETATM   21  C   UNL     1      17.358  48.322  44.546  1.00  0.00     0.239 C 
HETATM   22  H   UNL     1      16.122  49.850  45.198  1.00  0.00     0.279 HD
HETATM   23  C   UNL     1      17.927  50.760  44.906  1.00  0.00     0.270 C 
HETATM   24  C   UNL     1      18.772  47.757  44.776  1.00  0.00     0.068 C 
HETATM   25  H   UNL     1      21.096  46.772  50.001  1.00  0.00     0.162 HD
ENDBRANCH   5   8
BRANCH   7  26
HETATM   26  O   UNL     1      25.721  47.547  50.847  1.00  0.00    -0.353 OA
HETATM   27  C   UNL     1      26.608  48.177  49.933  1.00  0.00     0.210 C 
ENDBRANCH   7  26
BRANCH   1  28
HETATM   28  O   UNL     1      26.742  44.861  51.559  1.00  0.00    -0.271 OA
BRANCH  28  29
HETATM   29  C   UNL     1      26.451  44.810  52.912  1.00  0.00     0.298 C 
HETATM   30  O   UNL     1      25.365  45.003  53.438  1.00  0.00    -0.259 OA
BRANCH  29  31
HETATM   31  C   UNL     1      27.671  44.409  53.664  1.00  0.00     0.040 A 
HETATM   32  C   UNL     1      28.205  45.317  54.586  1.00  0.00     0.018 A 
HETATM   33  C   UNL     1      29.334  44.980  55.335  1.00  0.00     0.007 A 
HETATM   34  C   UNL     1      29.944  43.730  55.173  1.00  0.00    -0.062 A 
HETATM   35  C   UNL     1      31.172  43.374  55.958  1.00  0.00     0.048 C 
HETATM   36  C   UNL     1      29.425  42.834  54.231  1.00  0.00     0.007 A 
HETATM   37  C   UNL     1      28.292  43.167  53.483  1.00  0.00     0.018 A 
ENDBRANCH  29  31
ENDBRANCH  28  29
ENDBRANCH   1  28
TORSDOF 5
ENDMDL
MODEL 5
REMARK VINA RESULT:      -9.1      3.398     10.942
REMARK  5 active torsions:
REMARK  status: ('A' for Active; 'I' for Inactive)
REMARK    1  A    between atoms: C_5  and  C_6 
REMARK    2  A    between atoms: C_6  and  O_7 
REMARK    3  A    between atoms: O_7  and  C_8 
REMARK    4  A    between atoms: C_12  and  C_13 
REMARK    5  A    between atoms: C_30  and  O_31 
ROOT
HETATM    1  C   UNL     1      20.324  48.630  48.175  1.00  0.00     0.130 A 
HETATM    2  C   UNL     1      21.256  49.550  48.680  1.00  0.00     0.048 A 
HETATM    3 BR   UNL     1      20.877  51.409  48.787  1.00  0.00    -0.048 Br
HETATM    4  C   UNL     1      22.512  49.117  49.113  1.00  0.00     0.033 A 
HETATM    5  C   UNL     1      22.872  47.764  49.015  1.00  0.00    -0.012 A 
HETATM    6  C   UNL     1      21.934  46.861  48.484  1.00  0.00     0.050 A 
HETATM    7  C   UNL     1      20.671  47.280  48.042  1.00  0.00     0.104 A 
ENDROOT
BRANCH   5   8
HETATM    8  C   UNL     1      24.203  47.251  49.518  1.00  0.00     0.219 C 
HETATM    9  N   UNL     1      24.402  45.887  49.107  1.00  0.00    -0.332 N 
HETATM   10  C   UNL     1      25.383  45.100  49.650  1.00  0.00     0.256 C 
HETATM   11  H   UNL     1      24.137  45.634  48.166  1.00  0.00     0.165 HD
HETATM   12  O   UNL     1      25.821  44.111  49.075  1.00  0.00    -0.267 OA
HETATM   13  C   UNL     1      25.832  45.503  50.972  1.00  0.00     0.073 A 
HETATM   14  C   UNL     1      25.247  46.596  51.570  1.00  0.00     0.088 A 
HETATM   15  C   UNL     1      26.816  44.898  51.816  1.00  0.00    -0.023 A 
HETATM   16  S   UNL     1      25.835  46.877  53.140  1.00  0.00    -0.074 SA
HETATM   17  N   UNL     1      24.295  47.339  50.966  1.00  0.00    -0.358 N 
HETATM   18  C   UNL     1      26.883  45.537  53.041  1.00  0.00     0.018 A 
HETATM   19  C   UNL     1      27.772  45.137  54.167  1.00  0.00     0.281 C 
HETATM   20  N   UNL     1      28.330  43.732  53.961  1.00  0.00    -0.070 N 
HETATM   21  C   UNL     1      28.798  43.522  52.523  1.00  0.00     0.239 C 
HETATM   22  H   UNL     1      29.165  43.669  54.555  1.00  0.00     0.279 HD
HETATM   23  C   UNL     1      27.392  42.661  54.441  1.00  0.00     0.270 C 
HETATM   24  C   UNL     1      27.654  43.693  51.506  1.00  0.00     0.068 C 
HETATM   25  H   UNL     1      24.070  48.255  51.347  1.00  0.00     0.162 HD
ENDBRANCH   5   8
BRANCH   7  26
HETATM   26  O   UNL     1      19.905  46.258  47.557  1.00  0.00    -0.353 OA
HETATM   27  C   UNL     1      19.635  45.166  48.426  1.00  0.00     0.210 C 
ENDBRANCH   7  26
BRANCH   1  28
HETATM   28  O   UNL     1      19.059  49.084  47.794  1.00  0.00    -0.271 OA
BRANCH  28  29
HETATM   29  C   UNL     1      18.132  48.982  48.818  1.00  0.00     0.298 C 
HETATM   30  O   UNL     1      18.055  48.094  49.653  1.00  0.00    -0.259 OA
BRANCH  29  31
HETATM   31  C   UNL     1      17.250  50.180  48.806  1.00  0.00     0.040 A 
HETATM   32  C   UNL     1      17.424  51.136  49.814  1.00  0.00     0.018 A 
HETATM   33  C   UNL     1      16.638  52.291  49.834  1.00  0.00     0.007 A 
HETATM   34  C   UNL     1      15.671  52.506  48.846  1.00  0.00    -0.062 A 
HETATM   35  C   UNL     1      14.808  53.734  48.878  1.00  0.00     0.048 C 
HETATM   36  C   UNL     1      15.480  51.536  47.854  1.00  0.00     0.007 A 
HETATM   37  C   UNL     1      16.267  50.382  47.829  1.00  0.00     0.018 A 
ENDBRANCH  29  31
ENDBRANCH  28  29
ENDBRANCH   1  28
TORSDOF 5
ENDMDL
MODEL 6
REMARK VINA RESULT:      -9.0      3.425      4.493
REMARK  5 active torsions:
REMARK  status: ('A' for Active; 'I' for Inactive)
REMARK    1  A    between atoms: C_5  and  C_6 
REMARK    2  A    between atoms: C_6  and  O_7 
REMARK    3  A    between atoms: O_7  and  C_8 
REMARK    4  A    between atoms: C_12  and  C_13 
REMARK    5  A    between atoms: C_30  and  O_31 
ROOT
HETATM    1  C   UNL     1      26.607  43.865  52.342  1.00  0.00     0.130 A 
HETATM    2  C   UNL     1      25.945  45.099  52.448  1.00  0.00     0.048 A 
HETATM    3 BR   UNL     1      26.015  46.145  54.033  1.00  0.00    -0.048 Br
HETATM    4  C   UNL     1      25.196  45.592  51.377  1.00  0.00     0.033 A 
HETATM    5  C   UNL     1      25.064  44.845  50.195  1.00  0.00    -0.012 A 
HETATM    6  C   UNL     1      25.714  43.601  50.118  1.00  0.00     0.050 A 
HETATM    7  C   UNL     1      26.466  43.090  51.185  1.00  0.00     0.104 A 
ENDROOT
BRANCH   5   8
HETATM    8  C   UNL     1      24.302  45.369  48.998  1.00  0.00     0.219 C 
HETATM    9  N   UNL     1      23.237  46.238  49.424  1.00  0.00    -0.332 N 
HETATM   10  C   UNL     1      22.234  46.627  48.577  1.00  0.00     0.256 C 
HETATM   11  H   UNL     1      23.431  46.892  50.169  1.00  0.00     0.165 HD
HETATM   12  O   UNL     1      21.562  47.632  48.775  1.00  0.00    -0.267 OA
HETATM   13  C   UNL     1      21.999  45.735  47.454  1.00  0.00     0.073 A 
HETATM   14  C   UNL     1      22.762  44.596  47.337  1.00  0.00     0.088 A 
HETATM   15  C   UNL     1      21.029  45.836  46.407  1.00  0.00    -0.023 A 
HETATM   16  S   UNL     1      22.303  43.633  46.013  1.00  0.00    -0.074 SA
HETATM   17  N   UNL     1      23.752  44.285  48.201  1.00  0.00    -0.358 N 
HETATM   18  C   UNL     1      21.073  44.729  45.579  1.00  0.00     0.018 A 
HETATM   19  C   UNL     1      20.172  44.493  44.416  1.00  0.00     0.281 C 
HETATM   20  N   UNL     1      18.960  45.419  44.458  1.00  0.00    -0.070 N 
HETATM   21  C   UNL     1      19.360  46.847  44.822  1.00  0.00     0.239 C 
HETATM   22  H   UNL     1      18.594  45.451  43.498  1.00  0.00     0.279 HD
HETATM   23  C   UNL     1      17.848  44.880  45.312  1.00  0.00     0.270 C 
HETATM   24  C   UNL     1      20.024  46.931  46.208  1.00  0.00     0.068 C 
HETATM   25  H   UNL     1      24.427  43.570  47.940  1.00  0.00     0.162 HD
ENDBRANCH   5   8
BRANCH   7  26
HETATM   26  O   UNL     1      27.017  41.868  50.918  1.00  0.00    -0.353 OA
HETATM   27  C   UNL     1      26.138  40.756  50.813  1.00  0.00     0.210 C 
ENDBRANCH   7  26
BRANCH   1  28
HETATM   28  O   UNL     1      27.388  43.420  53.412  1.00  0.00    -0.271 OA
BRANCH  28  29
HETATM   29  C   UNL     1      28.740  43.634  53.201  1.00  0.00     0.298 C 
HETATM   30  O   UNL     1      29.328  43.614  52.131  1.00  0.00    -0.259 OA
BRANCH  29  31
HETATM   31  C   UNL     1      29.392  43.969  54.496  1.00  0.00     0.040 A 
HETATM   32  C   UNL     1      30.344  43.077  55.004  1.00  0.00     0.018 A 
HETATM   33  C   UNL     1      31.004  43.357  56.203  1.00  0.00     0.007 A 
HETATM   34  C   UNL     1      30.722  44.533  56.908  1.00  0.00    -0.062 A 
HETATM   35  C   UNL     1      31.411  44.825  58.209  1.00  0.00     0.048 C 
HETATM   36  C   UNL     1      29.750  45.411  56.413  1.00  0.00     0.007 A 
HETATM   37  C   UNL     1      29.091  45.135  55.211  1.00  0.00     0.018 A 
ENDBRANCH  29  31
ENDBRANCH  28  29
ENDBRANCH   1  28
TORSDOF 5
ENDMDL
MODEL 7
REMARK VINA RESULT:      -8.8      1.886      2.934
REMARK  5 active torsions:
REMARK  status: ('A' for Active; 'I' for Inactive)
REMARK    1  A    between atoms: C_5  and  C_6 
REMARK    2  A    between atoms: C_6  and  O_7 
REMARK    3  A    between atoms: O_7  and  C_8 
REMARK    4  A    between atoms: C_12  and  C_13 
REMARK    5  A    between atoms: C_30  and  O_31 
ROOT
HETATM    1  C   UNL     1      25.899  45.268  50.788  1.00  0.00     0.130 A 
HETATM    2  C   UNL     1      25.562  46.496  51.379  1.00  0.00     0.048 A 
HETATM    3 BR   UNL     1      26.342  47.074  53.012  1.00  0.00    -0.048 Br
HETATM    4  C   UNL     1      24.621  47.334  50.776  1.00  0.00     0.033 A 
HETATM    5  C   UNL     1      23.972  46.944  49.594  1.00  0.00    -0.012 A 
HETATM    6  C   UNL     1      24.305  45.700  49.031  1.00  0.00     0.050 A 
HETATM    7  C   UNL     1      25.244  44.846  49.625  1.00  0.00     0.104 A 
ENDROOT
BRANCH   5   8
HETATM    8  C   UNL     1      22.984  47.846  48.888  1.00  0.00     0.219 C 
HETATM    9  N   UNL     1      23.187  49.216  49.280  1.00  0.00    -0.332 N 
HETATM   10  C   UNL     1      22.268  50.194  49.009  1.00  0.00     0.256 C 
HETATM   11  H   UNL     1      24.138  49.547  49.362  1.00  0.00     0.165 HD
HETATM   12  O   UNL     1      22.566  51.381  48.975  1.00  0.00    -0.267 OA
HETATM   13  C   UNL     1      20.909  49.720  48.808  1.00  0.00     0.073 A 
HETATM   14  C   UNL     1      20.650  48.373  48.920  1.00  0.00     0.088 A 
HETATM   15  C   UNL     1      19.722  50.469  48.530  1.00  0.00    -0.023 A 
HETATM   16  S   UNL     1      19.001  48.005  48.733  1.00  0.00    -0.074 SA
HETATM   17  N   UNL     1      21.612  47.460  49.171  1.00  0.00    -0.358 N 
HETATM   18  C   UNL     1      18.610  49.647  48.500  1.00  0.00     0.018 A 
HETATM   19  C   UNL     1      17.211  50.108  48.277  1.00  0.00     0.281 C 
HETATM   20  N   UNL     1      17.091  51.619  48.451  1.00  0.00    -0.070 N 
HETATM   21  C   UNL     1      18.243  52.354  47.769  1.00  0.00     0.239 C 
HETATM   22  H   UNL     1      16.233  51.894  47.958  1.00  0.00     0.279 HD
HETATM   23  C   UNL     1      16.898  52.024  49.885  1.00  0.00     0.270 C 
HETATM   24  C   UNL     1      19.613  51.953  48.344  1.00  0.00     0.068 C 
HETATM   25  H   UNL     1      21.411  46.476  49.012  1.00  0.00     0.162 HD
ENDBRANCH   5   8
BRANCH   7  26
HETATM   26  O   UNL     1      25.428  43.683  48.930  1.00  0.00    -0.353 OA
HETATM   27  C   UNL     1      24.271  42.954  48.544  1.00  0.00     0.210 C 
ENDBRANCH   7  26
BRANCH   1  28
HETATM   28  O   UNL     1      26.878  44.472  51.387  1.00  0.00    -0.271 OA
BRANCH  28  29
HETATM   29  C   UNL     1      26.334  43.420  52.106  1.00  0.00     0.298 C 
HETATM   30  O   UNL     1      25.306  43.436  52.765  1.00  0.00    -0.259 OA
BRANCH  29  31
HETATM   31  C   UNL     1      27.168  42.204  51.906  1.00  0.00     0.040 A 
HETATM   32  C   UNL     1      26.987  41.469  50.727  1.00  0.00     0.018 A 
HETATM   33  C   UNL     1      27.762  40.333  50.480  1.00  0.00     0.007 A 
HETATM   34  C   UNL     1      28.727  39.918  51.405  1.00  0.00    -0.062 A 
HETATM   35  C   UNL     1      29.543  38.684  51.153  1.00  0.00     0.048 C 
HETATM   36  C   UNL     1      28.886  40.639  52.595  1.00  0.00     0.007 A 
HETATM   37  C   UNL     1      28.116  41.778  52.844  1.00  0.00     0.018 A 
ENDBRANCH  29  31
ENDBRANCH  28  29
ENDBRANCH   1  28
TORSDOF 5
ENDMDL
MODEL 8
REMARK VINA RESULT:      -8.8      4.068      5.017
REMARK  5 active torsions:
REMARK  status: ('A' for Active; 'I' for Inactive)
REMARK    1  A    between atoms: C_5  and  C_6 
REMARK    2  A    between atoms: C_6  and  O_7 
REMARK    3  A    between atoms: O_7  and  C_8 
REMARK    4  A    between atoms: C_12  and  C_13 
REMARK    5  A    between atoms: C_30  and  O_31 
ROOT
HETATM    1  C   UNL     1      26.310  44.304  51.779  1.00  0.00     0.130 A 
HETATM    2  C   UNL     1      25.513  45.376  51.348  1.00  0.00     0.048 A 
HETATM    3 BR   UNL     1      25.897  47.173  51.834  1.00  0.00    -0.048 Br
HETATM    4  C   UNL     1      24.393  45.145  50.546  1.00  0.00     0.033 A 
HETATM    5  C   UNL     1      24.027  43.837  50.192  1.00  0.00    -0.012 A 
HETATM    6  C   UNL     1      24.823  42.775  50.654  1.00  0.00     0.050 A 
HETATM    7  C   UNL     1      25.948  42.989  51.462  1.00  0.00     0.104 A 
ENDROOT
BRANCH   5   8
HETATM    8  C   UNL     1      22.850  43.553  49.286  1.00  0.00     0.219 C 
HETATM    9  N   UNL     1      23.296  43.348  47.934  1.00  0.00    -0.332 N 
HETATM   10  C   UNL     1      22.429  43.346  46.874  1.00  0.00     0.256 C 
HETATM   11  H   UNL     1      24.132  42.798  47.791  1.00  0.00     0.165 HD
HETATM   12  O   UNL     1      22.700  42.807  45.807  1.00  0.00    -0.267 OA
HETATM   13  C   UNL     1      21.187  44.066  47.096  1.00  0.00     0.073 A 
HETATM   14  C   UNL     1      20.987  44.692  48.305  1.00  0.00     0.088 A 
HETATM   15  C   UNL     1      20.088  44.271  46.203  1.00  0.00    -0.023 A 
HETATM   16  S   UNL     1      19.520  45.549  48.365  1.00  0.00    -0.074 SA
HETATM   17  N   UNL     1      21.880  44.635  49.316  1.00  0.00    -0.358 N 
HETATM   18  C   UNL     1      19.132  45.094  46.769  1.00  0.00     0.018 A 
HETATM   19  C   UNL     1      17.881  45.543  46.096  1.00  0.00     0.281 C 
HETATM   20  N   UNL     1      17.944  45.300  44.591  1.00  0.00    -0.070 N 
HETATM   21  C   UNL     1      18.517  43.921  44.271  1.00  0.00     0.239 C 
HETATM   22  H   UNL     1      16.970  45.297  44.263  1.00  0.00     0.279 HD
HETATM   23  C   UNL     1      18.632  46.412  43.853  1.00  0.00     0.270 C 
HETATM   24  C   UNL     1      19.951  43.747  44.804  1.00  0.00     0.068 C 
HETATM   25  H   UNL     1      21.585  44.910  50.250  1.00  0.00     0.162 HD
ENDBRANCH   5   8
BRANCH   7  26
HETATM   26  O   UNL     1      26.588  41.833  51.810  1.00  0.00    -0.353 OA
HETATM   27  C   UNL     1      26.544  40.751  50.890  1.00  0.00     0.210 C 
ENDBRANCH   7  26
BRANCH   1  28
HETATM   28  O   UNL     1      27.451  44.568  52.540  1.00  0.00    -0.271 OA
BRANCH  28  29
HETATM   29  C   UNL     1      27.178  44.625  53.897  1.00  0.00     0.298 C 
HETATM   30  O   UNL     1      26.086  44.788  54.419  1.00  0.00    -0.259 OA
BRANCH  29  31
HETATM   31  C   UNL     1      28.430  44.383  54.662  1.00  0.00     0.040 A 
HETATM   32  C   UNL     1      29.091  43.163  54.475  1.00  0.00     0.018 A 
HETATM   33  C   UNL     1      30.284  42.896  55.151  1.00  0.00     0.007 A 
HETATM   34  C   UNL     1      30.833  43.846  56.021  1.00  0.00    -0.062 A 
HETATM   35  C   UNL     1      32.101  43.553  56.768  1.00  0.00     0.048 C 
HETATM   36  C   UNL     1      30.156  45.055  56.227  1.00  0.00     0.007 A 
HETATM   37  C   UNL     1      28.965  45.326  55.549  1.00  0.00     0.018 A 
ENDBRANCH  29  31
ENDBRANCH  28  29
ENDBRANCH   1  28
TORSDOF 5
ENDMDL
MODEL 9
REMARK VINA RESULT:      -8.7      3.739     11.584
REMARK  5 active torsions:
REMARK  status: ('A' for Active; 'I' for Inactive)
REMARK    1  A    between atoms: C_5  and  C_6 
REMARK    2  A    between atoms: C_6  and  O_7 
REMARK    3  A    between atoms: O_7  and  C_8 
REMARK    4  A    between atoms: C_12  and  C_13 
REMARK    5  A    between atoms: C_30  and  O_31 
ROOT
HETATM    1  C   UNL     1      18.548  49.206  48.965  1.00  0.00     0.130 A 
HETATM    2  C   UNL     1      19.833  49.757  48.837  1.00  0.00     0.048 A 
HETATM    3 BR   UNL     1      20.129  51.633  48.860  1.00  0.00    -0.048 Br
HETATM    4  C   UNL     1      20.944  48.925  48.676  1.00  0.00     0.033 A 
HETATM    5  C   UNL     1      20.788  47.532  48.602  1.00  0.00    -0.012 A 
HETATM    6  C   UNL     1      19.490  47.001  48.707  1.00  0.00     0.050 A 
HETATM    7  C   UNL     1      18.365  47.822  48.865  1.00  0.00     0.104 A 
ENDROOT
BRANCH   5   8
HETATM    8  C   UNL     1      21.972  46.599  48.477  1.00  0.00     0.219 C 
HETATM    9  N   UNL     1      21.614  45.276  48.914  1.00  0.00    -0.332 N 
HETATM   10  C   UNL     1      22.556  44.313  49.163  1.00  0.00     0.256 C 
HETATM   11  H   UNL     1      20.712  44.915  48.637  1.00  0.00     0.165 HD
HETATM   12  O   UNL     1      22.289  43.118  49.152  1.00  0.00    -0.267 OA
HETATM   13  C   UNL     1      23.881  44.819  49.482  1.00  0.00     0.073 A 
HETATM   14  C   UNL     1      24.081  46.180  49.527  1.00  0.00     0.088 A 
HETATM   15  C   UNL     1      25.071  44.094  49.806  1.00  0.00    -0.023 A 
HETATM   16  S   UNL     1      25.663  46.593  49.990  1.00  0.00    -0.074 SA
HETATM   17  N   UNL     1      23.108  47.073  49.250  1.00  0.00    -0.358 N 
HETATM   18  C   UNL     1      26.103  44.954  50.137  1.00  0.00     0.018 A 
HETATM   19  C   UNL     1      27.466  44.530  50.564  1.00  0.00     0.281 C 
HETATM   20  N   UNL     1      27.492  43.055  50.953  1.00  0.00    -0.070 N 
HETATM   21  C   UNL     1      26.718  42.200  49.951  1.00  0.00     0.239 C 
HETATM   22  H   UNL     1      28.474  42.763  50.892  1.00  0.00     0.279 HD
HETATM   23  C   UNL     1      27.073  42.823  52.376  1.00  0.00     0.270 C 
HETATM   24  C   UNL     1      25.235  42.605  49.862  1.00  0.00     0.068 C 
HETATM   25  H   UNL     1      23.364  48.041  49.071  1.00  0.00     0.162 HD
ENDBRANCH   5   8
BRANCH   7  26
HETATM   26  O   UNL     1      17.195  47.120  48.945  1.00  0.00    -0.353 OA
HETATM   27  C   UNL     1      17.089  45.924  48.185  1.00  0.00     0.210 C 
ENDBRANCH   7  26
BRANCH   1  28
HETATM   28  O   UNL     1      17.461  50.059  49.172  1.00  0.00    -0.271 OA
BRANCH  28  29
HETATM   29  C   UNL     1      16.929  50.532  47.984  1.00  0.00     0.298 C 
HETATM   30  O   UNL     1      17.099  50.068  46.867  1.00  0.00    -0.259 OA
BRANCH  29  31
HETATM   31  C   UNL     1      16.035  51.686  48.271  1.00  0.00     0.040 A 
HETATM   32  C   UNL     1      15.872  52.077  49.605  1.00  0.00     0.018 A 
HETATM   33  C   UNL     1      15.062  53.170  49.925  1.00  0.00     0.007 A 
HETATM   34  C   UNL     1      14.408  53.887  48.917  1.00  0.00    -0.062 A 
HETATM   35  C   UNL     1      13.518  55.046  49.260  1.00  0.00     0.048 C 
HETATM   36  C   UNL     1      14.551  53.477  47.585  1.00  0.00     0.007 A 
HETATM   37  C   UNL     1      15.363  52.387  47.261  1.00  0.00     0.018 A 
ENDBRANCH  29  31
ENDBRANCH  28  29
ENDBRANCH   1  28
TORSDOF 5
ENDMDL
MODEL 10
REMARK VINA RESULT:      -8.6      3.451      4.568
REMARK  5 active torsions:
REMARK  status: ('A' for Active; 'I' for Inactive)
REMARK    1  A    between atoms: C_5  and  C_6 
REMARK    2  A    between atoms: C_6  and  O_7 
REMARK    3  A    between atoms: O_7  and  C_8 
REMARK    4  A    between atoms: C_12  and  C_13 
REMARK    5  A    between atoms: C_30  and  O_31 
ROOT
HETATM    1  C   UNL     1      26.600  45.853  54.001  1.00  0.00     0.130 A 
HETATM    2  C   UNL     1      25.912  47.028  53.659  1.00  0.00     0.048 A 
HETATM    3 BR   UNL     1      25.803  48.511  54.842  1.00  0.00    -0.048 Br
HETATM    4  C   UNL     1      25.270  47.135  52.423  1.00  0.00     0.033 A 
HETATM    5  C   UNL     1      25.271  46.058  51.523  1.00  0.00    -0.012 A 
HETATM    6  C   UNL     1      25.945  44.881  51.894  1.00  0.00     0.050 A 
HETATM    7  C   UNL     1      26.591  44.756  53.132  1.00  0.00     0.104 A 
ENDROOT
BRANCH   5   8
HETATM    8  C   UNL     1      24.628  46.154  50.158  1.00  0.00     0.219 C 
HETATM    9  N   UNL     1      23.708  47.260  50.115  1.00  0.00    -0.332 N 
HETATM   10  C   UNL     1      22.797  47.408  49.103  1.00  0.00     0.256 C 
HETATM   11  H   UNL     1      23.988  48.124  50.555  1.00  0.00     0.165 HD
HETATM   12  O   UNL     1      22.291  48.491  48.832  1.00  0.00    -0.267 OA
HETATM   13  C   UNL     1      22.446  46.182  48.407  1.00  0.00     0.073 A 
HETATM   14  C   UNL     1      23.020  44.998  48.814  1.00  0.00     0.088 A 
HETATM   15  C   UNL     1      21.527  45.985  47.329  1.00  0.00    -0.023 A 
HETATM   16  S   UNL     1      22.440  43.657  47.944  1.00  0.00    -0.074 SA
HETATM   17  N   UNL     1      23.929  44.929  49.810  1.00  0.00    -0.358 N 
HETATM   18  C   UNL     1      21.411  44.643  47.011  1.00  0.00     0.018 A 
HETATM   19  C   UNL     1      20.509  44.086  45.965  1.00  0.00     0.281 C 
HETATM   20  N   UNL     1      19.460  45.108  45.537  1.00  0.00    -0.070 N 
HETATM   21  C   UNL     1      20.075  46.492  45.340  1.00  0.00     0.239 C 
HETATM   22  H   UNL     1      19.125  44.801  44.616  1.00  0.00     0.279 HD
HETATM   23  C   UNL     1      18.258  45.118  46.438  1.00  0.00     0.270 C 
HETATM   24  C   UNL     1      20.715  47.035  46.631  1.00  0.00     0.068 C 
HETATM   25  H   UNL     1      24.486  44.084  49.910  1.00  0.00     0.162 HD
ENDBRANCH   5   8
BRANCH   7  26
HETATM   26  O   UNL     1      27.184  43.538  53.308  1.00  0.00    -0.353 OA
HETATM   27  C   UNL     1      27.479  42.773  52.147  1.00  0.00     0.210 C 
ENDBRANCH   7  26
BRANCH   1  28
HETATM   28  O   UNL     1      27.274  45.793  55.224  1.00  0.00    -0.271 OA
BRANCH  28  29
HETATM   29  C   UNL     1      28.549  46.328  55.149  1.00  0.00     0.298 C 
HETATM   30  O   UNL     1      28.860  47.426  54.713  1.00  0.00    -0.259 OA
BRANCH  29  31
HETATM   31  C   UNL     1      29.518  45.376  55.756  1.00  0.00     0.040 A 
HETATM   32  C   UNL     1      29.860  44.231  55.027  1.00  0.00     0.018 A 
HETATM   33  C   UNL     1      30.784  43.318  55.541  1.00  0.00     0.007 A 
HETATM   34  C   UNL     1      31.380  43.539  56.788  1.00  0.00    -0.062 A 
HETATM   35  C   UNL     1      32.355  42.548  57.354  1.00  0.00     0.048 C 
HETATM   36  C   UNL     1      31.017  44.672  57.527  1.00  0.00     0.007 A 
HETATM   37  C   UNL     1      30.096  45.589  57.014  1.00  0.00     0.018 A 
ENDBRANCH  29  31
ENDBRANCH  28  29
ENDBRANCH   1  28
TORSDOF 5
ENDMDL
