MODEL 1
REMARK VINA RESULT:      -8.7      0.000      0.000
REMARK  7 active torsions:
REMARK  status: ('A' for Active; 'I' for Inactive)
REMARK    1  A    between atoms: C_2  and  N_3 
REMARK    2  A    between atoms: C_11  and  C_12 
REMARK    3  A    between atoms: C_14  and  O_15 
REMARK    4  A    between atoms: C_17  and  O_18 
REMARK    5  A    between atoms: O_18  and  C_19 
REMARK    6  A    between atoms: C_19  and  C_20 
REMARK    7  A    between atoms: C_31  and  O_32 
ROOT
HETATM    1  N   UNL     1      17.303  52.687  48.729  1.00  0.00    -0.067 N 
HETATM    2  H   UNL     1      17.289  53.678  48.996  1.00  0.00     0.280 HD
HETATM    3  C   UNL     1      17.936  51.952  49.914  1.00  0.00     0.281 C 
HETATM    4  C   UNL     1      18.417  50.602  49.508  1.00  0.00     0.018 A 
HETATM    5  C   UNL     1      18.626  50.188  48.201  1.00  0.00    -0.024 A 
HETATM    6  C   UNL     1      19.071  48.829  48.160  1.00  0.00     0.057 A 
HETATM    7  C   UNL     1      19.223  48.309  49.420  1.00  0.00     0.087 A 
HETATM    8  N   UNL     1      19.653  47.050  49.629  1.00  0.00    -0.357 N 
HETATM    9  C   UNL     1      20.330  46.388  48.517  1.00  0.00     0.243 C 
HETATM   10  N   UNL     1      19.938  46.808  47.155  1.00  0.00    -0.235 NA
HETATM   11  C   UNL     1      19.375  47.956  47.058  1.00  0.00     0.173 C 
HETATM   12  S   UNL     1      18.803  49.400  50.648  1.00  0.00    -0.074 SA
HETATM   13  C   UNL     1      18.369  51.104  47.041  1.00  0.00     0.068 C 
HETATM   14  C   UNL     1      18.206  52.566  47.500  1.00  0.00     0.240 C 
HETATM   15  H   UNL     1      19.986  46.789  50.553  1.00  0.00     0.162 HD
ENDROOT
BRANCH   9  16
HETATM   16  C   UNL     1      21.841  46.469  48.747  1.00  0.00    -0.012 A 
HETATM   17  C   UNL     1      22.484  47.691  49.029  1.00  0.00     0.050 A 
HETATM   18  C   UNL     1      23.856  47.740  49.286  1.00  0.00     0.102 A 
HETATM   19  C   UNL     1      24.583  46.547  49.318  1.00  0.00     0.112 A 
HETATM   20  C   UNL     1      23.982  45.328  49.005  1.00  0.00     0.041 A 
HETATM   21  C   UNL     1      22.616  45.293  48.722  1.00  0.00     0.014 A 
BRANCH  18  22
HETATM   22  O   UNL     1      24.536  48.894  49.569  1.00  0.00    -0.353 OA
HETATM   23  C   UNL     1      24.811  49.725  48.446  1.00  0.00     0.210 C 
ENDBRANCH  18  22
BRANCH  19  24
HETATM   24  O   UNL     1      25.955  46.620  49.590  1.00  0.00    -0.272 OA
BRANCH  24  25
HETATM   25  C   UNL     1      26.482  45.460  50.117  1.00  0.00     0.300 C 
HETATM   26  O   UNL     1      27.112  44.573  49.565  1.00  0.00    -0.259 OA
BRANCH  25  27
HETATM   27  C   UNL     1      26.159  45.465  51.547  1.00  0.00     0.061 A 
HETATM   28  C   UNL     1      25.622  44.327  52.156  1.00  0.00     0.050 A 
HETATM   29 CL   UNL     1      25.311  42.871  51.285  1.00  0.00    -0.083 Cl
HETATM   30  C   UNL     1      25.324  44.357  53.520  1.00  0.00     0.025 A 
HETATM   31  C   UNL     1      25.566  45.513  54.267  1.00  0.00     0.002 A 
HETATM   32  C   UNL     1      26.111  46.643  53.655  1.00  0.00     0.001 A 
HETATM   33  C   UNL     1      26.412  46.623  52.293  1.00  0.00     0.019 A 
ENDBRANCH  25  27
ENDBRANCH  24  25
ENDBRANCH  19  24
ENDBRANCH   9  16
BRANCH  11  34
HETATM   34  O   UNL     1      19.039  48.397  45.833  1.00  0.00    -0.344 OA
HETATM   35  H   UNL     1      19.644  47.960  45.207  1.00  0.00     0.219 HD
ENDBRANCH  11  34
BRANCH   1  36
HETATM   36  C   UNL     1      15.860  52.274  48.521  1.00  0.00     0.231 C 
HETATM   37  C   UNL     1      15.074  52.364  49.815  1.00  0.00     0.034 C 
ENDBRANCH   1  36
TORSDOF 7
ENDMDL
MODEL 2
REMARK VINA RESULT:      -8.6      3.574      9.178
REMARK  7 active torsions:
REMARK  status: ('A' for Active; 'I' for Inactive)
REMARK    1  A    between atoms: C_2  and  N_3 
REMARK    2  A    between atoms: C_11  and  C_12 
REMARK    3  A    between atoms: C_14  and  O_15 
REMARK    4  A    between atoms: C_17  and  O_18 
REMARK    5  A    between atoms: O_18  and  C_19 
REMARK    6  A    between atoms: C_19  and  C_20 
REMARK    7  A    between atoms: C_31  and  O_32 
ROOT
HETATM    1  N   UNL     1      27.042  45.905  54.773  1.00  0.00    -0.067 N 
HETATM    2  H   UNL     1      27.198  46.434  55.639  1.00  0.00     0.280 HD
HETATM    3  C   UNL     1      26.811  46.960  53.686  1.00  0.00     0.281 C 
HETATM    4  C   UNL     1      26.149  46.359  52.494  1.00  0.00     0.018 A 
HETATM    5  C   UNL     1      25.487  45.141  52.477  1.00  0.00    -0.024 A 
HETATM    6  C   UNL     1      24.984  44.852  51.169  1.00  0.00     0.057 A 
HETATM    7  C   UNL     1      25.241  45.873  50.291  1.00  0.00     0.087 A 
HETATM    8  N   UNL     1      24.842  45.832  49.005  1.00  0.00    -0.357 N 
HETATM    9  C   UNL     1      23.793  44.873  48.668  1.00  0.00     0.243 C 
HETATM   10  N   UNL     1      23.721  43.648  49.494  1.00  0.00    -0.235 NA
HETATM   11  C   UNL     1      24.277  43.712  50.647  1.00  0.00     0.173 C 
HETATM   12  S   UNL     1      26.111  47.151  50.988  1.00  0.00    -0.074 SA
HETATM   13  C   UNL     1      25.383  44.292  53.708  1.00  0.00     0.068 C 
HETATM   14  C   UNL     1      25.770  45.079  54.974  1.00  0.00     0.240 C 
HETATM   15  H   UNL     1      24.829  46.692  48.464  1.00  0.00     0.162 HD
ENDROOT
BRANCH   9  16
HETATM   16  C   UNL     1      22.456  45.615  48.596  1.00  0.00    -0.012 A 
HETATM   17  C   UNL     1      21.232  44.928  48.475  1.00  0.00     0.050 A 
HETATM   18  C   UNL     1      20.018  45.618  48.462  1.00  0.00     0.102 A 
HETATM   19  C   UNL     1      20.025  47.006  48.631  1.00  0.00     0.112 A 
HETATM   20  C   UNL     1      21.221  47.716  48.715  1.00  0.00     0.041 A 
HETATM   21  C   UNL     1      22.431  47.020  48.699  1.00  0.00     0.014 A 
BRANCH  18  22
HETATM   22  O   UNL     1      18.797  45.008  48.350  1.00  0.00    -0.353 OA
HETATM   23  C   UNL     1      18.423  44.645  47.025  1.00  0.00     0.210 C 
ENDBRANCH  18  22
BRANCH  19  24
HETATM   24  O   UNL     1      18.794  47.674  48.628  1.00  0.00    -0.272 OA
BRANCH  24  25
HETATM   25  C   UNL     1      18.612  48.514  49.706  1.00  0.00     0.300 C 
HETATM   26  O   UNL     1      18.639  48.262  50.899  1.00  0.00    -0.259 OA
BRANCH  25  27
HETATM   27  C   UNL     1      18.378  49.854  49.159  1.00  0.00     0.061 A 
HETATM   28  C   UNL     1      19.291  50.885  49.394  1.00  0.00     0.050 A 
HETATM   29 CL   UNL     1      20.727  50.655  50.324  1.00  0.00    -0.083 Cl
HETATM   30  C   UNL     1      19.046  52.152  48.861  1.00  0.00     0.025 A 
HETATM   31  C   UNL     1      17.900  52.382  48.096  1.00  0.00     0.002 A 
HETATM   32  C   UNL     1      16.996  51.346  47.856  1.00  0.00     0.001 A 
HETATM   33  C   UNL     1      17.233  50.077  48.384  1.00  0.00     0.019 A 
ENDBRANCH  25  27
ENDBRANCH  24  25
ENDBRANCH  19  24
ENDBRANCH   9  16
BRANCH  11  34
HETATM   34  O   UNL     1      24.200  42.636  51.450  1.00  0.00    -0.344 OA
HETATM   35  H   UNL     1      23.648  41.983  50.984  1.00  0.00     0.219 HD
ENDBRANCH  11  34
BRANCH   1  36
HETATM   36  C   UNL     1      28.304  45.107  54.518  1.00  0.00     0.231 C 
HETATM   37  C   UNL     1      29.346  45.377  55.586  1.00  0.00     0.034 C 
ENDBRANCH   1  36
TORSDOF 7
ENDMDL
MODEL 3
REMARK VINA RESULT:      -8.5     14.368     16.758
REMARK  7 active torsions:
REMARK  status: ('A' for Active; 'I' for Inactive)
REMARK    1  A    between atoms: C_2  and  N_3 
REMARK    2  A    between atoms: C_11  and  C_12 
REMARK    3  A    between atoms: C_14  and  O_15 
REMARK    4  A    between atoms: C_17  and  O_18 
REMARK    5  A    between atoms: O_18  and  C_19 
REMARK    6  A    between atoms: C_19  and  C_20 
REMARK    7  A    between atoms: C_31  and  O_32 
ROOT
HETATM    1  N   UNL     1      29.412  52.586  41.109  1.00  0.00    -0.067 N 
HETATM    2  H   UNL     1      28.611  53.195  41.313  1.00  0.00     0.280 HD
HETATM    3  C   UNL     1      30.145  52.413  42.442  1.00  0.00     0.281 C 
HETATM    4  C   UNL     1      31.538  51.931  42.226  1.00  0.00     0.018 A 
HETATM    5  C   UNL     1      32.223  51.984  41.021  1.00  0.00    -0.024 A 
HETATM    6  C   UNL     1      33.532  51.421  41.153  1.00  0.00     0.057 A 
HETATM    7  C   UNL     1      33.784  51.025  42.441  1.00  0.00     0.087 A 
HETATM    8  N   UNL     1      34.962  50.484  42.808  1.00  0.00    -0.357 N 
HETATM    9  C   UNL     1      36.095  50.693  41.910  1.00  0.00     0.243 C 
HETATM   10  N   UNL     1      35.784  50.859  40.474  1.00  0.00    -0.235 NA
HETATM   11  C   UNL     1      34.584  51.214  40.194  1.00  0.00     0.173 C 
HETATM   12  S   UNL     1      32.472  51.273  43.486  1.00  0.00    -0.074 SA
HETATM   13  C   UNL     1      31.589  52.551  39.786  1.00  0.00     0.068 C 
HETATM   14  C   UNL     1      30.305  53.335  40.118  1.00  0.00     0.240 C 
HETATM   15  H   UNL     1      35.198  50.437  43.795  1.00  0.00     0.162 HD
ENDROOT
BRANCH   9  16
HETATM   16  C   UNL     1      36.953  51.835  42.463  1.00  0.00    -0.012 A 
HETATM   17  C   UNL     1      36.941  53.119  41.883  1.00  0.00     0.050 A 
HETATM   18  C   UNL     1      37.690  54.162  42.431  1.00  0.00     0.102 A 
HETATM   19  C   UNL     1      38.414  53.934  43.604  1.00  0.00     0.112 A 
HETATM   20  C   UNL     1      38.475  52.665  44.178  1.00  0.00     0.041 A 
HETATM   21  C   UNL     1      37.745  51.622  43.608  1.00  0.00     0.014 A 
BRANCH  18  22
HETATM   22  O   UNL     1      37.718  55.431  41.916  1.00  0.00    -0.353 OA
HETATM   23  C   UNL     1      36.901  55.634  40.767  1.00  0.00     0.210 C 
ENDBRANCH  18  22
BRANCH  19  24
HETATM   24  O   UNL     1      39.148  54.999  44.142  1.00  0.00    -0.272 OA
BRANCH  24  25
HETATM   25  C   UNL     1      38.732  55.386  45.397  1.00  0.00     0.300 C 
HETATM   26  O   UNL     1      37.640  55.787  45.764  1.00  0.00    -0.259 OA
BRANCH  25  27
HETATM   27  C   UNL     1      39.882  55.214  46.292  1.00  0.00     0.061 A 
HETATM   28  C   UNL     1      39.813  54.334  47.374  1.00  0.00     0.050 A 
HETATM   29 CL   UNL     1      38.400  53.407  47.725  1.00  0.00    -0.083 Cl
HETATM   30  C   UNL     1      40.922  54.188  48.210  1.00  0.00     0.025 A 
HETATM   31  C   UNL     1      42.090  54.913  47.960  1.00  0.00     0.002 A 
HETATM   32  C   UNL     1      42.156  55.784  46.871  1.00  0.00     0.001 A 
HETATM   33  C   UNL     1      41.053  55.937  46.031  1.00  0.00     0.019 A 
ENDBRANCH  25  27
ENDBRANCH  24  25
ENDBRANCH  19  24
ENDBRANCH   9  16
BRANCH  11  34
HETATM   34  O   UNL     1      34.267  51.417  38.903  1.00  0.00    -0.344 OA
HETATM   35  H   UNL     1      34.686  52.258  38.645  1.00  0.00     0.219 HD
ENDBRANCH  11  34
BRANCH   1  36
HETATM   36  C   UNL     1      28.843  51.273  40.610  1.00  0.00     0.231 C 
HETATM   37  C   UNL     1      27.983  51.484  39.378  1.00  0.00     0.034 C 
ENDBRANCH   1  36
TORSDOF 7
ENDMDL
MODEL 4
REMARK VINA RESULT:      -8.5      7.858     10.631
REMARK  7 active torsions:
REMARK  status: ('A' for Active; 'I' for Inactive)
REMARK    1  A    between atoms: C_2  and  N_3 
REMARK    2  A    between atoms: C_11  and  C_12 
REMARK    3  A    between atoms: C_14  and  O_15 
REMARK    4  A    between atoms: C_17  and  O_18 
REMARK    5  A    between atoms: O_18  and  C_19 
REMARK    6  A    between atoms: C_19  and  C_20 
REMARK    7  A    between atoms: C_31  and  O_32 
ROOT
HETATM    1  N   UNL     1      27.009  40.283  42.769  1.00  0.00    -0.067 N 
HETATM    2  H   UNL     1      27.099  40.866  41.929  1.00  0.00     0.280 HD
HETATM    3  C   UNL     1      26.074  41.055  43.705  1.00  0.00     0.281 C 
HETATM    4  C   UNL     1      26.197  40.563  45.106  1.00  0.00     0.018 A 
HETATM    5  C   UNL     1      27.247  39.800  45.595  1.00  0.00    -0.024 A 
HETATM    6  C   UNL     1      27.046  39.481  46.975  1.00  0.00     0.057 A 
HETATM    7  C   UNL     1      25.899  40.053  47.465  1.00  0.00     0.087 A 
HETATM    8  N   UNL     1      25.516  39.907  48.747  1.00  0.00    -0.357 N 
HETATM    9  C   UNL     1      26.535  39.468  49.698  1.00  0.00     0.243 C 
HETATM   10  N   UNL     1      27.626  38.626  49.162  1.00  0.00    -0.235 NA
HETATM   11  C   UNL     1      27.820  38.692  47.896  1.00  0.00     0.173 C 
HETATM   12  S   UNL     1      25.037  40.927  46.296  1.00  0.00    -0.074 SA
HETATM   13  C   UNL     1      28.388  39.387  44.715  1.00  0.00     0.068 C 
HETATM   14  C   UNL     1      28.402  40.181  43.395  1.00  0.00     0.240 C 
HETATM   15  H   UNL     1      24.815  40.535  49.128  1.00  0.00     0.162 HD
ENDROOT
BRANCH   9  16
HETATM   16  C   UNL     1      27.055  40.693  50.457  1.00  0.00    -0.012 A 
HETATM   17  C   UNL     1      26.473  41.966  50.298  1.00  0.00     0.050 A 
HETATM   18  C   UNL     1      26.926  43.061  51.036  1.00  0.00     0.102 A 
HETATM   19  C   UNL     1      27.935  42.869  51.984  1.00  0.00     0.112 A 
HETATM   20  C   UNL     1      28.555  41.630  52.137  1.00  0.00     0.041 A 
HETATM   21  C   UNL     1      28.114  40.548  51.374  1.00  0.00     0.014 A 
BRANCH  18  22
HETATM   22  O   UNL     1      26.400  44.321  50.929  1.00  0.00    -0.353 OA
HETATM   23  C   UNL     1      26.928  45.108  49.866  1.00  0.00     0.210 C 
ENDBRANCH  18  22
BRANCH  19  24
HETATM   24  O   UNL     1      28.364  43.980  52.721  1.00  0.00    -0.272 OA
BRANCH  24  25
HETATM   25  C   UNL     1      27.888  44.010  54.015  1.00  0.00     0.300 C 
HETATM   26  O   UNL     1      26.746  43.890  54.425  1.00  0.00    -0.259 OA
BRANCH  25  27
HETATM   27  C   UNL     1      29.053  44.206  54.885  1.00  0.00     0.061 A 
HETATM   28  C   UNL     1      29.295  45.450  55.474  1.00  0.00     0.050 A 
HETATM   29 CL   UNL     1      28.263  46.809  55.225  1.00  0.00    -0.083 Cl
HETATM   30  C   UNL     1      30.410  45.610  56.300  1.00  0.00     0.025 A 
HETATM   31  C   UNL     1      31.270  44.535  56.536  1.00  0.00     0.002 A 
HETATM   32  C   UNL     1      31.017  43.292  55.952  1.00  0.00     0.001 A 
HETATM   33  C   UNL     1      29.906  43.122  55.126  1.00  0.00     0.019 A 
ENDBRANCH  25  27
ENDBRANCH  24  25
ENDBRANCH  19  24
ENDBRANCH   9  16
BRANCH  11  34
HETATM   34  O   UNL     1      28.829  37.975  47.370  1.00  0.00    -0.344 OA
HETATM   35  H   UNL     1      29.648  38.464  47.568  1.00  0.00     0.219 HD
ENDBRANCH  11  34
BRANCH   1  36
HETATM   36  C   UNL     1      26.397  38.971  42.325  1.00  0.00     0.231 C 
HETATM   37  C   UNL     1      27.167  38.374  41.162  1.00  0.00     0.034 C 
ENDBRANCH   1  36
TORSDOF 7
ENDMDL
MODEL 5
REMARK VINA RESULT:      -8.4     13.758     17.355
REMARK  7 active torsions:
REMARK  status: ('A' for Active; 'I' for Inactive)
REMARK    1  A    between atoms: C_2  and  N_3 
REMARK    2  A    between atoms: C_11  and  C_12 
REMARK    3  A    between atoms: C_14  and  O_15 
REMARK    4  A    between atoms: C_17  and  O_18 
REMARK    5  A    between atoms: O_18  and  C_19 
REMARK    6  A    between atoms: C_19  and  C_20 
REMARK    7  A    between atoms: C_31  and  O_32 
ROOT
HETATM    1  N   UNL     1      38.971  55.548  46.381  1.00  0.00    -0.067 N 
HETATM    2  H   UNL     1      38.869  56.329  47.039  1.00  0.00     0.280 HD
HETATM    3  C   UNL     1      38.368  56.043  45.062  1.00  0.00     0.281 C 
HETATM    4  C   UNL     1      38.049  54.902  44.160  1.00  0.00     0.018 A 
HETATM    5  C   UNL     1      37.940  53.577  44.556  1.00  0.00    -0.024 A 
HETATM    6  C   UNL     1      37.642  52.734  43.440  1.00  0.00     0.057 A 
HETATM    7  C   UNL     1      37.492  53.457  42.285  1.00  0.00     0.087 A 
HETATM    8  N   UNL     1      37.188  52.877  41.108  1.00  0.00    -0.357 N 
HETATM    9  C   UNL     1      36.632  51.527  41.160  1.00  0.00     0.243 C 
HETATM   10  N   UNL     1      37.035  50.685  42.307  1.00  0.00    -0.235 NA
HETATM   11  C   UNL     1      37.478  51.308  43.336  1.00  0.00     0.173 C 
HETATM   12  S   UNL     1      37.743  55.120  42.501  1.00  0.00    -0.074 SA
HETATM   13  C   UNL     1      38.148  53.169  45.984  1.00  0.00     0.068 C 
HETATM   14  C   UNL     1      38.138  54.387  46.928  1.00  0.00     0.240 C 
HETATM   15  H   UNL     1      36.845  53.454  40.346  1.00  0.00     0.162 HD
ENDROOT
BRANCH   9  16
HETATM   16  C   UNL     1      35.112  51.618  41.002  1.00  0.00    -0.012 A 
HETATM   17  C   UNL     1      34.233  51.186  42.016  1.00  0.00     0.050 A 
HETATM   18  C   UNL     1      32.850  51.324  41.876  1.00  0.00     0.102 A 
HETATM   19  C   UNL     1      32.343  51.952  40.735  1.00  0.00     0.112 A 
HETATM   20  C   UNL     1      33.185  52.355  39.700  1.00  0.00     0.041 A 
HETATM   21  C   UNL     1      34.564  52.188  39.836  1.00  0.00     0.014 A 
BRANCH  18  22
HETATM   22  O   UNL     1      31.947  50.927  42.825  1.00  0.00    -0.353 OA
HETATM   23  C   UNL     1      31.804  49.517  42.972  1.00  0.00     0.210 C 
ENDBRANCH  18  22
BRANCH  19  24
HETATM   24  O   UNL     1      30.954  52.089  40.624  1.00  0.00    -0.272 OA
BRANCH  24  25
HETATM   25  C   UNL     1      30.433  51.569  39.458  1.00  0.00     0.300 C 
HETATM   26  O   UNL     1      30.196  52.124  38.398  1.00  0.00    -0.259 OA
BRANCH  25  27
HETATM   27  C   UNL     1      30.206  50.141  39.701  1.00  0.00     0.061 A 
HETATM   28  C   UNL     1      29.149  49.719  40.511  1.00  0.00     0.050 A 
HETATM   29 CL   UNL     1      28.061  50.827  41.264  1.00  0.00    -0.083 Cl
HETATM   30  C   UNL     1      28.953  48.353  40.726  1.00  0.00     0.025 A 
HETATM   31  C   UNL     1      29.805  47.420  40.131  1.00  0.00     0.002 A 
HETATM   32  C   UNL     1      30.854  47.847  39.315  1.00  0.00     0.001 A 
HETATM   33  C   UNL     1      31.058  49.210  39.094  1.00  0.00     0.019 A 
ENDBRANCH  25  27
ENDBRANCH  24  25
ENDBRANCH  19  24
ENDBRANCH   9  16
BRANCH  11  34
HETATM   34  O   UNL     1      37.817  50.585  44.418  1.00  0.00    -0.344 OA
HETATM   35  H   UNL     1      38.639  50.115  44.190  1.00  0.00     0.219 HD
ENDBRANCH  11  34
BRANCH   1  36
HETATM   36  C   UNL     1      40.456  55.280  46.250  1.00  0.00     0.231 C 
HETATM   37  C   UNL     1      41.033  54.758  47.553  1.00  0.00     0.034 C 
ENDBRANCH   1  36
TORSDOF 7
ENDMDL
MODEL 6
REMARK VINA RESULT:      -8.3      3.633      9.192
REMARK  7 active torsions:
REMARK  status: ('A' for Active; 'I' for Inactive)
REMARK    1  A    between atoms: C_2  and  N_3 
REMARK    2  A    between atoms: C_11  and  C_12 
REMARK    3  A    between atoms: C_14  and  O_15 
REMARK    4  A    between atoms: C_17  and  O_18 
REMARK    5  A    between atoms: O_18  and  C_19 
REMARK    6  A    between atoms: C_19  and  C_20 
REMARK    7  A    between atoms: C_31  and  O_32 
ROOT
HETATM    1  N   UNL     1      26.843  45.454  54.697  1.00  0.00    -0.067 N 
HETATM    2  H   UNL     1      27.065  45.895  55.597  1.00  0.00     0.280 HD
HETATM    3  C   UNL     1      26.745  46.605  53.690  1.00  0.00     0.281 C 
HETATM    4  C   UNL     1      26.012  46.180  52.465  1.00  0.00     0.018 A 
HETATM    5  C   UNL     1      25.203  45.058  52.367  1.00  0.00    -0.024 A 
HETATM    6  C   UNL     1      24.666  44.929  51.047  1.00  0.00     0.057 A 
HETATM    7  C   UNL     1      25.048  45.972  50.242  1.00  0.00     0.087 A 
HETATM    8  N   UNL     1      24.646  46.074  48.961  1.00  0.00    -0.357 N 
HETATM    9  C   UNL     1      23.485  45.280  48.566  1.00  0.00     0.243 C 
HETATM   10  N   UNL     1      23.261  44.017  49.303  1.00  0.00    -0.235 NA
HETATM   11  C   UNL     1      23.822  43.927  50.452  1.00  0.00     0.173 C 
HETATM   12  S   UNL     1      26.072  47.077  51.021  1.00  0.00    -0.074 SA
HETATM   13  C   UNL     1      24.995  44.141  53.535  1.00  0.00     0.068 C 
HETATM   14  C   UNL     1      25.478  44.780  54.850  1.00  0.00     0.240 C 
HETATM   15  H   UNL     1      24.740  46.965  48.484  1.00  0.00     0.162 HD
ENDROOT
BRANCH   9  16
HETATM   16  C   UNL     1      22.251  46.186  48.562  1.00  0.00    -0.012 A 
HETATM   17  C   UNL     1      22.362  47.590  48.519  1.00  0.00     0.050 A 
HETATM   18  C   UNL     1      21.226  48.400  48.464  1.00  0.00     0.102 A 
HETATM   19  C   UNL     1      19.967  47.798  48.393  1.00  0.00     0.112 A 
HETATM   20  C   UNL     1      19.824  46.414  48.471  1.00  0.00     0.041 A 
HETATM   21  C   UNL     1      20.964  45.613  48.554  1.00  0.00     0.014 A 
BRANCH  18  22
HETATM   22  O   UNL     1      21.269  49.768  48.419  1.00  0.00    -0.353 OA
HETATM   23  C   UNL     1      21.806  50.395  49.578  1.00  0.00     0.210 C 
ENDBRANCH  18  22
BRANCH  19  24
HETATM   24  O   UNL     1      18.843  48.631  48.326  1.00  0.00    -0.272 OA
BRANCH  24  25
HETATM   25  C   UNL     1      18.321  48.965  49.558  1.00  0.00     0.300 C 
HETATM   26  O   UNL     1      18.396  48.370  50.620  1.00  0.00    -0.259 OA
BRANCH  25  27
HETATM   27  C   UNL     1      17.624  50.244  49.385  1.00  0.00     0.061 A 
HETATM   28  C   UNL     1      16.388  50.296  48.737  1.00  0.00     0.050 A 
HETATM   29 CL   UNL     1      15.612  48.888  48.110  1.00  0.00    -0.083 Cl
HETATM   30  C   UNL     1      15.744  51.526  48.587  1.00  0.00     0.025 A 
HETATM   31  C   UNL     1      16.332  52.691  49.086  1.00  0.00     0.002 A 
HETATM   32  C   UNL     1      17.563  52.632  49.741  1.00  0.00     0.001 A 
HETATM   33  C   UNL     1      18.214  51.407  49.896  1.00  0.00     0.019 A 
ENDBRANCH  25  27
ENDBRANCH  24  25
ENDBRANCH  19  24
ENDBRANCH   9  16
BRANCH  11  34
HETATM   34  O   UNL     1      23.612  42.814  51.176  1.00  0.00    -0.344 OA
HETATM   35  H   UNL     1      22.647  42.684  51.210  1.00  0.00     0.219 HD
ENDBRANCH  11  34
BRANCH   1  36
HETATM   36  C   UNL     1      27.995  44.525  54.372  1.00  0.00     0.231 C 
HETATM   37  C   UNL     1      29.222  44.869  55.196  1.00  0.00     0.034 C 
ENDBRANCH   1  36
TORSDOF 7
ENDMDL
MODEL 7
REMARK VINA RESULT:      -8.2     13.819     17.468
REMARK  7 active torsions:
REMARK  status: ('A' for Active; 'I' for Inactive)
REMARK    1  A    between atoms: C_2  and  N_3 
REMARK    2  A    between atoms: C_11  and  C_12 
REMARK    3  A    between atoms: C_14  and  O_15 
REMARK    4  A    between atoms: C_17  and  O_18 
REMARK    5  A    between atoms: O_18  and  C_19 
REMARK    6  A    between atoms: C_19  and  C_20 
REMARK    7  A    between atoms: C_31  and  O_32 
ROOT
HETATM    1  N   UNL     1      39.087  55.926  46.379  1.00  0.00    -0.067 N 
HETATM    2  H   UNL     1      38.866  56.734  46.972  1.00  0.00     0.280 HD
HETATM    3  C   UNL     1      38.228  56.093  45.121  1.00  0.00     0.281 C 
HETATM    4  C   UNL     1      38.108  54.806  44.383  1.00  0.00     0.018 A 
HETATM    5  C   UNL     1      38.390  53.554  44.909  1.00  0.00    -0.024 A 
HETATM    6  C   UNL     1      38.189  52.531  43.928  1.00  0.00     0.057 A 
HETATM    7  C   UNL     1      37.725  53.048  42.746  1.00  0.00     0.087 A 
HETATM    8  N   UNL     1      37.444  52.270  41.683  1.00  0.00    -0.357 N 
HETATM    9  C   UNL     1      37.263  50.843  41.937  1.00  0.00     0.243 C 
HETATM   10  N   UNL     1      38.000  50.272  43.086  1.00  0.00    -0.235 NA
HETATM   11  C   UNL     1      38.385  51.107  43.979  1.00  0.00     0.173 C 
HETATM   12  S   UNL     1      37.565  54.736  42.772  1.00  0.00    -0.074 SA
HETATM   13  C   UNL     1      38.861  53.389  46.323  1.00  0.00     0.068 C 
HETATM   14  C   UNL     1      38.650  54.675  47.143  1.00  0.00     0.240 C 
HETATM   15  H   UNL     1      36.878  52.648  40.930  1.00  0.00     0.162 HD
ENDROOT
BRANCH   9  16
HETATM   16  C   UNL     1      35.762  50.543  41.993  1.00  0.00    -0.012 A 
HETATM   17  C   UNL     1      34.855  51.414  42.629  1.00  0.00     0.050 A 
HETATM   18  C   UNL     1      33.483  51.151  42.626  1.00  0.00     0.102 A 
HETATM   19  C   UNL     1      33.009  50.035  41.930  1.00  0.00     0.112 A 
HETATM   20  C   UNL     1      33.884  49.137  41.324  1.00  0.00     0.041 A 
HETATM   21  C   UNL     1      35.256  49.393  41.356  1.00  0.00     0.014 A 
BRANCH  18  22
HETATM   22  O   UNL     1      32.553  51.959  43.223  1.00  0.00    -0.353 OA
HETATM   23  C   UNL     1      32.536  51.912  44.646  1.00  0.00     0.210 C 
ENDBRANCH  18  22
BRANCH  19  24
HETATM   24  O   UNL     1      31.628  49.800  41.931  1.00  0.00    -0.272 OA
BRANCH  24  25
HETATM   25  C   UNL     1      31.047  49.882  40.684  1.00  0.00     0.300 C 
HETATM   26  O   UNL     1      31.166  49.144  39.721  1.00  0.00    -0.259 OA
BRANCH  25  27
HETATM   27  C   UNL     1      30.189  51.072  40.699  1.00  0.00     0.061 A 
HETATM   28  C   UNL     1      30.647  52.282  40.171  1.00  0.00     0.050 A 
HETATM   29 CL   UNL     1      32.218  52.454  39.478  1.00  0.00    -0.083 Cl
HETATM   30  C   UNL     1      29.811  53.401  40.196  1.00  0.00     0.025 A 
HETATM   31  C   UNL     1      28.528  53.305  40.741  1.00  0.00     0.002 A 
HETATM   32  C   UNL     1      28.073  52.091  41.259  1.00  0.00     0.001 A 
HETATM   33  C   UNL     1      28.901  50.969  41.238  1.00  0.00     0.019 A 
ENDBRANCH  25  27
ENDBRANCH  24  25
ENDBRANCH  19  24
ENDBRANCH   9  16
BRANCH  11  34
HETATM   34  O   UNL     1      39.023  50.628  45.062  1.00  0.00    -0.344 OA
HETATM   35  H   UNL     1      39.208  49.689  44.881  1.00  0.00     0.219 HD
ENDBRANCH  11  34
BRANCH   1  36
HETATM   36  C   UNL     1      40.565  56.012  46.060  1.00  0.00     0.231 C 
HETATM   37  C   UNL     1      40.845  57.115  45.057  1.00  0.00     0.034 C 
ENDBRANCH   1  36
TORSDOF 7
ENDMDL
MODEL 8
REMARK VINA RESULT:      -8.2     21.440     23.952
REMARK  7 active torsions:
REMARK  status: ('A' for Active; 'I' for Inactive)
REMARK    1  A    between atoms: C_2  and  N_3 
REMARK    2  A    between atoms: C_11  and  C_12 
REMARK    3  A    between atoms: C_14  and  O_15 
REMARK    4  A    between atoms: C_17  and  O_18 
REMARK    5  A    between atoms: O_18  and  C_19 
REMARK    6  A    between atoms: C_19  and  C_20 
REMARK    7  A    between atoms: C_31  and  O_32 
ROOT
HETATM    1  N   UNL     1      38.989  50.529  67.189  1.00  0.00    -0.067 N 
HETATM    2  H   UNL     1      39.738  51.068  67.641  1.00  0.00     0.280 HD
HETATM    3  C   UNL     1      38.930  49.197  67.944  1.00  0.00     0.281 C 
HETATM    4  C   UNL     1      38.214  48.164  67.145  1.00  0.00     0.018 A 
HETATM    5  C   UNL     1      37.963  48.239  65.783  1.00  0.00    -0.024 A 
HETATM    6  C   UNL     1      37.238  47.091  65.334  1.00  0.00     0.057 A 
HETATM    7  C   UNL     1      37.027  46.196  66.351  1.00  0.00     0.087 A 
HETATM    8  N   UNL     1      36.382  45.029  66.159  1.00  0.00    -0.357 N 
HETATM    9  C   UNL     1      36.266  44.556  64.782  1.00  0.00     0.243 C 
HETATM   10  N   UNL     1      36.238  45.589  63.723  1.00  0.00    -0.235 NA
HETATM   11  C   UNL     1      36.718  46.735  64.040  1.00  0.00     0.173 C 
HETATM   12  S   UNL     1      37.640  46.722  67.842  1.00  0.00    -0.074 SA
HETATM   13  C   UNL     1      38.407  49.419  64.971  1.00  0.00     0.068 C 
HETATM   14  C   UNL     1      39.420  50.287  65.741  1.00  0.00     0.240 C 
HETATM   15  H   UNL     1      36.463  44.298  66.859  1.00  0.00     0.162 HD
ENDROOT
BRANCH   9  16
HETATM   16  C   UNL     1      37.340  43.493  64.538  1.00  0.00    -0.012 A 
HETATM   17  C   UNL     1      38.596  43.819  63.989  1.00  0.00     0.050 A 
HETATM   18  C   UNL     1      39.583  42.845  63.820  1.00  0.00     0.102 A 
HETATM   19  C   UNL     1      39.332  41.542  64.259  1.00  0.00     0.112 A 
HETATM   20  C   UNL     1      38.087  41.182  64.771  1.00  0.00     0.041 A 
HETATM   21  C   UNL     1      37.097  42.156  64.909  1.00  0.00     0.014 A 
BRANCH  18  22
HETATM   22  O   UNL     1      40.822  43.101  63.296  1.00  0.00    -0.353 OA
HETATM   23  C   UNL     1      41.500  44.217  63.863  1.00  0.00     0.210 C 
ENDBRANCH  18  22
BRANCH  19  24
HETATM   24  O   UNL     1      40.341  40.586  64.091  1.00  0.00    -0.272 OA
BRANCH  24  25
HETATM   25  C   UNL     1      41.102  40.374  65.220  1.00  0.00     0.300 C 
HETATM   26  O   UNL     1      41.623  41.183  65.970  1.00  0.00    -0.259 OA
BRANCH  25  27
HETATM   27  C   UNL     1      41.184  38.921  65.404  1.00  0.00     0.061 A 
HETATM   28  C   UNL     1      42.390  38.247  65.198  1.00  0.00     0.050 A 
HETATM   29 CL   UNL     1      43.836  39.062  64.726  1.00  0.00    -0.083 Cl
HETATM   30  C   UNL     1      42.442  36.864  65.381  1.00  0.00     0.025 A 
HETATM   31  C   UNL     1      41.297  36.164  65.770  1.00  0.00     0.002 A 
HETATM   32  C   UNL     1      40.096  36.844  65.984  1.00  0.00     0.001 A 
HETATM   33  C   UNL     1      40.035  38.226  65.803  1.00  0.00     0.019 A 
ENDBRANCH  25  27
ENDBRANCH  24  25
ENDBRANCH  19  24
ENDBRANCH   9  16
BRANCH  11  34
HETATM   34  O   UNL     1      36.751  47.692  63.097  1.00  0.00    -0.344 OA
HETATM   35  H   UNL     1      35.940  48.220  63.211  1.00  0.00     0.219 HD
ENDBRANCH  11  34
BRANCH   1  36
HETATM   36  C   UNL     1      37.713  51.328  67.365  1.00  0.00     0.231 C 
HETATM   37  C   UNL     1      37.734  52.584  66.515  1.00  0.00     0.034 C 
ENDBRANCH   1  36
TORSDOF 7
ENDMDL
MODEL 9
REMARK VINA RESULT:      -8.2      7.182      8.984
REMARK  7 active torsions:
REMARK  status: ('A' for Active; 'I' for Inactive)
REMARK    1  A    between atoms: C_2  and  N_3 
REMARK    2  A    between atoms: C_11  and  C_12 
REMARK    3  A    between atoms: C_14  and  O_15 
REMARK    4  A    between atoms: C_17  and  O_18 
REMARK    5  A    between atoms: O_18  and  C_19 
REMARK    6  A    between atoms: C_19  and  C_20 
REMARK    7  A    between atoms: C_31  and  O_32 
ROOT
HETATM    1  N   UNL     1      22.914  42.153  43.987  1.00  0.00    -0.067 N 
HETATM    2  H   UNL     1      22.332  42.869  43.536  1.00  0.00     0.280 HD
HETATM    3  C   UNL     1      22.549  42.208  45.474  1.00  0.00     0.281 C 
HETATM    4  C   UNL     1      23.599  41.555  46.305  1.00  0.00     0.018 A 
HETATM    5  C   UNL     1      24.889  41.272  45.883  1.00  0.00    -0.024 A 
HETATM    6  C   UNL     1      25.634  40.626  46.919  1.00  0.00     0.057 A 
HETATM    7  C   UNL     1      24.898  40.501  48.070  1.00  0.00     0.087 A 
HETATM    8  N   UNL     1      25.401  39.942  49.187  1.00  0.00    -0.357 N 
HETATM    9  C   UNL     1      26.855  39.833  49.277  1.00  0.00     0.243 C 
HETATM   10  N   UNL     1      27.593  39.708  48.001  1.00  0.00    -0.235 NA
HETATM   11  C   UNL     1      26.976  40.108  46.951  1.00  0.00     0.173 C 
HETATM   12  S   UNL     1      23.320  41.103  47.921  1.00  0.00    -0.074 SA
HETATM   13  C   UNL     1      25.350  41.611  44.497  1.00  0.00     0.068 C 
HETATM   14  C   UNL     1      24.373  42.572  43.795  1.00  0.00     0.240 C 
HETATM   15  H   UNL     1      24.925  40.091  50.071  1.00  0.00     0.162 HD
ENDROOT
BRANCH   9  16
HETATM   16  C   UNL     1      27.377  40.979  50.149  1.00  0.00    -0.012 A 
HETATM   17  C   UNL     1      26.943  42.307  49.967  1.00  0.00     0.050 A 
HETATM   18  C   UNL     1      27.391  43.331  50.804  1.00  0.00     0.102 A 
HETATM   19  C   UNL     1      28.237  43.014  51.870  1.00  0.00     0.112 A 
HETATM   20  C   UNL     1      28.711  41.716  52.053  1.00  0.00     0.041 A 
HETATM   21  C   UNL     1      28.280  40.704  51.194  1.00  0.00     0.014 A 
BRANCH  18  22
HETATM   22  O   UNL     1      27.005  44.639  50.679  1.00  0.00    -0.353 OA
HETATM   23  C   UNL     1      26.177  44.920  49.555  1.00  0.00     0.210 C 
ENDBRANCH  18  22
BRANCH  19  24
HETATM   24  O   UNL     1      28.662  44.056  52.704  1.00  0.00    -0.272 OA
BRANCH  24  25
HETATM   25  C   UNL     1      28.074  44.049  53.951  1.00  0.00     0.300 C 
HETATM   26  O   UNL     1      26.899  43.930  54.254  1.00  0.00    -0.259 OA
BRANCH  25  27
HETATM   27  C   UNL     1      29.158  44.204  54.926  1.00  0.00     0.061 A 
HETATM   28  C   UNL     1      29.296  45.391  55.650  1.00  0.00     0.050 A 
HETATM   29 CL   UNL     1      28.222  46.727  55.451  1.00  0.00    -0.083 Cl
HETATM   30  C   UNL     1      30.337  45.513  56.574  1.00  0.00     0.025 A 
HETATM   31  C   UNL     1      31.226  44.454  56.774  1.00  0.00     0.002 A 
HETATM   32  C   UNL     1      31.077  43.266  56.054  1.00  0.00     0.001 A 
HETATM   33  C   UNL     1      30.041  43.136  55.129  1.00  0.00     0.019 A 
ENDBRANCH  25  27
ENDBRANCH  24  25
ENDBRANCH  19  24
ENDBRANCH   9  16
BRANCH  11  34
HETATM   34  O   UNL     1      27.625  40.051  45.774  1.00  0.00    -0.344 OA
HETATM   35  H   UNL     1      27.078  39.502  45.184  1.00  0.00     0.219 HD
ENDBRANCH  11  34
BRANCH   1  36
HETATM   36  C   UNL     1      22.529  40.826  43.367  1.00  0.00     0.231 C 
HETATM   37  C   UNL     1      21.120  40.427  43.760  1.00  0.00     0.034 C 
ENDBRANCH   1  36
TORSDOF 7
ENDMDL
MODEL 10
REMARK VINA RESULT:      -8.0     13.719     16.051
REMARK  7 active torsions:
REMARK  status: ('A' for Active; 'I' for Inactive)
REMARK    1  A    between atoms: C_2  and  N_3 
REMARK    2  A    between atoms: C_11  and  C_12 
REMARK    3  A    between atoms: C_14  and  O_15 
REMARK    4  A    between atoms: C_17  and  O_18 
REMARK    5  A    between atoms: O_18  and  C_19 
REMARK    6  A    between atoms: C_19  and  C_20 
REMARK    7  A    between atoms: C_31  and  O_32 
ROOT
HETATM    1  N   UNL     1      28.480  51.810  40.711  1.00  0.00    -0.067 N 
HETATM    2  H   UNL     1      27.593  52.068  41.161  1.00  0.00     0.280 HD
HETATM    3  C   UNL     1      29.161  50.836  41.677  1.00  0.00     0.281 C 
HETATM    4  C   UNL     1      30.616  50.721  41.379  1.00  0.00     0.018 A 
HETATM    5  C   UNL     1      31.348  51.616  40.613  1.00  0.00    -0.024 A 
HETATM    6  C   UNL     1      32.713  51.201  40.508  1.00  0.00     0.057 A 
HETATM    7  C   UNL     1      32.952  50.060  41.230  1.00  0.00     0.087 A 
HETATM    8  N   UNL     1      34.172  49.495  41.296  1.00  0.00    -0.357 N 
HETATM    9  C   UNL     1      35.310  50.329  40.918  1.00  0.00     0.243 C 
HETATM   10  N   UNL     1      35.052  51.396  39.926  1.00  0.00    -0.235 NA
HETATM   11  C   UNL     1      33.831  51.764  39.798  1.00  0.00     0.173 C 
HETATM   12  S   UNL     1      31.566  49.452  41.996  1.00  0.00    -0.074 SA
HETATM   13  C   UNL     1      30.705  52.821  39.993  1.00  0.00     0.068 C 
HETATM   14  C   UNL     1      29.311  53.089  40.590  1.00  0.00     0.240 C 
HETATM   15  H   UNL     1      34.362  48.813  42.024  1.00  0.00     0.162 HD
ENDROOT
BRANCH   9  16
HETATM   16  C   UNL     1      35.974  50.858  42.193  1.00  0.00    -0.012 A 
HETATM   17  C   UNL     1      37.302  50.528  42.529  1.00  0.00     0.050 A 
HETATM   18  C   UNL     1      37.908  51.060  43.669  1.00  0.00     0.102 A 
HETATM   19  C   UNL     1      37.198  51.976  44.450  1.00  0.00     0.112 A 
HETATM   20  C   UNL     1      35.871  52.291  44.164  1.00  0.00     0.041 A 
HETATM   21  C   UNL     1      35.264  51.733  43.038  1.00  0.00     0.014 A 
BRANCH  18  22
HETATM   22  O   UNL     1      39.195  50.781  44.046  1.00  0.00    -0.353 OA
HETATM   23  C   UNL     1      39.485  49.399  44.227  1.00  0.00     0.210 C 
ENDBRANCH  18  22
BRANCH  19  24
HETATM   24  O   UNL     1      37.832  52.505  45.581  1.00  0.00    -0.272 OA
BRANCH  24  25
HETATM   25  C   UNL     1      38.362  53.763  45.387  1.00  0.00     0.300 C 
HETATM   26  O   UNL     1      37.922  54.700  44.742  1.00  0.00    -0.259 OA
BRANCH  25  27
HETATM   27  C   UNL     1      39.620  53.809  46.140  1.00  0.00     0.061 A 
HETATM   28  C   UNL     1      39.608  53.866  47.536  1.00  0.00     0.050 A 
HETATM   29 CL   UNL     1      38.143  53.885  48.449  1.00  0.00    -0.083 Cl
HETATM   30  C   UNL     1      40.819  53.908  48.230  1.00  0.00     0.025 A 
HETATM   31  C   UNL     1      42.029  53.887  47.533  1.00  0.00     0.002 A 
HETATM   32  C   UNL     1      42.035  53.820  46.138  1.00  0.00     0.001 A 
HETATM   33  C   UNL     1      40.830  53.778  45.436  1.00  0.00     0.019 A 
ENDBRANCH  25  27
ENDBRANCH  24  25
ENDBRANCH  19  24
ENDBRANCH   9  16
BRANCH  11  34
HETATM   34  O   UNL     1      33.555  52.760  38.938  1.00  0.00    -0.344 OA
HETATM   35  H   UNL     1      33.870  53.581  39.357  1.00  0.00     0.219 HD
ENDBRANCH  11  34
BRANCH   1  36
HETATM   36  C   UNL     1      28.122  51.139  39.401  1.00  0.00     0.231 C 
HETATM   37  C   UNL     1      27.540  49.758  39.636  1.00  0.00     0.034 C 
ENDBRANCH   1  36
TORSDOF 7
ENDMDL
