MODEL 1
REMARK VINA RESULT:      -9.8      0.000      0.000
REMARK  3 active torsions:
REMARK  status: ('A' for Active; 'I' for Inactive)
REMARK    1  A    between atoms: C_6  and  N_7 
REMARK    2  A    between atoms: N_7  and  N_8 
REMARK    3  A    between atoms: C_9  and  C_10 
ROOT
HETATM    1  C   UNL     1      27.057  43.978  52.044  1.00  0.00     0.024 A 
HETATM    2  C   UNL     1      27.835  42.848  51.859  1.00  0.00     0.138 A 
HETATM    3 CL   UNL     1      27.631  41.753  50.548  1.00  0.00    -0.061 Cl
HETATM    4  N   UNL     1      28.843  42.478  52.687  1.00  0.00    -0.235 NA
HETATM    5  C   UNL     1      29.107  43.253  53.754  1.00  0.00     0.071 A 
HETATM    6  C   UNL     1      28.369  44.426  54.028  1.00  0.00    -0.004 A 
HETATM    7  C   UNL     1      27.336  44.777  53.153  1.00  0.00     0.030 A 
HETATM    8  C   UNL     1      30.136  42.907  54.619  1.00  0.00     0.072 A 
HETATM    9  C   UNL     1      30.443  43.693  55.731  1.00  0.00     0.104 A 
HETATM   10  C   UNL     1      29.693  44.833  56.011  1.00  0.00     0.103 A 
HETATM   11  O   UNL     1      29.913  45.636  57.100  1.00  0.00    -0.346 OA
HETATM   12  C   UNL     1      30.741  44.983  58.070  1.00  0.00     0.202 C 
HETATM   13  C   UNL     1      31.930  44.316  57.398  1.00  0.00     0.202 C 
HETATM   14  O   UNL     1      31.492  43.277  56.511  1.00  0.00    -0.346 OA
HETATM   15  C   UNL     1      28.667  45.210  55.154  1.00  0.00     0.053 A 
ENDROOT
BRANCH   1  16
HETATM   16  C   UNL     1      25.968  44.359  51.125  1.00  0.00     0.154 C 
HETATM   17  N   UNL     1      25.060  45.204  51.502  1.00  0.00    -0.172 NA
BRANCH  17  18
HETATM   18  N   UNL     1      24.100  45.490  50.582  1.00  0.00    -0.108 N 
HETATM   19  H   UNL     1      23.387  44.808  50.327  1.00  0.00     0.208 HD
BRANCH  18  20
HETATM   20  C   UNL     1      24.035  46.676  49.944  1.00  0.00     0.721 A 
HETATM   21  N   UNL     1      24.971  47.580  49.780  1.00  0.00    -0.061 NA
HETATM   22  C   UNL     1      24.372  48.591  49.060  1.00  0.00     0.103 A 
HETATM   23  C   UNL     1      23.043  48.289  48.782  1.00  0.00     0.078 A 
HETATM   24  C   UNL     1      24.902  49.807  48.605  1.00  0.00     0.034 A 
HETATM   25  C   UNL     1      22.191  49.132  48.066  1.00  0.00     0.032 A 
HETATM   26  N   UNL     1      22.860  47.063  49.358  1.00  0.00    -0.186 N 
HETATM   27  C   UNL     1      22.739  50.341  47.621  1.00  0.00     0.002 A 
HETATM   28  C   UNL     1      24.071  50.674  47.883  1.00  0.00     0.002 A 
HETATM   29  H   UNL     1      22.025  46.500  49.376  1.00  0.00     0.184 HD
ENDBRANCH  18  20
ENDBRANCH  17  18
ENDBRANCH   1  16
TORSDOF 3
ENDMDL
MODEL 2
REMARK VINA RESULT:      -9.6      2.283      3.337
REMARK  3 active torsions:
REMARK  status: ('A' for Active; 'I' for Inactive)
REMARK    1  A    between atoms: C_6  and  N_7 
REMARK    2  A    between atoms: N_7  and  N_8 
REMARK    3  A    between atoms: C_9  and  C_10 
ROOT
HETATM    1  C   UNL     1      25.033  45.468  50.610  1.00  0.00     0.024 A 
HETATM    2  C   UNL     1      25.749  44.292  50.462  1.00  0.00     0.138 A 
HETATM    3 CL   UNL     1      25.525  43.196  49.155  1.00  0.00    -0.061 Cl
HETATM    4  N   UNL     1      26.704  43.872  51.328  1.00  0.00    -0.235 NA
HETATM    5  C   UNL     1      26.978  44.642  52.396  1.00  0.00     0.071 A 
HETATM    6  C   UNL     1      26.301  45.859  52.634  1.00  0.00    -0.004 A 
HETATM    7  C   UNL     1      25.321  46.261  51.721  1.00  0.00     0.030 A 
HETATM    8  C   UNL     1      27.955  44.246  53.300  1.00  0.00     0.072 A 
HETATM    9  C   UNL     1      28.269  45.024  54.414  1.00  0.00     0.104 A 
HETATM   10  C   UNL     1      27.579  46.210  54.658  1.00  0.00     0.103 A 
HETATM   11  O   UNL     1      27.809  47.010  55.746  1.00  0.00    -0.346 OA
HETATM   12  C   UNL     1      28.564  46.321  56.750  1.00  0.00     0.202 C 
HETATM   13  C   UNL     1      29.733  45.578  56.126  1.00  0.00     0.202 C 
HETATM   14  O   UNL     1      29.265  44.556  55.234  1.00  0.00    -0.346 OA
HETATM   15  C   UNL     1      26.606  46.637  53.762  1.00  0.00     0.053 A 
ENDROOT
BRANCH   1  16
HETATM   16  C   UNL     1      24.000  45.901  49.650  1.00  0.00     0.154 C 
HETATM   17  N   UNL     1      23.715  47.159  49.522  1.00  0.00    -0.172 NA
BRANCH  17  18
HETATM   18  N   UNL     1      22.750  47.456  48.611  1.00  0.00    -0.108 N 
HETATM   19  H   UNL     1      22.634  46.908  47.759  1.00  0.00     0.208 HD
BRANCH  18  20
HETATM   20  C   UNL     1      21.897  48.490  48.765  1.00  0.00     0.721 A 
HETATM   21  N   UNL     1      21.929  49.678  48.210  1.00  0.00    -0.061 NA
HETATM   22  C   UNL     1      20.829  50.338  48.713  1.00  0.00     0.103 A 
HETATM   23  C   UNL     1      20.116  49.528  49.592  1.00  0.00     0.078 A 
HETATM   24  C   UNL     1      20.370  51.640  48.465  1.00  0.00     0.034 A 
HETATM   25  C   UNL     1      18.956  49.936  50.252  1.00  0.00     0.032 A 
HETATM   26  N   UNL     1      20.823  48.359  49.603  1.00  0.00    -0.186 N 
HETATM   27  C   UNL     1      18.515  51.239  49.991  1.00  0.00     0.002 A 
HETATM   28  C   UNL     1      19.207  52.078  49.113  1.00  0.00     0.002 A 
HETATM   29  H   UNL     1      20.628  47.517  50.120  1.00  0.00     0.184 HD
ENDBRANCH  18  20
ENDBRANCH  17  18
ENDBRANCH   1  16
TORSDOF 3
ENDMDL
MODEL 3
REMARK VINA RESULT:      -9.6      4.570     10.129
REMARK  3 active torsions:
REMARK  status: ('A' for Active; 'I' for Inactive)
REMARK    1  A    between atoms: C_6  and  N_7 
REMARK    2  A    between atoms: N_7  and  N_8 
REMARK    3  A    between atoms: C_9  and  C_10 
ROOT
HETATM    1  C   UNL     1      24.747  47.475  49.427  1.00  0.00     0.024 A 
HETATM    2  C   UNL     1      25.310  48.724  49.226  1.00  0.00     0.138 A 
HETATM    3 CL   UNL     1      27.005  49.018  49.229  1.00  0.00    -0.061 Cl
HETATM    4  N   UNL     1      24.592  49.853  49.005  1.00  0.00    -0.235 NA
HETATM    5  C   UNL     1      23.251  49.759  48.978  1.00  0.00     0.071 A 
HETATM    6  C   UNL     1      22.582  48.530  49.172  1.00  0.00    -0.004 A 
HETATM    7  C   UNL     1      23.354  47.386  49.398  1.00  0.00     0.030 A 
HETATM    8  C   UNL     1      22.484  50.894  48.748  1.00  0.00     0.072 A 
HETATM    9  C   UNL     1      21.091  50.831  48.704  1.00  0.00     0.104 A 
HETATM   10  C   UNL     1      20.437  49.620  48.924  1.00  0.00     0.103 A 
HETATM   11  O   UNL     1      19.074  49.485  48.930  1.00  0.00    -0.346 OA
HETATM   12  C   UNL     1      18.424  50.758  49.035  1.00  0.00     0.202 C 
HETATM   13  C   UNL     1      19.059  51.764  48.089  1.00  0.00     0.202 C 
HETATM   14  O   UNL     1      20.427  52.004  48.448  1.00  0.00    -0.346 OA
HETATM   15  C   UNL     1      21.180  48.466  49.143  1.00  0.00     0.053 A 
ENDROOT
BRANCH   1  16
HETATM   16  C   UNL     1      25.552  46.263  49.662  1.00  0.00     0.154 C 
HETATM   17  N   UNL     1      25.177  45.390  50.545  1.00  0.00    -0.172 NA
BRANCH  17  18
HETATM   18  N   UNL     1      25.988  44.307  50.686  1.00  0.00    -0.108 N 
HETATM   19  H   UNL     1      25.938  43.517  50.044  1.00  0.00     0.208 HD
BRANCH  18  20
HETATM   20  C   UNL     1      26.894  44.202  51.679  1.00  0.00     0.721 A 
HETATM   21  N   UNL     1      26.919  44.804  52.844  1.00  0.00    -0.061 NA
HETATM   22  C   UNL     1      28.059  44.340  53.464  1.00  0.00     0.103 A 
HETATM   23  C   UNL     1      28.737  43.434  52.654  1.00  0.00     0.078 A 
HETATM   24  C   UNL     1      28.584  44.647  54.727  1.00  0.00     0.034 A 
HETATM   25  C   UNL     1      29.925  42.804  53.025  1.00  0.00     0.032 A 
HETATM   26  N   UNL     1      27.970  43.369  51.525  1.00  0.00    -0.186 N 
HETATM   27  C   UNL     1      30.434  43.124  54.289  1.00  0.00     0.002 A 
HETATM   28  C   UNL     1      29.776  44.029  55.128  1.00  0.00     0.002 A 
HETATM   29  H   UNL     1      28.124  42.819  50.696  1.00  0.00     0.184 HD
ENDBRANCH  18  20
ENDBRANCH  17  18
ENDBRANCH   1  16
TORSDOF 3
ENDMDL
MODEL 4
REMARK VINA RESULT:      -9.4      3.460      9.346
REMARK  3 active torsions:
REMARK  status: ('A' for Active; 'I' for Inactive)
REMARK    1  A    between atoms: C_6  and  N_7 
REMARK    2  A    between atoms: N_7  and  N_8 
REMARK    3  A    between atoms: C_9  and  C_10 
ROOT
HETATM    1  C   UNL     1      25.755  44.387  50.900  1.00  0.00     0.024 A 
HETATM    2  C   UNL     1      24.759  43.769  50.163  1.00  0.00     0.138 A 
HETATM    3 CL   UNL     1      24.511  42.067  50.134  1.00  0.00    -0.061 Cl
HETATM    4  N   UNL     1      23.870  44.432  49.383  1.00  0.00    -0.235 NA
HETATM    5  C   UNL     1      23.955  45.772  49.320  1.00  0.00     0.071 A 
HETATM    6  C   UNL     1      24.937  46.495  50.034  1.00  0.00    -0.004 A 
HETATM    7  C   UNL     1      25.838  45.778  50.828  1.00  0.00     0.030 A 
HETATM    8  C   UNL     1      23.057  46.484  48.536  1.00  0.00     0.072 A 
HETATM    9  C   UNL     1      23.112  47.876  48.453  1.00  0.00     0.104 A 
HETATM   10  C   UNL     1      24.099  48.580  49.139  1.00  0.00     0.103 A 
HETATM   11  O   UNL     1      24.237  49.942  49.081  1.00  0.00    -0.346 OA
HETATM   12  C   UNL     1      23.495  50.496  47.988  1.00  0.00     0.202 C 
HETATM   13  C   UNL     1      22.100  49.895  47.930  1.00  0.00     0.202 C 
HETATM   14  O   UNL     1      22.165  48.487  47.670  1.00  0.00    -0.346 OA
HETATM   15  C   UNL     1      25.003  47.894  49.942  1.00  0.00     0.053 A 
ENDROOT
BRANCH   1  16
HETATM   16  C   UNL     1      26.708  43.640  51.742  1.00  0.00     0.154 C 
HETATM   17  N   UNL     1      27.930  44.053  51.868  1.00  0.00    -0.172 NA
BRANCH  17  18
HETATM   18  N   UNL     1      28.729  43.295  52.667  1.00  0.00    -0.108 N 
HETATM   19  H   UNL     1      29.002  42.349  52.405  1.00  0.00     0.208 HD
BRANCH  18  20
HETATM   20  C   UNL     1      29.200  43.736  53.852  1.00  0.00     0.721 A 
HETATM   21  N   UNL     1      28.869  44.812  54.525  1.00  0.00    -0.061 NA
HETATM   22  C   UNL     1      29.652  44.780  55.659  1.00  0.00     0.103 A 
HETATM   23  C   UNL     1      30.474  43.658  55.670  1.00  0.00     0.078 A 
HETATM   24  C   UNL     1      29.717  45.681  56.732  1.00  0.00     0.034 A 
HETATM   25  C   UNL     1      31.374  43.367  56.697  1.00  0.00     0.032 A 
HETATM   26  N   UNL     1      30.162  43.014  54.506  1.00  0.00    -0.186 N 
HETATM   27  C   UNL     1      31.424  44.279  57.758  1.00  0.00     0.002 A 
HETATM   28  C   UNL     1      30.611  45.416  57.778  1.00  0.00     0.002 A 
HETATM   29  H   UNL     1      30.545  42.155  54.145  1.00  0.00     0.184 HD
ENDBRANCH  18  20
ENDBRANCH  17  18
ENDBRANCH   1  16
TORSDOF 3
ENDMDL
MODEL 5
REMARK VINA RESULT:      -9.0      4.059      6.479
REMARK  3 active torsions:
REMARK  status: ('A' for Active; 'I' for Inactive)
REMARK    1  A    between atoms: C_6  and  N_7 
REMARK    2  A    between atoms: N_7  and  N_8 
REMARK    3  A    between atoms: C_9  and  C_10 
ROOT
HETATM    1  C   UNL     1      27.234  43.761  52.114  1.00  0.00     0.024 A 
HETATM    2  C   UNL     1      26.792  44.986  52.585  1.00  0.00     0.138 A 
HETATM    3 CL   UNL     1      25.533  45.894  51.843  1.00  0.00    -0.061 Cl
HETATM    4  N   UNL     1      27.299  45.606  53.678  1.00  0.00    -0.235 NA
HETATM    5  C   UNL     1      28.291  44.999  54.351  1.00  0.00     0.071 A 
HETATM    6  C   UNL     1      28.811  43.747  53.951  1.00  0.00    -0.004 A 
HETATM    7  C   UNL     1      28.265  43.136  52.818  1.00  0.00     0.030 A 
HETATM    8  C   UNL     1      28.830  45.602  55.480  1.00  0.00     0.072 A 
HETATM    9  C   UNL     1      29.855  44.996  56.207  1.00  0.00     0.104 A 
HETATM   10  C   UNL     1      30.381  43.775  55.791  1.00  0.00     0.103 A 
HETATM   11  O   UNL     1      31.408  43.134  56.433  1.00  0.00    -0.346 OA
HETATM   12  C   UNL     1      32.087  44.014  57.338  1.00  0.00     0.202 C 
HETATM   13  C   UNL     1      31.088  44.809  58.162  1.00  0.00     0.202 C 
HETATM   14  O   UNL     1      30.303  45.663  57.319  1.00  0.00    -0.346 OA
HETATM   15  C   UNL     1      29.851  43.141  54.673  1.00  0.00     0.053 A 
ENDROOT
BRANCH   1  16
HETATM   16  C   UNL     1      26.661  43.107  50.922  1.00  0.00     0.154 C 
HETATM   17  N   UNL     1      27.223  43.256  49.764  1.00  0.00    -0.172 NA
BRANCH  17  18
HETATM   18  N   UNL     1      26.619  42.612  48.729  1.00  0.00    -0.108 N 
HETATM   19  H   UNL     1      25.774  42.979  48.293  1.00  0.00     0.208 HD
BRANCH  18  20
HETATM   20  C   UNL     1      27.086  41.452  48.222  1.00  0.00     0.721 A 
HETATM   21  N   UNL     1      27.711  40.475  48.833  1.00  0.00    -0.061 NA
HETATM   22  C   UNL     1      27.961  39.540  47.852  1.00  0.00     0.103 A 
HETATM   23  C   UNL     1      27.475  39.964  46.619  1.00  0.00     0.078 A 
HETATM   24  C   UNL     1      28.604  38.297  47.938  1.00  0.00     0.034 A 
HETATM   25  C   UNL     1      27.588  39.218  45.445  1.00  0.00     0.032 A 
HETATM   26  N   UNL     1      26.923  41.184  46.890  1.00  0.00    -0.186 N 
HETATM   27  C   UNL     1      28.233  37.980  45.551  1.00  0.00     0.002 A 
HETATM   28  C   UNL     1      28.733  37.525  46.775  1.00  0.00     0.002 A 
HETATM   29  H   UNL     1      26.465  41.817  46.254  1.00  0.00     0.184 HD
ENDBRANCH  18  20
ENDBRANCH  17  18
ENDBRANCH   1  16
TORSDOF 3
ENDMDL
MODEL 6
REMARK VINA RESULT:      -8.7      5.182      9.362
REMARK  3 active torsions:
REMARK  status: ('A' for Active; 'I' for Inactive)
REMARK    1  A    between atoms: C_6  and  N_7 
REMARK    2  A    between atoms: N_7  and  N_8 
REMARK    3  A    between atoms: C_9  and  C_10 
ROOT
HETATM    1  C   UNL     1      25.920  43.339  51.933  1.00  0.00     0.024 A 
HETATM    2  C   UNL     1      26.772  42.326  51.525  1.00  0.00     0.138 A 
HETATM    3 CL   UNL     1      28.277  41.981  52.283  1.00  0.00    -0.061 Cl
HETATM    4  N   UNL     1      26.516  41.494  50.485  1.00  0.00    -0.235 NA
HETATM    5  C   UNL     1      25.368  41.658  49.807  1.00  0.00     0.071 A 
HETATM    6  C   UNL     1      24.434  42.663  50.145  1.00  0.00    -0.004 A 
HETATM    7  C   UNL     1      24.730  43.504  51.223  1.00  0.00     0.030 A 
HETATM    8  C   UNL     1      25.071  40.819  48.740  1.00  0.00     0.072 A 
HETATM    9  C   UNL     1      23.884  40.956  48.019  1.00  0.00     0.104 A 
HETATM   10  C   UNL     1      22.981  41.967  48.341  1.00  0.00     0.103 A 
HETATM   11  O   UNL     1      21.812  42.184  47.660  1.00  0.00    -0.346 OA
HETATM   12  C   UNL     1      21.806  41.499  46.402  1.00  0.00     0.202 C 
HETATM   13  C   UNL     1      22.307  40.074  46.566  1.00  0.00     0.202 C 
HETATM   14  O   UNL     1      23.675  40.064  46.998  1.00  0.00    -0.346 OA
HETATM   15  C   UNL     1      23.246  42.812  49.413  1.00  0.00     0.053 A 
ENDROOT
BRANCH   1  16
HETATM   16  C   UNL     1      26.222  44.229  53.070  1.00  0.00     0.154 C 
HETATM   17  N   UNL     1      27.141  45.137  52.963  1.00  0.00    -0.172 NA
BRANCH  17  18
HETATM   18  N   UNL     1      27.342  45.906  54.067  1.00  0.00    -0.108 N 
HETATM   19  H   UNL     1      26.791  46.746  54.239  1.00  0.00     0.208 HD
BRANCH  18  20
HETATM   20  C   UNL     1      28.281  45.619  54.992  1.00  0.00     0.721 A 
HETATM   21  N   UNL     1      28.539  46.227  56.125  1.00  0.00    -0.061 NA
HETATM   22  C   UNL     1      29.591  45.527  56.675  1.00  0.00     0.103 A 
HETATM   23  C   UNL     1      29.976  44.471  55.855  1.00  0.00     0.078 A 
HETATM   24  C   UNL     1      30.277  45.736  57.881  1.00  0.00     0.034 A 
HETATM   25  C   UNL     1      31.017  43.593  56.161  1.00  0.00     0.032 A 
HETATM   26  N   UNL     1      29.122  44.558  54.792  1.00  0.00    -0.186 N 
HETATM   27  C   UNL     1      31.689  43.819  57.368  1.00  0.00     0.002 A 
HETATM   28  C   UNL     1      31.327  44.870  58.216  1.00  0.00     0.002 A 
HETATM   29  H   UNL     1      29.078  43.967  53.977  1.00  0.00     0.184 HD
ENDBRANCH  18  20
ENDBRANCH  17  18
ENDBRANCH   1  16
TORSDOF 3
ENDMDL
MODEL 7
REMARK VINA RESULT:      -8.6      3.025      3.521
REMARK  3 active torsions:
REMARK  status: ('A' for Active; 'I' for Inactive)
REMARK    1  A    between atoms: C_6  and  N_7 
REMARK    2  A    between atoms: N_7  and  N_8 
REMARK    3  A    between atoms: C_9  and  C_10 
ROOT
HETATM    1  C   UNL     1      26.915  44.638  52.135  1.00  0.00     0.024 A 
HETATM    2  C   UNL     1      26.581  45.812  52.788  1.00  0.00     0.138 A 
HETATM    3 CL   UNL     1      25.361  46.895  52.239  1.00  0.00    -0.061 Cl
HETATM    4  N   UNL     1      27.173  46.240  53.929  1.00  0.00    -0.235 NA
HETATM    5  C   UNL     1      28.145  45.482  54.465  1.00  0.00     0.071 A 
HETATM    6  C   UNL     1      28.559  44.267  53.873  1.00  0.00    -0.004 A 
HETATM    7  C   UNL     1      27.926  43.856  52.696  1.00  0.00     0.030 A 
HETATM    8  C   UNL     1      28.769  45.886  55.637  1.00  0.00     0.072 A 
HETATM    9  C   UNL     1      29.776  45.119  56.225  1.00  0.00     0.104 A 
HETATM   10  C   UNL     1      30.198  43.936  55.621  1.00  0.00     0.103 A 
HETATM   11  O   UNL     1      31.201  43.147  56.120  1.00  0.00    -0.346 OA
HETATM   12  C   UNL     1      31.975  43.846  57.102  1.00  0.00     0.202 C 
HETATM   13  C   UNL     1      31.068  44.583  58.074  1.00  0.00     0.202 C 
HETATM   14  O   UNL     1      30.314  45.595  57.394  1.00  0.00    -0.346 OA
HETATM   15  C   UNL     1      29.581  43.500  54.455  1.00  0.00     0.053 A 
ENDROOT
BRANCH   1  16
HETATM   16  C   UNL     1      26.252  44.195  50.894  1.00  0.00     0.154 C 
HETATM   17  N   UNL     1      25.771  42.995  50.804  1.00  0.00    -0.172 NA
BRANCH  17  18
HETATM   18  N   UNL     1      25.178  42.684  49.620  1.00  0.00    -0.108 N 
HETATM   19  H   UNL     1      25.519  41.921  49.037  1.00  0.00     0.208 HD
BRANCH  18  20
HETATM   20  C   UNL     1      24.118  43.364  49.137  1.00  0.00     0.721 A 
HETATM   21  N   UNL     1      22.977  43.642  49.721  1.00  0.00    -0.061 NA
HETATM   22  C   UNL     1      22.258  44.352  48.784  1.00  0.00     0.103 A 
HETATM   23  C   UNL     1      22.982  44.506  47.606  1.00  0.00     0.078 A 
HETATM   24  C   UNL     1      20.970  44.900  48.867  1.00  0.00     0.034 A 
HETATM   25  C   UNL     1      22.500  45.182  46.485  1.00  0.00     0.032 A 
HETATM   26  N   UNL     1      24.161  43.865  47.864  1.00  0.00    -0.186 N 
HETATM   27  C   UNL     1      21.213  45.722  46.587  1.00  0.00     0.002 A 
HETATM   28  C   UNL     1      20.459  45.586  47.756  1.00  0.00     0.002 A 
HETATM   29  H   UNL     1      24.957  43.754  47.256  1.00  0.00     0.184 HD
ENDBRANCH  18  20
ENDBRANCH  17  18
ENDBRANCH   1  16
TORSDOF 3
ENDMDL
MODEL 8
REMARK VINA RESULT:      -8.5      4.914      9.006
REMARK  3 active torsions:
REMARK  status: ('A' for Active; 'I' for Inactive)
REMARK    1  A    between atoms: C_6  and  N_7 
REMARK    2  A    between atoms: N_7  and  N_8 
REMARK    3  A    between atoms: C_9  and  C_10 
ROOT
HETATM    1  C   UNL     1      26.220  43.020  51.437  1.00  0.00     0.024 A 
HETATM    2  C   UNL     1      25.149  43.108  50.563  1.00  0.00     0.138 A 
HETATM    3 CL   UNL     1      23.847  44.216  50.759  1.00  0.00    -0.061 Cl
HETATM    4  N   UNL     1      25.005  42.335  49.460  1.00  0.00    -0.235 NA
HETATM    5  C   UNL     1      25.958  41.426  49.191  1.00  0.00     0.071 A 
HETATM    6  C   UNL     1      27.089  41.259  50.021  1.00  0.00    -0.004 A 
HETATM    7  C   UNL     1      27.205  42.073  51.152  1.00  0.00     0.030 A 
HETATM    8  C   UNL     1      25.847  40.621  48.065  1.00  0.00     0.072 A 
HETATM    9  C   UNL     1      26.822  39.673  47.752  1.00  0.00     0.104 A 
HETATM   10  C   UNL     1      27.921  39.495  48.590  1.00  0.00     0.103 A 
HETATM   11  O   UNL     1      28.900  38.564  48.367  1.00  0.00    -0.346 OA
HETATM   12  C   UNL     1      28.486  37.591  47.400  1.00  0.00     0.202 C 
HETATM   13  C   UNL     1      27.830  38.267  46.207  1.00  0.00     0.202 C 
HETATM   14  O   UNL     1      26.629  38.943  46.606  1.00  0.00    -0.346 OA
HETATM   15  C   UNL     1      28.065  40.296  49.716  1.00  0.00     0.053 A 
ENDROOT
BRANCH   1  16
HETATM   16  C   UNL     1      26.353  43.877  52.630  1.00  0.00     0.154 C 
HETATM   17  N   UNL     1      27.375  44.662  52.759  1.00  0.00    -0.172 NA
BRANCH  17  18
HETATM   18  N   UNL     1      27.404  45.412  53.894  1.00  0.00    -0.108 N 
HETATM   19  H   UNL     1      26.724  46.152  54.062  1.00  0.00     0.208 HD
BRANCH  18  20
HETATM   20  C   UNL     1      28.330  45.236  54.859  1.00  0.00     0.721 A 
HETATM   21  N   UNL     1      28.524  45.927  55.956  1.00  0.00    -0.061 NA
HETATM   22  C   UNL     1      29.596  45.323  56.576  1.00  0.00     0.103 A 
HETATM   23  C   UNL     1      30.060  44.241  55.836  1.00  0.00     0.078 A 
HETATM   24  C   UNL     1      30.235  45.645  57.782  1.00  0.00     0.034 A 
HETATM   25  C   UNL     1      31.137  43.442  56.223  1.00  0.00     0.032 A 
HETATM   26  N   UNL     1      29.233  44.212  54.748  1.00  0.00    -0.186 N 
HETATM   27  C   UNL     1      31.762  43.780  57.429  1.00  0.00     0.002 A 
HETATM   28  C   UNL     1      31.321  44.861  58.198  1.00  0.00     0.002 A 
HETATM   29  H   UNL     1      29.243  43.570  53.972  1.00  0.00     0.184 HD
ENDBRANCH  18  20
ENDBRANCH  17  18
ENDBRANCH   1  16
TORSDOF 3
ENDMDL
MODEL 9
REMARK VINA RESULT:      -8.5      2.757      3.852
REMARK  3 active torsions:
REMARK  status: ('A' for Active; 'I' for Inactive)
REMARK    1  A    between atoms: C_6  and  N_7 
REMARK    2  A    between atoms: N_7  and  N_8 
REMARK    3  A    between atoms: C_9  and  C_10 
ROOT
HETATM    1  C   UNL     1      23.780  43.689  50.274  1.00  0.00     0.024 A 
HETATM    2  C   UNL     1      24.183  42.448  49.811  1.00  0.00     0.138 A 
HETATM    3 CL   UNL     1      23.276  41.507  48.693  1.00  0.00    -0.061 Cl
HETATM    4  N   UNL     1      25.334  41.837  50.185  1.00  0.00    -0.235 NA
HETATM    5  C   UNL     1      26.137  42.470  51.058  1.00  0.00     0.071 A 
HETATM    6  C   UNL     1      25.813  43.739  51.588  1.00  0.00    -0.004 A 
HETATM    7  C   UNL     1      24.618  44.341  51.181  1.00  0.00     0.030 A 
HETATM    8  C   UNL     1      27.326  41.876  51.458  1.00  0.00     0.072 A 
HETATM    9  C   UNL     1      28.187  42.509  52.356  1.00  0.00     0.104 A 
HETATM   10  C   UNL     1      27.848  43.748  52.896  1.00  0.00     0.103 A 
HETATM   11  O   UNL     1      28.624  44.416  53.806  1.00  0.00    -0.346 OA
HETATM   12  C   UNL     1      29.611  43.552  54.383  1.00  0.00     0.202 C 
HETATM   13  C   UNL     1      30.291  42.720  53.307  1.00  0.00     0.202 C 
HETATM   14  O   UNL     1      29.347  41.848  52.670  1.00  0.00    -0.346 OA
HETATM   15  C   UNL     1      26.670  44.372  52.502  1.00  0.00     0.053 A 
ENDROOT
BRANCH   1  16
HETATM   16  C   UNL     1      22.523  44.333  49.848  1.00  0.00     0.154 C 
HETATM   17  N   UNL     1      22.545  45.299  48.984  1.00  0.00    -0.172 NA
BRANCH  17  18
HETATM   18  N   UNL     1      21.334  45.825  48.656  1.00  0.00    -0.108 N 
HETATM   19  H   UNL     1      20.556  45.232  48.368  1.00  0.00     0.208 HD
BRANCH  18  20
HETATM   20  C   UNL     1      21.086  47.150  48.679  1.00  0.00     0.721 A 
HETATM   21  N   UNL     1      21.655  48.111  47.991  1.00  0.00    -0.061 NA
HETATM   22  C   UNL     1      21.028  49.267  48.402  1.00  0.00     0.103 A 
HETATM   23  C   UNL     1      20.056  48.998  49.360  1.00  0.00     0.078 A 
HETATM   24  C   UNL     1      21.236  50.594  47.999  1.00  0.00     0.034 A 
HETATM   25  C   UNL     1      19.263  49.980  49.955  1.00  0.00     0.032 A 
HETATM   26  N   UNL     1      20.119  47.641  49.514  1.00  0.00    -0.186 N 
HETATM   27  C   UNL     1      19.486  51.298  49.540  1.00  0.00     0.002 A 
HETATM   28  C   UNL     1      20.454  51.602  48.579  1.00  0.00     0.002 A 
HETATM   29  H   UNL     1      19.570  47.056  50.123  1.00  0.00     0.184 HD
ENDBRANCH  18  20
ENDBRANCH  17  18
ENDBRANCH   1  16
TORSDOF 3
ENDMDL
MODEL 10
REMARK VINA RESULT:      -8.4      5.184      9.587
REMARK  3 active torsions:
REMARK  status: ('A' for Active; 'I' for Inactive)
REMARK    1  A    between atoms: C_6  and  N_7 
REMARK    2  A    between atoms: N_7  and  N_8 
REMARK    3  A    between atoms: C_9  and  C_10 
ROOT
HETATM    1  C   UNL     1      26.807  43.042  51.538  1.00  0.00     0.024 A 
HETATM    2  C   UNL     1      25.615  43.630  51.928  1.00  0.00     0.138 A 
HETATM    3 CL   UNL     1      25.479  44.722  53.250  1.00  0.00    -0.061 Cl
HETATM    4  N   UNL     1      24.426  43.412  51.315  1.00  0.00    -0.235 NA
HETATM    5  C   UNL     1      24.396  42.576  50.263  1.00  0.00     0.071 A 
HETATM    6  C   UNL     1      25.558  41.927  49.789  1.00  0.00    -0.004 A 
HETATM    7  C   UNL     1      26.768  42.174  50.445  1.00  0.00     0.030 A 
HETATM    8  C   UNL     1      23.196  42.334  49.607  1.00  0.00     0.072 A 
HETATM    9  C   UNL     1      23.130  41.479  48.507  1.00  0.00     0.104 A 
HETATM   10  C   UNL     1      24.275  40.821  48.061  1.00  0.00     0.103 A 
HETATM   11  O   UNL     1      24.284  39.943  47.010  1.00  0.00    -0.346 OA
HETATM   12  C   UNL     1      22.956  39.526  46.667  1.00  0.00     0.202 C 
HETATM   13  C   UNL     1      22.015  40.719  46.621  1.00  0.00     0.202 C 
HETATM   14  O   UNL     1      21.902  41.325  47.916  1.00  0.00    -0.346 OA
HETATM   15  C   UNL     1      25.492  41.055  48.690  1.00  0.00     0.053 A 
ENDROOT
BRANCH   1  16
HETATM   16  C   UNL     1      28.088  43.299  52.221  1.00  0.00     0.154 C 
HETATM   17  N   UNL     1      28.952  42.345  52.369  1.00  0.00    -0.172 NA
BRANCH  17  18
HETATM   18  N   UNL     1      30.102  42.684  53.012  1.00  0.00    -0.108 N 
HETATM   19  H   UNL     1      31.015  42.408  52.652  1.00  0.00     0.208 HD
BRANCH  18  20
HETATM   20  C   UNL     1      30.112  43.390  54.161  1.00  0.00     0.721 A 
HETATM   21  N   UNL     1      29.392  44.434  54.496  1.00  0.00    -0.061 NA
HETATM   22  C   UNL     1      29.802  44.758  55.771  1.00  0.00     0.103 A 
HETATM   23  C   UNL     1      30.793  43.887  56.216  1.00  0.00     0.078 A 
HETATM   24  C   UNL     1      29.373  45.789  56.619  1.00  0.00     0.034 A 
HETATM   25  C   UNL     1      31.394  43.977  57.472  1.00  0.00     0.032 A 
HETATM   26  N   UNL     1      30.966  43.029  55.167  1.00  0.00    -0.186 N 
HETATM   27  C   UNL     1      30.952  45.013  58.304  1.00  0.00     0.002 A 
HETATM   28  C   UNL     1      29.959  45.904  57.887  1.00  0.00     0.002 A 
HETATM   29  H   UNL     1      31.600  42.249  55.097  1.00  0.00     0.184 HD
ENDBRANCH  18  20
ENDBRANCH  17  18
ENDBRANCH   1  16
TORSDOF 3
ENDMDL
