MODEL 1
REMARK VINA RESULT:      -9.9      0.000      0.000
REMARK  9 active torsions:
REMARK  status: ('A' for Active; 'I' for Inactive)
REMARK    1  A    between atoms: C_4  and  C_5 
REMARK    2  A    between atoms: C_8  and  C_9 
REMARK       I    between atoms: C_9  and  N_10 
REMARK    3  A    between atoms: N_10  and  C_11 
REMARK    4  A    between atoms: N_10  and  C_26 
REMARK    5  A    between atoms: C_11  and  C_12 
REMARK    6  A    between atoms: C_11  and  C_21 
REMARK       I    between atoms: C_12  and  N_13 
REMARK    7  A    between atoms: N_13  and  C_14 
REMARK    8  A    between atoms: C_14  and  C_15 
REMARK    9  A    between atoms: C_26  and  C_27 
ROOT
HETATM    1  C   UNL     1      25.875  46.727  52.992  1.00  0.00     0.271 C 
HETATM    2  N   UNL     1      25.875  45.554  52.228  1.00  0.00    -0.324 N 
HETATM    3  O   UNL     1      25.182  47.693  52.667  1.00  0.00    -0.266 OA
ENDROOT
BRANCH   2   4
HETATM    4  C   UNL     1      25.248  45.557  50.883  1.00  0.00     0.220 C 
BRANCH   4   5
HETATM    5  C   UNL     1      25.800  46.636  49.899  1.00  0.00     0.245 C 
HETATM    6  N   UNL     1      24.979  47.712  49.648  1.00  0.00    -0.357 N 
HETATM    7  H   UNL     1      24.236  47.875  50.329  1.00  0.00     0.162 HD
HETATM    8  O   UNL     1      26.948  46.579  49.454  1.00  0.00    -0.271 OA
BRANCH   6   9
HETATM    9  C   UNL     1      25.388  48.853  48.850  1.00  0.00     0.154 C 
BRANCH   9  10
HETATM   10  C   UNL     1      24.228  49.587  48.172  1.00  0.00     0.139 C 
HETATM   11  O   UNL     1      23.181  48.672  47.786  1.00  0.00    -0.384 OA
HETATM   12  C   UNL     1      21.926  49.361  47.891  1.00  0.00     0.168 C 
HETATM   13  C   UNL     1      22.210  50.752  48.426  1.00  0.00     0.029 C 
HETATM   14  C   UNL     1      23.549  50.581  49.098  1.00  0.00     0.035 C 
ENDBRANCH   9  10
ENDBRANCH   6   9
ENDBRANCH   4   5
BRANCH   4  15
HETATM   15  C   UNL     1      25.188  44.187  50.212  1.00  0.00     0.014 A 
HETATM   16  S   UNL     1      23.763  43.217  50.273  1.00  0.00    -0.104 SA
HETATM   17  C   UNL     1      24.455  41.990  49.311  1.00  0.00     0.050 A 
HETATM   18  C   UNL     1      25.729  42.311  48.907  1.00  0.00     0.008 A 
HETATM   19  C   UNL     1      26.147  43.573  49.418  1.00  0.00     0.017 A 
ENDBRANCH   4  15
ENDBRANCH   2   4
BRANCH   2  20
HETATM   20  C   UNL     1      25.874  44.255  52.907  1.00  0.00     0.173 C 
BRANCH  20  21
HETATM   21  C   UNL     1      27.216  43.575  52.835  1.00  0.00     0.000 A 
HETATM   22  S   UNL     1      27.487  42.200  53.834  1.00  0.00    -0.105 SA
HETATM   23  C   UNL     1      29.081  42.000  53.255  1.00  0.00     0.050 A 
HETATM   24  C   UNL     1      29.409  42.947  52.313  1.00  0.00     0.008 A 
HETATM   25  C   UNL     1      28.332  43.847  52.065  1.00  0.00     0.017 A 
ENDBRANCH  20  21
ENDBRANCH   2  20
BRANCH   1  26
HETATM   26  C   UNL     1      26.681  46.761  54.195  1.00  0.00     0.101 A 
HETATM   27  N   UNL     1      27.702  45.893  54.511  1.00  0.00    -0.351 N 
HETATM   28  C   UNL     1      28.282  46.222  55.717  1.00  0.00     0.043 A 
HETATM   29  H   UNL     1      28.010  45.135  53.916  1.00  0.00     0.166 HD
HETATM   30  C   UNL     1      27.633  47.362  56.159  1.00  0.00     0.033 A 
HETATM   31  C   UNL     1      26.650  47.708  55.204  1.00  0.00     0.037 A 
BRANCH  28  32
HETATM   32  C   UNL     1      29.399  45.473  56.306  1.00  0.00    -0.009 A 
HETATM   33  C   UNL     1      29.817  45.743  57.617  1.00  0.00     0.013 A 
HETATM   34  C   UNL     1      30.876  45.036  58.192  1.00  0.00     0.001 A 
HETATM   35  C   UNL     1      31.530  44.046  57.463  1.00  0.00     0.000 A 
HETATM   36  C   UNL     1      31.125  43.764  56.161  1.00  0.00     0.001 A 
HETATM   37  C   UNL     1      30.066  44.473  55.586  1.00  0.00     0.013 A 
ENDBRANCH  28  32
ENDBRANCH   1  26
TORSDOF 9
ENDMDL
MODEL 2
REMARK VINA RESULT:      -9.0      2.027      3.720
REMARK  9 active torsions:
REMARK  status: ('A' for Active; 'I' for Inactive)
REMARK    1  A    between atoms: C_4  and  C_5 
REMARK    2  A    between atoms: C_8  and  C_9 
REMARK       I    between atoms: C_9  and  N_10 
REMARK    3  A    between atoms: N_10  and  C_11 
REMARK    4  A    between atoms: N_10  and  C_26 
REMARK    5  A    between atoms: C_11  and  C_12 
REMARK    6  A    between atoms: C_11  and  C_21 
REMARK       I    between atoms: C_12  and  N_13 
REMARK    7  A    between atoms: N_13  and  C_14 
REMARK    8  A    between atoms: C_14  and  C_15 
REMARK    9  A    between atoms: C_26  and  C_27 
ROOT
HETATM    1  C   UNL     1      25.226  46.467  51.759  1.00  0.00     0.271 C 
HETATM    2  N   UNL     1      25.021  45.767  50.565  1.00  0.00    -0.324 N 
HETATM    3  O   UNL     1      24.918  47.657  51.855  1.00  0.00    -0.266 OA
ENDROOT
BRANCH   2   4
HETATM    4  C   UNL     1      24.680  46.513  49.327  1.00  0.00     0.220 C 
BRANCH   4   5
HETATM    5  C   UNL     1      23.156  46.772  49.112  1.00  0.00     0.245 C 
HETATM    6  N   UNL     1      22.684  48.005  49.501  1.00  0.00    -0.357 N 
HETATM    7  H   UNL     1      23.386  48.739  49.609  1.00  0.00     0.162 HD
HETATM    8  O   UNL     1      22.438  45.957  48.531  1.00  0.00    -0.271 OA
BRANCH   6   9
HETATM    9  C   UNL     1      21.321  48.444  49.264  1.00  0.00     0.154 C 
BRANCH   9  10
HETATM   10  C   UNL     1      21.095  49.937  49.517  1.00  0.00     0.139 C 
HETATM   11  O   UNL     1      21.034  50.677  48.279  1.00  0.00    -0.384 OA
HETATM   12  C   UNL     1      20.127  51.775  48.461  1.00  0.00     0.168 C 
HETATM   13  C   UNL     1      19.555  51.670  49.861  1.00  0.00     0.029 C 
HETATM   14  C   UNL     1      19.766  50.216  50.198  1.00  0.00     0.035 C 
ENDBRANCH   9  10
ENDBRANCH   6   9
ENDBRANCH   4   5
BRANCH   4  15
HETATM   15  C   UNL     1      25.487  47.791  49.118  1.00  0.00     0.014 A 
HETATM   16  S   UNL     1      27.195  47.828  49.357  1.00  0.00    -0.104 SA
HETATM   17  C   UNL     1      27.310  49.465  48.892  1.00  0.00     0.050 A 
HETATM   18  C   UNL     1      26.092  49.980  48.520  1.00  0.00     0.008 A 
HETATM   19  C   UNL     1      25.047  49.020  48.643  1.00  0.00     0.017 A 
ENDBRANCH   4  15
ENDBRANCH   2   4
BRANCH   2  20
HETATM   20  C   UNL     1      24.516  44.392  50.615  1.00  0.00     0.173 C 
BRANCH  20  21
HETATM   21  C   UNL     1      25.517  43.399  50.085  1.00  0.00     0.000 A 
HETATM   22  S   UNL     1      25.111  42.516  48.664  1.00  0.00    -0.105 SA
HETATM   23  C   UNL     1      26.594  41.669  48.677  1.00  0.00     0.050 A 
HETATM   24  C   UNL     1      27.393  42.048  49.730  1.00  0.00     0.008 A 
HETATM   25  C   UNL     1      26.777  43.050  50.534  1.00  0.00     0.017 A 
ENDBRANCH  20  21
ENDBRANCH   2  20
BRANCH   1  26
HETATM   26  C   UNL     1      25.772  45.747  52.890  1.00  0.00     0.101 A 
HETATM   27  N   UNL     1      27.105  45.653  53.224  1.00  0.00    -0.351 N 
HETATM   28  C   UNL     1      27.281  44.917  54.376  1.00  0.00     0.043 A 
HETATM   29  H   UNL     1      27.854  46.099  52.711  1.00  0.00     0.166 HD
HETATM   30  C   UNL     1      26.013  44.568  54.808  1.00  0.00     0.033 A 
HETATM   31  C   UNL     1      25.074  45.100  53.895  1.00  0.00     0.037 A 
BRANCH  28  32
HETATM   32  C   UNL     1      28.596  44.653  54.972  1.00  0.00    -0.009 A 
HETATM   33  C   UNL     1      29.316  43.504  54.617  1.00  0.00     0.013 A 
HETATM   34  C   UNL     1      30.570  43.243  55.174  1.00  0.00     0.001 A 
HETATM   35  C   UNL     1      31.123  44.130  56.094  1.00  0.00     0.000 A 
HETATM   36  C   UNL     1      30.422  45.277  56.455  1.00  0.00     0.001 A 
HETATM   37  C   UNL     1      29.166  45.537  55.898  1.00  0.00     0.013 A 
ENDBRANCH  28  32
ENDBRANCH   1  26
TORSDOF 9
ENDMDL
MODEL 3
REMARK VINA RESULT:      -9.0      3.223      6.354
REMARK  9 active torsions:
REMARK  status: ('A' for Active; 'I' for Inactive)
REMARK    1  A    between atoms: C_4  and  C_5 
REMARK    2  A    between atoms: C_8  and  C_9 
REMARK       I    between atoms: C_9  and  N_10 
REMARK    3  A    between atoms: N_10  and  C_11 
REMARK    4  A    between atoms: N_10  and  C_26 
REMARK    5  A    between atoms: C_11  and  C_12 
REMARK    6  A    between atoms: C_11  and  C_21 
REMARK       I    between atoms: C_12  and  N_13 
REMARK    7  A    between atoms: N_13  and  C_14 
REMARK    8  A    between atoms: C_14  and  C_15 
REMARK    9  A    between atoms: C_26  and  C_27 
ROOT
HETATM    1  C   UNL     1      25.884  43.211  51.121  1.00  0.00     0.271 C 
HETATM    2  N   UNL     1      25.921  44.012  49.974  1.00  0.00    -0.324 N 
HETATM    3  O   UNL     1      25.517  42.036  51.059  1.00  0.00    -0.266 OA
ENDROOT
BRANCH   2   4
HETATM    4  C   UNL     1      25.271  43.537  48.727  1.00  0.00     0.220 C 
BRANCH   4   5
HETATM    5  C   UNL     1      25.469  42.020  48.416  1.00  0.00     0.245 C 
HETATM    6  N   UNL     1      26.754  41.615  48.136  1.00  0.00    -0.357 N 
HETATM    7  H   UNL     1      27.497  42.244  48.444  1.00  0.00     0.162 HD
HETATM    8  O   UNL     1      24.542  41.214  48.515  1.00  0.00    -0.271 OA
BRANCH   6   9
HETATM    9  C   UNL     1      27.123  40.225  47.940  1.00  0.00     0.154 C 
BRANCH   9  10
HETATM   10  C   UNL     1      28.436  39.827  48.619  1.00  0.00     0.139 C 
HETATM   11  O   UNL     1      28.292  39.783  50.055  1.00  0.00    -0.384 OA
HETATM   12  C   UNL     1      29.160  38.755  50.558  1.00  0.00     0.168 C 
HETATM   13  C   UNL     1      29.826  38.095  49.366  1.00  0.00     0.029 C 
HETATM   14  C   UNL     1      28.889  38.429  48.234  1.00  0.00     0.035 C 
ENDBRANCH   9  10
ENDBRANCH   6   9
ENDBRANCH   4   5
BRANCH   4  15
HETATM   15  C   UNL     1      23.805  43.936  48.587  1.00  0.00     0.014 A 
HETATM   16  S   UNL     1      23.038  44.023  47.044  1.00  0.00    -0.104 SA
HETATM   17  C   UNL     1      21.530  44.439  47.722  1.00  0.00     0.050 A 
HETATM   18  C   UNL     1      21.576  44.477  49.095  1.00  0.00     0.008 A 
HETATM   19  C   UNL     1      22.879  44.184  49.592  1.00  0.00     0.017 A 
ENDBRANCH   4  15
ENDBRANCH   2   4
BRANCH   2  20
HETATM   20  C   UNL     1      27.049  44.926  49.772  1.00  0.00     0.173 C 
BRANCH  20  21
HETATM   21  C   UNL     1      26.605  46.360  49.646  1.00  0.00     0.000 A 
HETATM   22  S   UNL     1      27.751  47.522  49.100  1.00  0.00    -0.105 SA
HETATM   23  C   UNL     1      26.620  48.797  49.207  1.00  0.00     0.050 A 
HETATM   24  C   UNL     1      25.390  48.359  49.639  1.00  0.00     0.008 A 
HETATM   25  C   UNL     1      25.379  46.955  49.882  1.00  0.00     0.017 A 
ENDBRANCH  20  21
ENDBRANCH   2  20
BRANCH   1  26
HETATM   26  C   UNL     1      26.325  43.787  52.374  1.00  0.00     0.101 A 
HETATM   27  N   UNL     1      27.563  43.617  52.952  1.00  0.00    -0.351 N 
HETATM   28  C   UNL     1      27.667  44.327  54.130  1.00  0.00     0.043 A 
HETATM   29  H   UNL     1      28.313  43.073  52.546  1.00  0.00     0.166 HD
HETATM   30  C   UNL     1      26.466  45.001  54.280  1.00  0.00     0.033 A 
HETATM   31  C   UNL     1      25.640  44.681  53.178  1.00  0.00     0.037 A 
BRANCH  28  32
HETATM   32  C   UNL     1      28.874  44.338  54.963  1.00  0.00    -0.009 A 
HETATM   33  C   UNL     1      29.758  43.249  54.941  1.00  0.00     0.013 A 
HETATM   34  C   UNL     1      30.914  43.247  55.726  1.00  0.00     0.001 A 
HETATM   35  C   UNL     1      31.204  44.337  56.543  1.00  0.00     0.000 A 
HETATM   36  C   UNL     1      30.338  45.427  56.574  1.00  0.00     0.001 A 
HETATM   37  C   UNL     1      29.181  45.427  55.789  1.00  0.00     0.013 A 
ENDBRANCH  28  32
ENDBRANCH   1  26
TORSDOF 9
ENDMDL
MODEL 4
REMARK VINA RESULT:      -8.9      2.516      8.731
REMARK  9 active torsions:
REMARK  status: ('A' for Active; 'I' for Inactive)
REMARK    1  A    between atoms: C_4  and  C_5 
REMARK    2  A    between atoms: C_8  and  C_9 
REMARK       I    between atoms: C_9  and  N_10 
REMARK    3  A    between atoms: N_10  and  C_11 
REMARK    4  A    between atoms: N_10  and  C_26 
REMARK    5  A    between atoms: C_11  and  C_12 
REMARK    6  A    between atoms: C_11  and  C_21 
REMARK       I    between atoms: C_12  and  N_13 
REMARK    7  A    between atoms: N_13  and  C_14 
REMARK    8  A    between atoms: C_14  and  C_15 
REMARK    9  A    between atoms: C_26  and  C_27 
ROOT
HETATM    1  C   UNL     1      24.966  47.469  50.020  1.00  0.00     0.271 C 
HETATM    2  N   UNL     1      24.729  46.105  49.815  1.00  0.00    -0.324 N 
HETATM    3  O   UNL     1      25.951  47.852  50.653  1.00  0.00    -0.266 OA
ENDROOT
BRANCH   2   4
HETATM    4  C   UNL     1      25.513  45.103  50.580  1.00  0.00     0.220 C 
BRANCH   4   5
HETATM    5  C   UNL     1      25.295  45.133  52.125  1.00  0.00     0.245 C 
HETATM    6  N   UNL     1      26.255  45.783  52.866  1.00  0.00    -0.357 N 
HETATM    7  H   UNL     1      26.848  46.436  52.354  1.00  0.00     0.162 HD
HETATM    8  O   UNL     1      24.268  44.688  52.641  1.00  0.00    -0.271 OA
BRANCH   6   9
HETATM    9  C   UNL     1      26.142  45.999  54.297  1.00  0.00     0.154 C 
BRANCH   9  10
HETATM   10  C   UNL     1      27.268  45.360  55.114  1.00  0.00     0.139 C 
HETATM   11  O   UNL     1      27.796  44.189  54.457  1.00  0.00    -0.384 OA
HETATM   12  C   UNL     1      29.195  44.095  54.769  1.00  0.00     0.168 C 
HETATM   13  C   UNL     1      29.557  45.302  55.613  1.00  0.00     0.029 C 
HETATM   14  C   UNL     1      28.463  46.284  55.276  1.00  0.00     0.035 C 
ENDBRANCH   9  10
ENDBRANCH   6   9
ENDBRANCH   4   5
BRANCH   4  15
HETATM   15  C   UNL     1      25.413  43.678  50.042  1.00  0.00     0.014 A 
HETATM   16  S   UNL     1      26.755  42.906  49.282  1.00  0.00    -0.104 SA
HETATM   17  C   UNL     1      25.897  41.451  49.053  1.00  0.00     0.050 A 
HETATM   18  C   UNL     1      24.627  41.515  49.573  1.00  0.00     0.008 A 
HETATM   19  C   UNL     1      24.351  42.790  50.145  1.00  0.00     0.017 A 
ENDBRANCH   4  15
ENDBRANCH   2   4
BRANCH   2  20
HETATM   20  C   UNL     1      24.250  45.647  48.508  1.00  0.00     0.173 C 
BRANCH  20  21
HETATM   21  C   UNL     1      22.746  45.618  48.431  1.00  0.00     0.000 A 
HETATM   22  S   UNL     1      21.985  46.384  47.091  1.00  0.00    -0.105 SA
HETATM   23  C   UNL     1      20.424  45.973  47.649  1.00  0.00     0.050 A 
HETATM   24  C   UNL     1      20.468  45.260  48.824  1.00  0.00     0.008 A 
HETATM   25  C   UNL     1      21.805  45.047  49.268  1.00  0.00     0.017 A 
ENDBRANCH  20  21
ENDBRANCH   2  20
BRANCH   1  26
HETATM   26  C   UNL     1      24.043  48.420  49.435  1.00  0.00     0.101 A 
HETATM   27  N   UNL     1      22.768  48.690  49.880  1.00  0.00    -0.351 N 
HETATM   28  C   UNL     1      22.169  49.668  49.115  1.00  0.00     0.043 A 
HETATM   29  H   UNL     1      22.341  48.255  50.687  1.00  0.00     0.166 HD
HETATM   30  C   UNL     1      23.113  50.058  48.180  1.00  0.00     0.033 A 
HETATM   31  C   UNL     1      24.284  49.296  48.391  1.00  0.00     0.037 A 
BRANCH  28  32
HETATM   32  C   UNL     1      20.809  50.163  49.358  1.00  0.00    -0.009 A 
HETATM   33  C   UNL     1      19.863  49.347  49.995  1.00  0.00     0.013 A 
HETATM   34  C   UNL     1      18.566  49.807  50.237  1.00  0.00     0.001 A 
HETATM   35  C   UNL     1      18.197  51.092  49.846  1.00  0.00     0.000 A 
HETATM   36  C   UNL     1      19.126  51.916  49.215  1.00  0.00     0.001 A 
HETATM   37  C   UNL     1      20.423  51.454  48.973  1.00  0.00     0.013 A 
ENDBRANCH  28  32
ENDBRANCH   1  26
TORSDOF 9
ENDMDL
MODEL 5
REMARK VINA RESULT:      -8.8      1.630      2.434
REMARK  9 active torsions:
REMARK  status: ('A' for Active; 'I' for Inactive)
REMARK    1  A    between atoms: C_4  and  C_5 
REMARK    2  A    between atoms: C_8  and  C_9 
REMARK       I    between atoms: C_9  and  N_10 
REMARK    3  A    between atoms: N_10  and  C_11 
REMARK    4  A    between atoms: N_10  and  C_26 
REMARK    5  A    between atoms: C_11  and  C_12 
REMARK    6  A    between atoms: C_11  and  C_21 
REMARK       I    between atoms: C_12  and  N_13 
REMARK    7  A    between atoms: N_13  and  C_14 
REMARK    8  A    between atoms: C_14  and  C_15 
REMARK    9  A    between atoms: C_26  and  C_27 
ROOT
HETATM    1  C   UNL     1      26.589  45.082  52.209  1.00  0.00     0.271 C 
HETATM    2  N   UNL     1      25.896  44.292  51.285  1.00  0.00    -0.324 N 
HETATM    3  O   UNL     1      26.182  46.205  52.512  1.00  0.00    -0.266 OA
ENDROOT
BRANCH   2   4
HETATM    4  C   UNL     1      24.816  44.899  50.467  1.00  0.00     0.220 C 
BRANCH   4   5
HETATM    5  C   UNL     1      25.206  46.222  49.735  1.00  0.00     0.245 C 
HETATM    6  N   UNL     1      24.296  47.252  49.807  1.00  0.00    -0.357 N 
HETATM    7  H   UNL     1      23.607  47.187  50.557  1.00  0.00     0.162 HD
HETATM    8  O   UNL     1      26.311  46.368  49.210  1.00  0.00    -0.271 OA
BRANCH   6   9
HETATM    9  C   UNL     1      24.556  48.579  49.280  1.00  0.00     0.154 C 
BRANCH   9  10
HETATM   10  C   UNL     1      23.338  49.243  48.634  1.00  0.00     0.139 C 
HETATM   11  O   UNL     1      22.106  48.709  49.163  1.00  0.00    -0.384 OA
HETATM   12  C   UNL     1      21.127  49.760  49.162  1.00  0.00     0.168 C 
HETATM   13  C   UNL     1      21.810  51.019  48.663  1.00  0.00     0.029 C 
HETATM   14  C   UNL     1      23.267  50.732  48.921  1.00  0.00     0.035 C 
ENDBRANCH   9  10
ENDBRANCH   6   9
ENDBRANCH   4   5
BRANCH   4  15
HETATM   15  C   UNL     1      24.127  43.929  49.511  1.00  0.00     0.014 A 
HETATM   16  S   UNL     1      22.877  42.870  50.049  1.00  0.00    -0.104 SA
HETATM   17  C   UNL     1      22.629  42.231  48.487  1.00  0.00     0.050 A 
HETATM   18  C   UNL     1      23.441  42.827  47.553  1.00  0.00     0.008 A 
HETATM   19  C   UNL     1      24.296  43.804  48.138  1.00  0.00     0.017 A 
ENDBRANCH   4  15
ENDBRANCH   2   4
BRANCH   2  20
HETATM   20  C   UNL     1      25.746  42.856  51.537  1.00  0.00     0.173 C 
BRANCH  20  21
HETATM   21  C   UNL     1      26.410  42.020  50.475  1.00  0.00     0.000 A 
HETATM   22  S   UNL     1      26.170  40.316  50.512  1.00  0.00    -0.105 SA
HETATM   23  C   UNL     1      27.143  40.074  49.130  1.00  0.00     0.050 A 
HETATM   24  C   UNL     1      27.639  41.257  48.635  1.00  0.00     0.008 A 
HETATM   25  C   UNL     1      27.209  42.377  49.404  1.00  0.00     0.017 A 
ENDBRANCH  20  21
ENDBRANCH   2  20
BRANCH   1  26
HETATM   26  C   UNL     1      27.776  44.530  52.828  1.00  0.00     0.101 A 
HETATM   27  N   UNL     1      28.251  44.834  54.084  1.00  0.00    -0.351 N 
HETATM   28  C   UNL     1      29.387  44.110  54.378  1.00  0.00     0.043 A 
HETATM   29  H   UNL     1      27.802  45.477  54.723  1.00  0.00     0.166 HD
HETATM   30  C   UNL     1      29.615  43.291  53.286  1.00  0.00     0.033 A 
HETATM   31  C   UNL     1      28.603  43.537  52.331  1.00  0.00     0.037 A 
BRANCH  28  32
HETATM   32  C   UNL     1      30.111  44.225  55.649  1.00  0.00    -0.009 A 
HETATM   33  C   UNL     1      29.884  45.320  56.495  1.00  0.00     0.013 A 
HETATM   34  C   UNL     1      30.563  45.439  57.711  1.00  0.00     0.001 A 
HETATM   35  C   UNL     1      31.478  44.464  58.098  1.00  0.00     0.000 A 
HETATM   36  C   UNL     1      31.712  43.369  57.269  1.00  0.00     0.001 A 
HETATM   37  C   UNL     1      31.033  43.250  56.053  1.00  0.00     0.013 A 
ENDBRANCH  28  32
ENDBRANCH   1  26
TORSDOF 9
ENDMDL
MODEL 6
REMARK VINA RESULT:      -8.8      2.941      4.469
REMARK  9 active torsions:
REMARK  status: ('A' for Active; 'I' for Inactive)
REMARK    1  A    between atoms: C_4  and  C_5 
REMARK    2  A    between atoms: C_8  and  C_9 
REMARK       I    between atoms: C_9  and  N_10 
REMARK    3  A    between atoms: N_10  and  C_11 
REMARK    4  A    between atoms: N_10  and  C_26 
REMARK    5  A    between atoms: C_11  and  C_12 
REMARK    6  A    between atoms: C_11  and  C_21 
REMARK       I    between atoms: C_12  and  N_13 
REMARK    7  A    between atoms: N_13  and  C_14 
REMARK    8  A    between atoms: C_14  and  C_15 
REMARK    9  A    between atoms: C_26  and  C_27 
ROOT
HETATM    1  C   UNL     1      26.590  41.651  51.314  1.00  0.00     0.271 C 
HETATM    2  N   UNL     1      25.876  42.645  50.636  1.00  0.00    -0.324 N 
HETATM    3  O   UNL     1      26.259  40.467  51.230  1.00  0.00    -0.266 OA
ENDROOT
BRANCH   2   4
HETATM    4  C   UNL     1      24.563  42.318  50.027  1.00  0.00     0.220 C 
BRANCH   4   5
HETATM    5  C   UNL     1      23.555  43.507  49.952  1.00  0.00     0.245 C 
HETATM    6  N   UNL     1      23.557  44.239  48.786  1.00  0.00    -0.357 N 
HETATM    7  H   UNL     1      23.976  43.784  47.974  1.00  0.00     0.162 HD
HETATM    8  O   UNL     1      22.732  43.715  50.846  1.00  0.00    -0.271 OA
BRANCH   6   9
HETATM    9  C   UNL     1      22.605  45.301  48.514  1.00  0.00     0.154 C 
BRANCH   9  10
HETATM   10  C   UNL     1      21.363  44.842  47.747  1.00  0.00     0.139 C 
HETATM   11  O   UNL     1      20.208  44.773  48.610  1.00  0.00    -0.384 OA
HETATM   12  C   UNL     1      19.048  45.100  47.828  1.00  0.00     0.168 C 
HETATM   13  C   UNL     1      19.521  45.446  46.429  1.00  0.00     0.029 C 
HETATM   14  C   UNL     1      20.967  45.814  46.649  1.00  0.00     0.035 C 
ENDBRANCH   9  10
ENDBRANCH   6   9
ENDBRANCH   4   5
BRANCH   4  15
HETATM   15  C   UNL     1      24.650  41.592  48.687  1.00  0.00     0.014 A 
HETATM   16  S   UNL     1      23.241  40.989  47.896  1.00  0.00    -0.104 SA
HETATM   17  C   UNL     1      24.131  40.427  46.554  1.00  0.00     0.050 A 
HETATM   18  C   UNL     1      25.469  40.718  46.667  1.00  0.00     0.008 A 
HETATM   19  C   UNL     1      25.766  41.391  47.886  1.00  0.00     0.017 A 
ENDBRANCH   4  15
ENDBRANCH   2   4
BRANCH   2  20
HETATM   20  C   UNL     1      26.607  43.733  49.978  1.00  0.00     0.173 C 
BRANCH  20  21
HETATM   21  C   UNL     1      26.366  45.063  50.643  1.00  0.00     0.000 A 
HETATM   22  S   UNL     1      26.547  46.489  49.698  1.00  0.00    -0.105 SA
HETATM   23  C   UNL     1      26.151  47.502  51.015  1.00  0.00     0.050 A 
HETATM   24  C   UNL     1      25.875  46.781  52.153  1.00  0.00     0.008 A 
HETATM   25  C   UNL     1      25.989  45.378  51.935  1.00  0.00     0.017 A 
ENDBRANCH  20  21
ENDBRANCH   2  20
BRANCH   1  26
HETATM   26  C   UNL     1      27.751  42.046  52.084  1.00  0.00     0.101 A 
HETATM   27  N   UNL     1      27.768  42.963  53.111  1.00  0.00    -0.351 N 
HETATM   28  C   UNL     1      29.031  43.086  53.651  1.00  0.00     0.043 A 
HETATM   29  H   UNL     1      26.952  43.455  53.450  1.00  0.00     0.166 HD
HETATM   30  C   UNL     1      29.830  42.185  52.969  1.00  0.00     0.033 A 
HETATM   31  C   UNL     1      29.031  41.525  52.008  1.00  0.00     0.037 A 
BRANCH  28  32
HETATM   32  C   UNL     1      29.349  43.989  54.763  1.00  0.00    -0.009 A 
HETATM   33  C   UNL     1      28.484  45.044  55.086  1.00  0.00     0.013 A 
HETATM   34  C   UNL     1      28.772  45.909  56.145  1.00  0.00     0.001 A 
HETATM   35  C   UNL     1      29.930  45.729  56.898  1.00  0.00     0.000 A 
HETATM   36  C   UNL     1      30.798  44.683  56.591  1.00  0.00     0.001 A 
HETATM   37  C   UNL     1      30.509  43.819  55.531  1.00  0.00     0.013 A 
ENDBRANCH  28  32
ENDBRANCH   1  26
TORSDOF 9
ENDMDL
MODEL 7
REMARK VINA RESULT:      -8.7      2.829      4.474
REMARK  9 active torsions:
REMARK  status: ('A' for Active; 'I' for Inactive)
REMARK    1  A    between atoms: C_4  and  C_5 
REMARK    2  A    between atoms: C_8  and  C_9 
REMARK       I    between atoms: C_9  and  N_10 
REMARK    3  A    between atoms: N_10  and  C_11 
REMARK    4  A    between atoms: N_10  and  C_26 
REMARK    5  A    between atoms: C_11  and  C_12 
REMARK    6  A    between atoms: C_11  and  C_21 
REMARK       I    between atoms: C_12  and  N_13 
REMARK    7  A    between atoms: N_13  and  C_14 
REMARK    8  A    between atoms: C_14  and  C_15 
REMARK    9  A    between atoms: C_26  and  C_27 
ROOT
HETATM    1  C   UNL     1      27.053  44.387  50.685  1.00  0.00     0.271 C 
HETATM    2  N   UNL     1      25.663  44.352  50.524  1.00  0.00    -0.324 N 
HETATM    3  O   UNL     1      27.768  44.977  49.873  1.00  0.00    -0.266 OA
ENDROOT
BRANCH   2   4
HETATM    4  C   UNL     1      25.063  44.795  49.241  1.00  0.00     0.220 C 
BRANCH   4   5
HETATM    5  C   UNL     1      24.112  43.758  48.564  1.00  0.00     0.245 C 
HETATM    6  N   UNL     1      23.972  43.857  47.198  1.00  0.00    -0.357 N 
HETATM    7  H   UNL     1      24.703  44.375  46.711  1.00  0.00     0.162 HD
HETATM    8  O   UNL     1      23.598  42.839  49.204  1.00  0.00    -0.271 OA
BRANCH   6   9
HETATM    9  C   UNL     1      23.218  42.902  46.407  1.00  0.00     0.154 C 
BRANCH   9  10
HETATM   10  C   UNL     1      21.816  43.381  46.021  1.00  0.00     0.139 C 
HETATM   11  O   UNL     1      20.949  43.449  47.173  1.00  0.00    -0.384 OA
HETATM   12  C   UNL     1      20.025  44.531  46.971  1.00  0.00     0.168 C 
HETATM   13  C   UNL     1      20.382  45.197  45.656  1.00  0.00     0.029 C 
HETATM   14  C   UNL     1      21.820  44.790  45.456  1.00  0.00     0.035 C 
ENDBRANCH   9  10
ENDBRANCH   6   9
ENDBRANCH   4   5
BRANCH   4  15
HETATM   15  C   UNL     1      24.417  46.177  49.289  1.00  0.00     0.014 A 
HETATM   16  S   UNL     1      25.368  47.611  49.410  1.00  0.00    -0.104 SA
HETATM   17  C   UNL     1      23.999  48.626  49.346  1.00  0.00     0.050 A 
HETATM   18  C   UNL     1      22.836  47.911  49.194  1.00  0.00     0.008 A 
HETATM   19  C   UNL     1      23.075  46.507  49.156  1.00  0.00     0.017 A 
ENDBRANCH   4  15
ENDBRANCH   2   4
BRANCH   2  20
HETATM   20  C   UNL     1      24.800  44.514  51.698  1.00  0.00     0.173 C 
BRANCH  20  21
HETATM   21  C   UNL     1      25.342  45.532  52.666  1.00  0.00     0.000 A 
HETATM   22  S   UNL     1      25.467  45.090  54.325  1.00  0.00    -0.105 SA
HETATM   23  C   UNL     1      26.100  46.616  54.760  1.00  0.00     0.050 A 
HETATM   24  C   UNL     1      26.227  47.449  53.674  1.00  0.00     0.008 A 
HETATM   25  C   UNL     1      25.800  46.821  52.468  1.00  0.00     0.017 A 
ENDBRANCH  20  21
ENDBRANCH   2  20
BRANCH   1  26
HETATM   26  C   UNL     1      27.624  43.746  51.851  1.00  0.00     0.101 A 
HETATM   27  N   UNL     1      28.397  44.356  52.814  1.00  0.00    -0.351 N 
HETATM   28  C   UNL     1      28.755  43.466  53.805  1.00  0.00     0.043 A 
HETATM   29  H   UNL     1      28.638  45.338  52.814  1.00  0.00     0.166 HD
HETATM   30  C   UNL     1      28.154  42.262  53.477  1.00  0.00     0.033 A 
HETATM   31  C   UNL     1      27.435  42.442  52.274  1.00  0.00     0.037 A 
BRANCH  28  32
HETATM   32  C   UNL     1      29.576  43.835  54.963  1.00  0.00    -0.009 A 
HETATM   33  C   UNL     1      29.370  45.060  55.614  1.00  0.00     0.013 A 
HETATM   34  C   UNL     1      30.142  45.423  56.721  1.00  0.00     0.001 A 
HETATM   35  C   UNL     1      31.131  44.564  57.193  1.00  0.00     0.000 A 
HETATM   36  C   UNL     1      31.347  43.343  56.559  1.00  0.00     0.001 A 
HETATM   37  C   UNL     1      30.575  42.981  55.451  1.00  0.00     0.013 A 
ENDBRANCH  28  32
ENDBRANCH   1  26
TORSDOF 9
ENDMDL
MODEL 8
REMARK VINA RESULT:      -8.6      3.230      6.409
REMARK  9 active torsions:
REMARK  status: ('A' for Active; 'I' for Inactive)
REMARK    1  A    between atoms: C_4  and  C_5 
REMARK    2  A    between atoms: C_8  and  C_9 
REMARK       I    between atoms: C_9  and  N_10 
REMARK    3  A    between atoms: N_10  and  C_11 
REMARK    4  A    between atoms: N_10  and  C_26 
REMARK    5  A    between atoms: C_11  and  C_12 
REMARK    6  A    between atoms: C_11  and  C_21 
REMARK       I    between atoms: C_12  and  N_13 
REMARK    7  A    between atoms: N_13  and  C_14 
REMARK    8  A    between atoms: C_14  and  C_15 
REMARK    9  A    between atoms: C_26  and  C_27 
ROOT
HETATM    1  C   UNL     1      26.896  42.562  50.031  1.00  0.00     0.271 C 
HETATM    2  N   UNL     1      25.605  43.093  49.936  1.00  0.00    -0.324 N 
HETATM    3  O   UNL     1      27.540  42.280  49.019  1.00  0.00    -0.266 OA
ENDROOT
BRANCH   2   4
HETATM    4  C   UNL     1      24.900  43.075  48.630  1.00  0.00     0.220 C 
BRANCH   4   5
HETATM    5  C   UNL     1      24.738  41.662  47.986  1.00  0.00     0.245 C 
HETATM    6  N   UNL     1      25.738  41.262  47.128  1.00  0.00    -0.357 N 
HETATM    7  H   UNL     1      26.624  41.762  47.212  1.00  0.00     0.162 HD
HETATM    8  O   UNL     1      23.820  40.906  48.309  1.00  0.00    -0.271 OA
BRANCH   6   9
HETATM    9  C   UNL     1      25.795  39.937  46.539  1.00  0.00     0.154 C 
BRANCH   9  10
HETATM   10  C   UNL     1      26.851  39.022  47.166  1.00  0.00     0.139 C 
HETATM   11  O   UNL     1      28.145  39.659  47.200  1.00  0.00    -0.384 OA
HETATM   12  C   UNL     1      28.840  39.194  48.368  1.00  0.00     0.168 C 
HETATM   13  C   UNL     1      27.902  38.270  49.120  1.00  0.00     0.029 C 
HETATM   14  C   UNL     1      26.545  38.691  48.616  1.00  0.00     0.035 C 
ENDBRANCH   9  10
ENDBRANCH   6   9
ENDBRANCH   4   5
BRANCH   4  15
HETATM   15  C   UNL     1      23.577  43.835  48.616  1.00  0.00     0.014 A 
HETATM   16  S   UNL     1      23.135  44.848  47.291  1.00  0.00    -0.104 SA
HETATM   17  C   UNL     1      21.624  45.234  47.981  1.00  0.00     0.050 A 
HETATM   18  C   UNL     1      21.423  44.585  49.174  1.00  0.00     0.008 A 
HETATM   19  C   UNL     1      22.539  43.778  49.536  1.00  0.00     0.017 A 
ENDBRANCH   4  15
ENDBRANCH   2   4
BRANCH   2  20
HETATM   20  C   UNL     1      25.207  44.178  50.838  1.00  0.00     0.173 C 
BRANCH  20  21
HETATM   21  C   UNL     1      25.708  45.519  50.370  1.00  0.00     0.000 A 
HETATM   22  S   UNL     1      24.691  46.889  50.592  1.00  0.00    -0.105 SA
HETATM   23  C   UNL     1      25.831  47.943  49.881  1.00  0.00     0.050 A 
HETATM   24  C   UNL     1      26.970  47.280  49.487  1.00  0.00     0.008 A 
HETATM   25  C   UNL     1      26.902  45.887  49.778  1.00  0.00     0.017 A 
ENDBRANCH  20  21
ENDBRANCH   2  20
BRANCH   1  26
HETATM   26  C   UNL     1      27.470  42.388  51.349  1.00  0.00     0.101 A 
HETATM   27  N   UNL     1      28.084  43.366  52.101  1.00  0.00    -0.351 N 
HETATM   28  C   UNL     1      28.494  42.874  53.322  1.00  0.00     0.043 A 
HETATM   29  H   UNL     1      28.187  44.329  51.810  1.00  0.00     0.166 HD
HETATM   30  C   UNL     1      28.089  41.550  53.360  1.00  0.00     0.033 A 
HETATM   31  C   UNL     1      27.436  41.254  52.142  1.00  0.00     0.037 A 
BRANCH  28  32
HETATM   32  C   UNL     1      29.176  43.690  54.333  1.00  0.00    -0.009 A 
HETATM   33  C   UNL     1      28.652  44.936  54.706  1.00  0.00     0.013 A 
HETATM   34  C   UNL     1      29.289  45.722  55.670  1.00  0.00     0.001 A 
HETATM   35  C   UNL     1      30.458  45.270  56.277  1.00  0.00     0.000 A 
HETATM   36  C   UNL     1      30.989  44.034  55.919  1.00  0.00     0.001 A 
HETATM   37  C   UNL     1      30.352  43.249  54.954  1.00  0.00     0.013 A 
ENDBRANCH  28  32
ENDBRANCH   1  26
TORSDOF 9
ENDMDL
MODEL 9
REMARK VINA RESULT:      -8.6      1.947      4.329
REMARK  9 active torsions:
REMARK  status: ('A' for Active; 'I' for Inactive)
REMARK    1  A    between atoms: C_4  and  C_5 
REMARK    2  A    between atoms: C_8  and  C_9 
REMARK       I    between atoms: C_9  and  N_10 
REMARK    3  A    between atoms: N_10  and  C_11 
REMARK    4  A    between atoms: N_10  and  C_26 
REMARK    5  A    between atoms: C_11  and  C_12 
REMARK    6  A    between atoms: C_11  and  C_21 
REMARK       I    between atoms: C_12  and  N_13 
REMARK    7  A    between atoms: N_13  and  C_14 
REMARK    8  A    between atoms: C_14  and  C_15 
REMARK    9  A    between atoms: C_26  and  C_27 
ROOT
HETATM    1  C   UNL     1      25.956  46.747  52.836  1.00  0.00     0.271 C 
HETATM    2  N   UNL     1      26.072  45.563  52.099  1.00  0.00    -0.324 N 
HETATM    3  O   UNL     1      25.265  47.681  52.425  1.00  0.00    -0.266 OA
ENDROOT
BRANCH   2   4
HETATM    4  C   UNL     1      25.583  45.520  50.699  1.00  0.00     0.220 C 
BRANCH   4   5
HETATM    5  C   UNL     1      24.301  44.659  50.473  1.00  0.00     0.245 C 
HETATM    6  N   UNL     1      24.252  43.927  49.308  1.00  0.00    -0.357 N 
HETATM    7  H   UNL     1      25.148  43.763  48.846  1.00  0.00     0.162 HD
HETATM    8  O   UNL     1      23.428  44.560  51.337  1.00  0.00    -0.271 OA
BRANCH   6   9
HETATM    9  C   UNL     1      23.186  42.990  49.003  1.00  0.00     0.154 C 
BRANCH   9  10
HETATM   10  C   UNL     1      23.671  41.565  48.722  1.00  0.00     0.139 C 
HETATM   11  O   UNL     1      23.362  41.162  47.372  1.00  0.00    -0.384 OA
HETATM   12  C   UNL     1      24.400  40.276  46.923  1.00  0.00     0.168 C 
HETATM   13  C   UNL     1      25.429  40.177  48.033  1.00  0.00     0.029 C 
HETATM   14  C   UNL     1      25.180  41.433  48.829  1.00  0.00     0.035 C 
ENDBRANCH   9  10
ENDBRANCH   6   9
ENDBRANCH   4   5
BRANCH   4  15
HETATM   15  C   UNL     1      25.445  46.888  50.035  1.00  0.00     0.014 A 
HETATM   16  S   UNL     1      26.829  47.798  49.553  1.00  0.00    -0.104 SA
HETATM   17  C   UNL     1      25.879  49.055  48.900  1.00  0.00     0.050 A 
HETATM   18  C   UNL     1      24.535  48.789  48.999  1.00  0.00     0.008 A 
HETATM   19  C   UNL     1      24.286  47.544  49.645  1.00  0.00     0.017 A 
ENDBRANCH   4  15
ENDBRANCH   2   4
BRANCH   2  20
HETATM   20  C   UNL     1      26.049  44.276  52.800  1.00  0.00     0.173 C 
BRANCH  20  21
HETATM   21  C   UNL     1      27.404  43.617  52.823  1.00  0.00     0.000 A 
HETATM   22  S   UNL     1      27.658  42.319  53.924  1.00  0.00    -0.105 SA
HETATM   23  C   UNL     1      29.275  42.108  53.417  1.00  0.00     0.050 A 
HETATM   24  C   UNL     1      29.623  42.993  52.424  1.00  0.00     0.008 A 
HETATM   25  C   UNL     1      28.543  43.855  52.076  1.00  0.00     0.017 A 
ENDBRANCH  20  21
ENDBRANCH   2  20
BRANCH   1  26
HETATM   26  C   UNL     1      26.637  46.830  54.111  1.00  0.00     0.101 A 
HETATM   27  N   UNL     1      27.685  46.038  54.523  1.00  0.00    -0.351 N 
HETATM   28  C   UNL     1      28.120  46.398  55.781  1.00  0.00     0.043 A 
HETATM   29  H   UNL     1      28.107  45.311  53.959  1.00  0.00     0.166 HD
HETATM   30  C   UNL     1      27.346  47.481  56.160  1.00  0.00     0.033 A 
HETATM   31  C   UNL     1      26.437  47.762  55.115  1.00  0.00     0.037 A 
BRANCH  28  32
HETATM   32  C   UNL     1      29.228  45.730  56.474  1.00  0.00    -0.009 A 
HETATM   33  C   UNL     1      29.497  46.020  57.819  1.00  0.00     0.013 A 
HETATM   34  C   UNL     1      30.546  45.389  58.492  1.00  0.00     0.001 A 
HETATM   35  C   UNL     1      31.340  44.456  57.829  1.00  0.00     0.000 A 
HETATM   36  C   UNL     1      31.083  44.155  56.493  1.00  0.00     0.001 A 
HETATM   37  C   UNL     1      30.034  44.788  55.820  1.00  0.00     0.013 A 
ENDBRANCH  28  32
ENDBRANCH   1  26
TORSDOF 9
ENDMDL
MODEL 10
REMARK VINA RESULT:      -8.4      6.212     10.354
REMARK  9 active torsions:
REMARK  status: ('A' for Active; 'I' for Inactive)
REMARK    1  A    between atoms: C_4  and  C_5 
REMARK    2  A    between atoms: C_8  and  C_9 
REMARK       I    between atoms: C_9  and  N_10 
REMARK    3  A    between atoms: N_10  and  C_11 
REMARK    4  A    between atoms: N_10  and  C_26 
REMARK    5  A    between atoms: C_11  and  C_12 
REMARK    6  A    between atoms: C_11  and  C_21 
REMARK       I    between atoms: C_12  and  N_13 
REMARK    7  A    between atoms: N_13  and  C_14 
REMARK    8  A    between atoms: C_14  and  C_15 
REMARK    9  A    between atoms: C_26  and  C_27 
ROOT
HETATM    1  C   UNL     1      19.718  50.255  49.592  1.00  0.00     0.271 C 
HETATM    2  N   UNL     1      18.739  50.317  48.594  1.00  0.00    -0.324 N 
HETATM    3  O   UNL     1      19.405  50.135  50.777  1.00  0.00    -0.266 OA
ENDROOT
BRANCH   2   4
HETATM    4  C   UNL     1      17.317  50.506  48.974  1.00  0.00     0.220 C 
BRANCH   4   5
HETATM    5  C   UNL     1      16.950  51.939  49.471  1.00  0.00     0.245 C 
HETATM    6  N   UNL     1      15.664  52.118  49.928  1.00  0.00    -0.357 N 
HETATM    7  H   UNL     1      15.160  51.270  50.188  1.00  0.00     0.162 HD
HETATM    8  O   UNL     1      17.796  52.833  49.546  1.00  0.00    -0.271 OA
BRANCH   6   9
HETATM    9  C   UNL     1      15.201  53.356  50.529  1.00  0.00     0.154 C 
BRANCH   9  10
HETATM   10  C   UNL     1      13.699  53.605  50.363  1.00  0.00     0.139 C 
HETATM   11  O   UNL     1      13.186  54.443  51.419  1.00  0.00    -0.384 OA
HETATM   12  C   UNL     1      12.118  55.237  50.878  1.00  0.00     0.168 C 
HETATM   13  C   UNL     1      12.009  54.913  49.401  1.00  0.00     0.029 C 
HETATM   14  C   UNL     1      13.373  54.354  49.082  1.00  0.00     0.035 C 
ENDBRANCH   9  10
ENDBRANCH   6   9
ENDBRANCH   4   5
BRANCH   4  15
HETATM   15  C   UNL     1      16.314  50.017  47.932  1.00  0.00     0.014 A 
HETATM   16  S   UNL     1      16.058  50.875  46.458  1.00  0.00    -0.104 SA
HETATM   17  C   UNL     1      14.933  49.727  45.887  1.00  0.00     0.050 A 
HETATM   18  C   UNL     1      14.771  48.684  46.766  1.00  0.00     0.008 A 
HETATM   19  C   UNL     1      15.567  48.847  47.936  1.00  0.00     0.017 A 
ENDBRANCH   4  15
ENDBRANCH   2   4
BRANCH   2  20
HETATM   20  C   UNL     1      18.951  49.600  47.333  1.00  0.00     0.173 C 
BRANCH  20  21
HETATM   21  C   UNL     1      19.525  48.224  47.551  1.00  0.00     0.000 A 
HETATM   22  S   UNL     1      18.704  47.162  48.627  1.00  0.00    -0.105 SA
HETATM   23  C   UNL     1      19.844  45.914  48.384  1.00  0.00     0.050 A 
HETATM   24  C   UNL     1      20.828  46.282  47.497  1.00  0.00     0.008 A 
HETATM   25  C   UNL     1      20.638  47.608  47.011  1.00  0.00     0.017 A 
ENDBRANCH  20  21
ENDBRANCH   2  20
BRANCH   1  26
HETATM   26  C   UNL     1      21.109  50.296  49.190  1.00  0.00     0.101 A 
HETATM   27  N   UNL     1      22.089  49.407  49.573  1.00  0.00    -0.351 N 
HETATM   28  C   UNL     1      23.299  49.716  48.988  1.00  0.00     0.043 A 
HETATM   29  H   UNL     1      21.932  48.609  50.174  1.00  0.00     0.166 HD
HETATM   30  C   UNL     1      23.066  50.813  48.177  1.00  0.00     0.033 A 
HETATM   31  C   UNL     1      21.701  51.162  48.287  1.00  0.00     0.037 A 
BRANCH  28  32
HETATM   32  C   UNL     1      24.524  48.939  49.211  1.00  0.00    -0.009 A 
HETATM   33  C   UNL     1      24.461  47.677  49.818  1.00  0.00     0.013 A 
HETATM   34  C   UNL     1      25.619  46.925  50.032  1.00  0.00     0.001 A 
HETATM   35  C   UNL     1      26.858  47.425  49.640  1.00  0.00     0.000 A 
HETATM   36  C   UNL     1      26.937  48.677  49.033  1.00  0.00     0.001 A 
HETATM   37  C   UNL     1      25.778  49.428  48.820  1.00  0.00     0.013 A 
ENDBRANCH  28  32
ENDBRANCH   1  26
TORSDOF 9
ENDMDL
