MODEL 1
REMARK VINA RESULT:     -10.6      0.000      0.000
REMARK  7 active torsions:
REMARK  status: ('A' for Active; 'I' for Inactive)
REMARK    1  A    between atoms: C_5  and  C_6 
REMARK    2  A    between atoms: C_6  and  N_7 
REMARK       I    between atoms: N_7  and  C_8 
REMARK    3  A    between atoms: C_8  and  C_9 
REMARK    4  A    between atoms: C_14  and  C_15 
REMARK    5  A    between atoms: C_15  and  S_16 
REMARK    6  A    between atoms: S_16  and  C_17 
REMARK    7  A    between atoms: C_17  and  C_18 
ROOT
HETATM    1  C   UNL     1      24.679  48.535  49.058  1.00  0.00     0.034 A 
HETATM    2  C   UNL     1      23.888  47.438  49.412  1.00  0.00     0.048 A 
HETATM    3  C   UNL     1      24.486  46.313  49.974  1.00  0.00     0.057 A 
HETATM    4  C   UNL     1      25.878  46.255  50.180  1.00  0.00     0.036 A 
HETATM    5  N   UNL     1      26.489  45.082  50.660  1.00  0.00    -0.277 NA
HETATM    6  C   UNL     1      25.616  44.250  51.538  1.00  0.00     0.162 C 
HETATM    7  C   UNL     1      24.198  44.104  50.949  1.00  0.00     0.240 C 
HETATM    8  O   UNL     1      23.503  43.101  51.098  1.00  0.00    -0.271 OA
HETATM    9  N   UNL     1      23.690  45.213  50.315  1.00  0.00    -0.324 N 
HETATM   10  C   UNL     1      26.664  47.328  49.750  1.00  0.00     0.027 A 
HETATM   11  C   UNL     1      26.069  48.473  49.208  1.00  0.00     0.019 A 
HETATM   12  H   UNL     1      27.421  45.229  51.035  1.00  0.00     0.128 HD
HETATM   13  H   UNL     1      22.723  45.162  50.022  1.00  0.00     0.169 HD
ENDROOT
BRANCH   1  14
HETATM   14  C   UNL     1      23.997  49.733  48.501  1.00  0.00     0.252 C 
HETATM   15  N   UNL     1      22.953  50.238  49.240  1.00  0.00    -0.353 N 
HETATM   16  H   UNL     1      22.658  49.790  50.096  1.00  0.00     0.163 HD
HETATM   17  O   UNL     1      24.348  50.183  47.417  1.00  0.00    -0.268 OA
BRANCH  15  18
HETATM   18  C   UNL     1      22.167  51.360  48.772  1.00  0.00     0.161 C 
BRANCH  18  19
HETATM   19  C   UNL     1      20.696  51.031  48.717  1.00  0.00    -0.041 A 
HETATM   20  C   UNL     1      19.743  52.054  48.643  1.00  0.00     0.009 A 
HETATM   21  C   UNL     1      18.381  51.756  48.537  1.00  0.00     0.007 A 
HETATM   22  C   UNL     1      17.946  50.428  48.501  1.00  0.00    -0.062 A 
HETATM   23  C   UNL     1      16.491  50.093  48.361  1.00  0.00     0.048 C 
HETATM   24  C   UNL     1      18.895  49.401  48.564  1.00  0.00     0.007 A 
HETATM   25  C   UNL     1      20.256  49.700  48.664  1.00  0.00     0.009 A 
ENDBRANCH  18  19
ENDBRANCH  15  18
ENDBRANCH   1  14
BRANCH   6  26
HETATM   26  C   UNL     1      25.555  44.889  52.942  1.00  0.00     0.103 C 
BRANCH  26  27
HETATM   27  S   UNL     1      26.481  43.977  54.222  1.00  0.00    -0.162 SA
BRANCH  27  28
HETATM   28  C   UNL     1      28.164  44.292  53.604  1.00  0.00     0.114 C 
BRANCH  28  29
HETATM   29  C   UNL     1      29.170  44.355  54.725  1.00  0.00    -0.027 A 
HETATM   30  C   UNL     1      29.303  45.474  55.563  1.00  0.00     0.041 A 
HETATM   31 CL   UNL     1      28.323  46.886  55.371  1.00  0.00    -0.084 Cl
HETATM   32  C   UNL     1      30.251  45.484  56.592  1.00  0.00     0.024 A 
HETATM   33  C   UNL     1      31.073  44.377  56.801  1.00  0.00     0.002 A 
HETATM   34  C   UNL     1      30.944  43.256  55.987  1.00  0.00     0.001 A 
HETATM   35  C   UNL     1      30.000  43.242  54.959  1.00  0.00     0.009 A 
ENDBRANCH  28  29
ENDBRANCH  27  28
ENDBRANCH  26  27
ENDBRANCH   6  26
TORSDOF 7
ENDMDL
MODEL 2
REMARK VINA RESULT:     -10.3      1.867      2.449
REMARK  7 active torsions:
REMARK  status: ('A' for Active; 'I' for Inactive)
REMARK    1  A    between atoms: C_5  and  C_6 
REMARK    2  A    between atoms: C_6  and  N_7 
REMARK       I    between atoms: N_7  and  C_8 
REMARK    3  A    between atoms: C_8  and  C_9 
REMARK    4  A    between atoms: C_14  and  C_15 
REMARK    5  A    between atoms: C_15  and  S_16 
REMARK    6  A    between atoms: S_16  and  C_17 
REMARK    7  A    between atoms: C_17  and  C_18 
ROOT
HETATM    1  C   UNL     1      24.458  46.886  50.159  1.00  0.00     0.034 A 
HETATM    2  C   UNL     1      24.990  46.925  51.452  1.00  0.00     0.048 A 
HETATM    3  C   UNL     1      25.181  45.735  52.152  1.00  0.00     0.057 A 
HETATM    4  C   UNL     1      24.836  44.493  51.585  1.00  0.00     0.036 A 
HETATM    5  N   UNL     1      24.942  43.304  52.329  1.00  0.00    -0.277 NA
HETATM    6  C   UNL     1      26.011  43.326  53.370  1.00  0.00     0.162 C 
HETATM    7  C   UNL     1      25.996  44.646  54.167  1.00  0.00     0.240 C 
HETATM    8  O   UNL     1      26.311  44.724  55.353  1.00  0.00    -0.271 OA
HETATM    9  N   UNL     1      25.703  45.782  53.450  1.00  0.00    -0.324 N 
HETATM   10  C   UNL     1      24.234  44.477  50.323  1.00  0.00     0.027 A 
HETATM   11  C   UNL     1      24.062  45.665  49.602  1.00  0.00     0.019 A 
HETATM   12  H   UNL     1      24.945  42.463  51.760  1.00  0.00     0.128 HD
HETATM   13  H   UNL     1      25.796  46.662  53.940  1.00  0.00     0.169 HD
ENDROOT
BRANCH   1  14
HETATM   14  C   UNL     1      24.309  48.173  49.430  1.00  0.00     0.252 C 
HETATM   15  N   UNL     1      23.089  48.399  48.837  1.00  0.00    -0.353 N 
HETATM   16  H   UNL     1      22.356  47.705  48.876  1.00  0.00     0.163 HD
HETATM   17  O   UNL     1      25.262  48.937  49.347  1.00  0.00    -0.268 OA
BRANCH  15  18
HETATM   18  C   UNL     1      22.842  49.583  48.042  1.00  0.00     0.161 C 
BRANCH  18  19
HETATM   19  C   UNL     1      21.563  50.274  48.445  1.00  0.00    -0.041 A 
HETATM   20  C   UNL     1      21.366  50.684  49.769  1.00  0.00     0.009 A 
HETATM   21  C   UNL     1      20.207  51.374  50.138  1.00  0.00     0.007 A 
HETATM   22  C   UNL     1      19.223  51.667  49.189  1.00  0.00    -0.062 A 
HETATM   23  C   UNL     1      17.987  52.429  49.566  1.00  0.00     0.048 C 
HETATM   24  C   UNL     1      19.420  51.269  47.862  1.00  0.00     0.007 A 
HETATM   25  C   UNL     1      20.581  50.585  47.493  1.00  0.00     0.009 A 
ENDBRANCH  18  19
ENDBRANCH  15  18
ENDBRANCH   1  14
BRANCH   6  26
HETATM   26  C   UNL     1      27.381  43.119  52.691  1.00  0.00     0.103 C 
BRANCH  26  27
HETATM   27  S   UNL     1      28.655  42.395  53.778  1.00  0.00    -0.162 SA
BRANCH  27  28
HETATM   28  C   UNL     1      29.770  43.831  53.868  1.00  0.00     0.114 C 
BRANCH  28  29
HETATM   29  C   UNL     1      30.226  44.101  55.279  1.00  0.00    -0.027 A 
HETATM   30  C   UNL     1      29.906  45.282  55.968  1.00  0.00     0.041 A 
HETATM   31 CL   UNL     1      28.963  46.539  55.245  1.00  0.00    -0.084 Cl
HETATM   32  C   UNL     1      30.351  45.485  57.279  1.00  0.00     0.024 A 
HETATM   33  C   UNL     1      31.114  44.511  57.920  1.00  0.00     0.002 A 
HETATM   34  C   UNL     1      31.430  43.329  57.255  1.00  0.00     0.001 A 
HETATM   35  C   UNL     1      30.988  43.123  55.947  1.00  0.00     0.009 A 
ENDBRANCH  28  29
ENDBRANCH  27  28
ENDBRANCH  26  27
ENDBRANCH   6  26
TORSDOF 7
ENDMDL
MODEL 3
REMARK VINA RESULT:     -10.0      3.969      9.859
REMARK  7 active torsions:
REMARK  status: ('A' for Active; 'I' for Inactive)
REMARK    1  A    between atoms: C_5  and  C_6 
REMARK    2  A    between atoms: C_6  and  N_7 
REMARK       I    between atoms: N_7  and  C_8 
REMARK    3  A    between atoms: C_8  and  C_9 
REMARK    4  A    between atoms: C_14  and  C_15 
REMARK    5  A    between atoms: C_15  and  S_16 
REMARK    6  A    between atoms: S_16  and  C_17 
REMARK    7  A    between atoms: C_17  and  C_18 
ROOT
HETATM    1  C   UNL     1      26.445  43.105  51.733  1.00  0.00     0.034 A 
HETATM    2  C   UNL     1      25.811  42.471  50.660  1.00  0.00     0.048 A 
HETATM    3  C   UNL     1      24.589  42.956  50.200  1.00  0.00     0.057 A 
HETATM    4  C   UNL     1      23.972  44.068  50.806  1.00  0.00     0.036 A 
HETATM    5  N   UNL     1      22.695  44.496  50.401  1.00  0.00    -0.277 NA
HETATM    6  C   UNL     1      22.378  44.213  48.971  1.00  0.00     0.162 C 
HETATM    7  C   UNL     1      22.789  42.780  48.574  1.00  0.00     0.240 C 
HETATM    8  O   UNL     1      22.184  42.108  47.742  1.00  0.00    -0.271 OA
HETATM    9  N   UNL     1      23.954  42.309  49.133  1.00  0.00    -0.324 N 
HETATM   10  C   UNL     1      24.580  44.643  51.926  1.00  0.00     0.027 A 
HETATM   11  C   UNL     1      25.821  44.179  52.379  1.00  0.00     0.019 A 
HETATM   12  H   UNL     1      22.470  45.444  50.688  1.00  0.00     0.128 HD
HETATM   13  H   UNL     1      24.286  41.415  48.797  1.00  0.00     0.169 HD
ENDROOT
BRANCH   1  14
HETATM   14  C   UNL     1      27.768  42.584  52.165  1.00  0.00     0.252 C 
HETATM   15  N   UNL     1      28.381  43.258  53.196  1.00  0.00    -0.353 N 
HETATM   16  H   UNL     1      27.958  44.079  53.604  1.00  0.00     0.163 HD
HETATM   17  O   UNL     1      28.269  41.634  51.576  1.00  0.00    -0.268 OA
BRANCH  15  18
HETATM   18  C   UNL     1      29.701  42.889  53.662  1.00  0.00     0.161 C 
BRANCH  18  19
HETATM   19  C   UNL     1      30.072  43.618  54.930  1.00  0.00    -0.041 A 
HETATM   20  C   UNL     1      29.437  44.819  55.270  1.00  0.00     0.009 A 
HETATM   21  C   UNL     1      29.737  45.471  56.470  1.00  0.00     0.007 A 
HETATM   22  C   UNL     1      30.677  44.932  57.354  1.00  0.00    -0.062 A 
HETATM   23  C   UNL     1      30.989  45.608  58.657  1.00  0.00     0.048 C 
HETATM   24  C   UNL     1      31.307  43.727  57.025  1.00  0.00     0.007 A 
HETATM   25  C   UNL     1      31.002  43.073  55.829  1.00  0.00     0.009 A 
ENDBRANCH  18  19
ENDBRANCH  15  18
ENDBRANCH   1  14
BRANCH   6  26
HETATM   26  C   UNL     1      23.096  45.249  48.080  1.00  0.00     0.103 C 
BRANCH  26  27
HETATM   27  S   UNL     1      22.120  46.751  47.740  1.00  0.00    -0.162 SA
BRANCH  27  28
HETATM   28  C   UNL     1      22.618  47.723  49.197  1.00  0.00     0.114 C 
BRANCH  28  29
HETATM   29  C   UNL     1      24.016  48.269  49.055  1.00  0.00    -0.027 A 
HETATM   30  C   UNL     1      24.304  49.441  48.337  1.00  0.00     0.041 A 
HETATM   31 CL   UNL     1      23.071  50.355  47.540  1.00  0.00    -0.084 Cl
HETATM   32  C   UNL     1      25.618  49.909  48.235  1.00  0.00     0.024 A 
HETATM   33  C   UNL     1      26.659  49.220  48.855  1.00  0.00     0.002 A 
HETATM   34  C   UNL     1      26.388  48.064  49.582  1.00  0.00     0.001 A 
HETATM   35  C   UNL     1      25.079  47.593  49.684  1.00  0.00     0.009 A 
ENDBRANCH  28  29
ENDBRANCH  27  28
ENDBRANCH  26  27
ENDBRANCH   6  26
TORSDOF 7
ENDMDL
MODEL 4
REMARK VINA RESULT:      -9.8      4.938      9.137
REMARK  7 active torsions:
REMARK  status: ('A' for Active; 'I' for Inactive)
REMARK    1  A    between atoms: C_5  and  C_6 
REMARK    2  A    between atoms: C_6  and  N_7 
REMARK       I    between atoms: N_7  and  C_8 
REMARK    3  A    between atoms: C_8  and  C_9 
REMARK    4  A    between atoms: C_14  and  C_15 
REMARK    5  A    between atoms: C_15  and  S_16 
REMARK    6  A    between atoms: S_16  and  C_17 
REMARK    7  A    between atoms: C_17  and  C_18 
ROOT
HETATM    1  C   UNL     1      25.916  45.006  52.304  1.00  0.00     0.034 A 
HETATM    2  C   UNL     1      24.574  44.941  51.916  1.00  0.00     0.048 A 
HETATM    3  C   UNL     1      24.252  44.534  50.624  1.00  0.00     0.057 A 
HETATM    4  C   UNL     1      25.255  44.197  49.694  1.00  0.00     0.036 A 
HETATM    5  N   UNL     1      24.930  43.877  48.364  1.00  0.00    -0.277 NA
HETATM    6  C   UNL     1      23.582  43.261  48.193  1.00  0.00     0.162 C 
HETATM    7  C   UNL     1      22.510  44.011  49.009  1.00  0.00     0.240 C 
HETATM    8  O   UNL     1      21.339  44.121  48.650  1.00  0.00    -0.271 OA
HETATM    9  N   UNL     1      22.907  44.483  50.238  1.00  0.00    -0.324 N 
HETATM   10  C   UNL     1      26.593  44.341  50.073  1.00  0.00     0.027 A 
HETATM   11  C   UNL     1      26.927  44.724  51.378  1.00  0.00     0.019 A 
HETATM   12  H   UNL     1      25.668  43.387  47.868  1.00  0.00     0.128 HD
HETATM   13  H   UNL     1      22.184  44.880  50.824  1.00  0.00     0.169 HD
ENDROOT
BRANCH   1  14
HETATM   14  C   UNL     1      26.217  45.404  53.704  1.00  0.00     0.252 C 
HETATM   15  N   UNL     1      27.316  46.210  53.885  1.00  0.00    -0.353 N 
HETATM   16  H   UNL     1      27.896  46.482  53.104  1.00  0.00     0.163 HD
HETATM   17  O   UNL     1      25.525  44.975  54.620  1.00  0.00    -0.268 OA
BRANCH  15  18
HETATM   18  C   UNL     1      27.752  46.611  55.206  1.00  0.00     0.161 C 
BRANCH  18  19
HETATM   19  C   UNL     1      28.840  45.710  55.736  1.00  0.00    -0.041 A 
HETATM   20  C   UNL     1      29.310  44.638  54.967  1.00  0.00     0.009 A 
HETATM   21  C   UNL     1      30.356  43.833  55.428  1.00  0.00     0.007 A 
HETATM   22  C   UNL     1      30.953  44.086  56.667  1.00  0.00    -0.062 A 
HETATM   23  C   UNL     1      32.093  43.245  57.162  1.00  0.00     0.048 C 
HETATM   24  C   UNL     1      30.494  45.162  57.435  1.00  0.00     0.007 A 
HETATM   25  C   UNL     1      29.453  45.970  56.971  1.00  0.00     0.009 A 
ENDBRANCH  18  19
ENDBRANCH  15  18
ENDBRANCH   1  14
BRANCH   6  26
HETATM   26  C   UNL     1      23.647  41.779  48.618  1.00  0.00     0.103 C 
BRANCH  26  27
HETATM   27  S   UNL     1      25.107  40.882  47.992  1.00  0.00    -0.162 SA
BRANCH  27  28
HETATM   28  C   UNL     1      25.957  40.624  49.581  1.00  0.00     0.114 C 
BRANCH  28  29
HETATM   29  C   UNL     1      27.132  39.690  49.443  1.00  0.00    -0.027 A 
HETATM   30  C   UNL     1      28.232  39.719  50.316  1.00  0.00     0.041 A 
HETATM   31 CL   UNL     1      28.333  40.844  51.626  1.00  0.00    -0.084 Cl
HETATM   32  C   UNL     1      29.298  38.829  50.148  1.00  0.00     0.024 A 
HETATM   33  C   UNL     1      29.279  37.897  49.113  1.00  0.00     0.002 A 
HETATM   34  C   UNL     1      28.190  37.847  48.246  1.00  0.00     0.001 A 
HETATM   35  C   UNL     1      27.125  38.733  48.410  1.00  0.00     0.009 A 
ENDBRANCH  28  29
ENDBRANCH  27  28
ENDBRANCH  26  27
ENDBRANCH   6  26
TORSDOF 7
ENDMDL
MODEL 5
REMARK VINA RESULT:      -9.7      3.419     10.429
REMARK  7 active torsions:
REMARK  status: ('A' for Active; 'I' for Inactive)
REMARK    1  A    between atoms: C_5  and  C_6 
REMARK    2  A    between atoms: C_6  and  N_7 
REMARK       I    between atoms: N_7  and  C_8 
REMARK    3  A    between atoms: C_8  and  C_9 
REMARK    4  A    between atoms: C_14  and  C_15 
REMARK    5  A    between atoms: C_15  and  S_16 
REMARK    6  A    between atoms: S_16  and  C_17 
REMARK    7  A    between atoms: C_17  and  C_18 
ROOT
HETATM    1  C   UNL     1      26.542  43.007  51.674  1.00  0.00     0.034 A 
HETATM    2  C   UNL     1      25.903  42.232  50.702  1.00  0.00     0.048 A 
HETATM    3  C   UNL     1      24.652  42.622  50.226  1.00  0.00     0.057 A 
HETATM    4  C   UNL     1      24.014  43.777  50.717  1.00  0.00     0.036 A 
HETATM    5  N   UNL     1      22.713  44.114  50.304  1.00  0.00    -0.277 NA
HETATM    6  C   UNL     1      22.368  43.656  48.927  1.00  0.00     0.162 C 
HETATM    7  C   UNL     1      22.817  42.201  48.687  1.00  0.00     0.240 C 
HETATM    8  O   UNL     1      22.214  41.417  47.957  1.00  0.00    -0.271 OA
HETATM    9  N   UNL     1      24.012  41.835  49.262  1.00  0.00    -0.324 N 
HETATM   10  C   UNL     1      24.632  44.498  51.744  1.00  0.00     0.027 A 
HETATM   11  C   UNL     1      25.899  44.129  52.209  1.00  0.00     0.019 A 
HETATM   12  H   UNL     1      22.463  45.082  50.486  1.00  0.00     0.128 HD
HETATM   13  H   UNL     1      24.366  40.918  49.021  1.00  0.00     0.169 HD
ENDROOT
BRANCH   1  14
HETATM   14  C   UNL     1      27.894  42.581  52.124  1.00  0.00     0.252 C 
HETATM   15  N   UNL     1      28.463  43.326  53.130  1.00  0.00    -0.353 N 
HETATM   16  H   UNL     1      27.991  44.134  53.510  1.00  0.00     0.163 HD
HETATM   17  O   UNL     1      28.452  41.643  51.568  1.00  0.00    -0.268 OA
BRANCH  15  18
HETATM   18  C   UNL     1      29.802  43.054  53.609  1.00  0.00     0.161 C 
BRANCH  18  19
HETATM   19  C   UNL     1      30.066  43.709  54.942  1.00  0.00    -0.041 A 
HETATM   20  C   UNL     1      31.012  43.169  55.822  1.00  0.00     0.009 A 
HETATM   21  C   UNL     1      31.302  43.801  57.034  1.00  0.00     0.007 A 
HETATM   22  C   UNL     1      30.652  44.987  57.390  1.00  0.00    -0.062 A 
HETATM   23  C   UNL     1      30.972  45.689  58.677  1.00  0.00     0.048 C 
HETATM   24  C   UNL     1      29.714  45.537  56.510  1.00  0.00     0.007 A 
HETATM   25  C   UNL     1      29.429  44.908  55.295  1.00  0.00     0.009 A 
ENDBRANCH  18  19
ENDBRANCH  15  18
ENDBRANCH   1  14
BRANCH   6  26
HETATM   26  C   UNL     1      23.026  44.602  47.900  1.00  0.00     0.103 C 
BRANCH  26  27
HETATM   27  S   UNL     1      22.093  46.138  47.589  1.00  0.00    -0.162 SA
BRANCH  27  28
HETATM   28  C   UNL     1      23.037  47.245  48.685  1.00  0.00     0.114 C 
BRANCH  28  29
HETATM   29  C   UNL     1      22.479  48.645  48.682  1.00  0.00    -0.027 A 
HETATM   30  C   UNL     1      23.288  49.784  48.537  1.00  0.00     0.041 A 
HETATM   31 CL   UNL     1      25.005  49.673  48.359  1.00  0.00    -0.084 Cl
HETATM   32  C   UNL     1      22.724  51.064  48.539  1.00  0.00     0.024 A 
HETATM   33  C   UNL     1      21.346  51.224  48.679  1.00  0.00     0.002 A 
HETATM   34  C   UNL     1      20.529  50.104  48.810  1.00  0.00     0.001 A 
HETATM   35  C   UNL     1      21.089  48.826  48.810  1.00  0.00     0.009 A 
ENDBRANCH  28  29
ENDBRANCH  27  28
ENDBRANCH  26  27
ENDBRANCH   6  26
TORSDOF 7
ENDMDL
MODEL 6
REMARK VINA RESULT:      -9.7      1.854      2.360
REMARK  7 active torsions:
REMARK  status: ('A' for Active; 'I' for Inactive)
REMARK    1  A    between atoms: C_5  and  C_6 
REMARK    2  A    between atoms: C_6  and  N_7 
REMARK       I    between atoms: N_7  and  C_8 
REMARK    3  A    between atoms: C_8  and  C_9 
REMARK    4  A    between atoms: C_14  and  C_15 
REMARK    5  A    between atoms: C_15  and  S_16 
REMARK    6  A    between atoms: S_16  and  C_17 
REMARK    7  A    between atoms: C_17  and  C_18 
ROOT
HETATM    1  C   UNL     1      23.203  46.667  48.834  1.00  0.00     0.034 A 
HETATM    2  C   UNL     1      23.763  45.405  48.612  1.00  0.00     0.048 A 
HETATM    3  C   UNL     1      24.968  45.071  49.226  1.00  0.00     0.057 A 
HETATM    4  C   UNL     1      25.639  45.987  50.059  1.00  0.00     0.036 A 
HETATM    5  N   UNL     1      26.900  45.681  50.602  1.00  0.00    -0.277 NA
HETATM    6  C   UNL     1      27.131  44.225  50.833  1.00  0.00     0.162 C 
HETATM    7  C   UNL     1      26.670  43.381  49.627  1.00  0.00     0.240 C 
HETATM    8  O   UNL     1      27.215  42.334  49.285  1.00  0.00    -0.271 OA
HETATM    9  N   UNL     1      25.529  43.811  48.990  1.00  0.00    -0.324 N 
HETATM   10  C   UNL     1      25.106  47.271  50.209  1.00  0.00     0.027 A 
HETATM   11  C   UNL     1      23.883  47.607  49.617  1.00  0.00     0.019 A 
HETATM   12  H   UNL     1      27.160  46.264  51.391  1.00  0.00     0.128 HD
HETATM   13  H   UNL     1      25.161  43.206  48.268  1.00  0.00     0.169 HD
ENDROOT
BRANCH   1  14
HETATM   14  C   UNL     1      21.896  46.970  48.194  1.00  0.00     0.252 C 
HETATM   15  N   UNL     1      20.808  47.038  49.034  1.00  0.00    -0.353 N 
HETATM   16  H   UNL     1      20.903  46.857  50.023  1.00  0.00     0.163 HD
HETATM   17  O   UNL     1      21.829  47.096  46.978  1.00  0.00    -0.268 OA
BRANCH  15  18
HETATM   18  C   UNL     1      19.471  47.258  48.524  1.00  0.00     0.161 C 
BRANCH  18  19
HETATM   19  C   UNL     1      18.933  48.609  48.925  1.00  0.00    -0.041 A 
HETATM   20  C   UNL     1      19.740  49.515  49.623  1.00  0.00     0.009 A 
HETATM   21  C   UNL     1      19.267  50.789  49.949  1.00  0.00     0.007 A 
HETATM   22  C   UNL     1      17.976  51.182  49.583  1.00  0.00    -0.062 A 
HETATM   23  C   UNL     1      17.464  52.555  49.904  1.00  0.00     0.048 C 
HETATM   24  C   UNL     1      17.168  50.284  48.876  1.00  0.00     0.007 A 
HETATM   25  C   UNL     1      17.645  49.014  48.545  1.00  0.00     0.009 A 
ENDBRANCH  18  19
ENDBRANCH  15  18
ENDBRANCH   1  14
BRANCH   6  26
HETATM   26  C   UNL     1      26.386  43.792  52.113  1.00  0.00     0.103 C 
BRANCH  26  27
HETATM   27  S   UNL     1      27.390  42.798  53.266  1.00  0.00    -0.162 SA
BRANCH  27  28
HETATM   28  C   UNL     1      28.955  43.715  53.108  1.00  0.00     0.114 C 
BRANCH  28  29
HETATM   29  C   UNL     1      29.489  44.149  54.449  1.00  0.00    -0.027 A 
HETATM   30  C   UNL     1      29.005  45.279  55.129  1.00  0.00     0.041 A 
HETATM   31 CL   UNL     1      27.754  46.277  54.474  1.00  0.00    -0.084 Cl
HETATM   32  C   UNL     1      29.532  45.641  56.373  1.00  0.00     0.024 A 
HETATM   33  C   UNL     1      30.542  44.879  56.957  1.00  0.00     0.002 A 
HETATM   34  C   UNL     1      31.024  43.749  56.302  1.00  0.00     0.001 A 
HETATM   35  C   UNL     1      30.501  43.385  55.060  1.00  0.00     0.009 A 
ENDBRANCH  28  29
ENDBRANCH  27  28
ENDBRANCH  26  27
ENDBRANCH   6  26
TORSDOF 7
ENDMDL
MODEL 7
REMARK VINA RESULT:      -9.6      3.453     11.131
REMARK  7 active torsions:
REMARK  status: ('A' for Active; 'I' for Inactive)
REMARK    1  A    between atoms: C_5  and  C_6 
REMARK    2  A    between atoms: C_6  and  N_7 
REMARK       I    between atoms: N_7  and  C_8 
REMARK    3  A    between atoms: C_8  and  C_9 
REMARK    4  A    between atoms: C_14  and  C_15 
REMARK    5  A    between atoms: C_15  and  S_16 
REMARK    6  A    between atoms: S_16  and  C_17 
REMARK    7  A    between atoms: C_17  and  C_18 
ROOT
HETATM    1  C   UNL     1      24.151  44.856  50.098  1.00  0.00     0.034 A 
HETATM    2  C   UNL     1      24.448  46.208  50.298  1.00  0.00     0.048 A 
HETATM    3  C   UNL     1      23.825  47.172  49.509  1.00  0.00     0.057 A 
HETATM    4  C   UNL     1      22.908  46.809  48.503  1.00  0.00     0.036 A 
HETATM    5  N   UNL     1      22.353  47.777  47.647  1.00  0.00    -0.277 NA
HETATM    6  C   UNL     1      22.222  49.132  48.257  1.00  0.00     0.162 C 
HETATM    7  C   UNL     1      23.500  49.532  49.023  1.00  0.00     0.240 C 
HETATM    8  O   UNL     1      23.901  50.691  49.112  1.00  0.00    -0.271 OA
HETATM    9  N   UNL     1      24.136  48.523  49.705  1.00  0.00    -0.324 N 
HETATM   10  C   UNL     1      22.680  45.450  48.265  1.00  0.00     0.027 A 
HETATM   11  C   UNL     1      23.282  44.475  49.070  1.00  0.00     0.019 A 
HETATM   12  H   UNL     1      21.516  47.465  47.164  1.00  0.00     0.128 HD
HETATM   13  H   UNL     1      24.911  48.796  50.296  1.00  0.00     0.169 HD
ENDROOT
BRANCH   1  14
HETATM   14  C   UNL     1      24.805  43.862  50.989  1.00  0.00     0.252 C 
HETATM   15  N   UNL     1      26.159  44.011  51.177  1.00  0.00    -0.353 N 
HETATM   16  H   UNL     1      26.673  44.741  50.703  1.00  0.00     0.163 HD
HETATM   17  O   UNL     1      24.145  42.949  51.469  1.00  0.00    -0.268 OA
BRANCH  15  18
HETATM   18  C   UNL     1      26.922  43.068  51.967  1.00  0.00     0.161 C 
BRANCH  18  19
HETATM   19  C   UNL     1      27.641  43.744  53.109  1.00  0.00    -0.041 A 
HETATM   20  C   UNL     1      28.806  43.181  53.645  1.00  0.00     0.009 A 
HETATM   21  C   UNL     1      29.508  43.829  54.665  1.00  0.00     0.007 A 
HETATM   22  C   UNL     1      29.058  45.054  55.169  1.00  0.00    -0.062 A 
HETATM   23  C   UNL     1      29.815  45.773  56.247  1.00  0.00     0.048 C 
HETATM   24  C   UNL     1      27.900  45.625  54.630  1.00  0.00     0.007 A 
HETATM   25  C   UNL     1      27.203  44.980  53.606  1.00  0.00     0.009 A 
ENDBRANCH  18  19
ENDBRANCH  15  18
ENDBRANCH   1  14
BRANCH   6  26
HETATM   26  C   UNL     1      21.000  49.147  49.198  1.00  0.00     0.103 C 
BRANCH  26  27
HETATM   27  S   UNL     1      20.635  50.777  49.929  1.00  0.00    -0.162 SA
BRANCH  27  28
HETATM   28  C   UNL     1      20.021  51.606  48.429  1.00  0.00     0.114 C 
BRANCH  28  29
HETATM   29  C   UNL     1      18.551  51.927  48.527  1.00  0.00    -0.027 A 
HETATM   30  C   UNL     1      17.668  51.781  47.445  1.00  0.00     0.041 A 
HETATM   31 CL   UNL     1      18.201  51.227  45.895  1.00  0.00    -0.084 Cl
HETATM   32  C   UNL     1      16.311  52.090  47.586  1.00  0.00     0.024 A 
HETATM   33  C   UNL     1      15.817  52.541  48.808  1.00  0.00     0.002 A 
HETATM   34  C   UNL     1      16.676  52.678  49.895  1.00  0.00     0.001 A 
HETATM   35  C   UNL     1      18.031  52.372  49.757  1.00  0.00     0.009 A 
ENDBRANCH  28  29
ENDBRANCH  27  28
ENDBRANCH  26  27
ENDBRANCH   6  26
TORSDOF 7
ENDMDL
MODEL 8
REMARK VINA RESULT:      -9.5      3.376     10.735
REMARK  7 active torsions:
REMARK  status: ('A' for Active; 'I' for Inactive)
REMARK    1  A    between atoms: C_5  and  C_6 
REMARK    2  A    between atoms: C_6  and  N_7 
REMARK       I    between atoms: N_7  and  C_8 
REMARK    3  A    between atoms: C_8  and  C_9 
REMARK    4  A    between atoms: C_14  and  C_15 
REMARK    5  A    between atoms: C_15  and  S_16 
REMARK    6  A    between atoms: S_16  and  C_17 
REMARK    7  A    between atoms: C_17  and  C_18 
ROOT
HETATM    1  C   UNL     1      26.540  43.856  51.400  1.00  0.00     0.034 A 
HETATM    2  C   UNL     1      26.231  43.783  50.038  1.00  0.00     0.048 A 
HETATM    3  C   UNL     1      24.944  44.097  49.608  1.00  0.00     0.057 A 
HETATM    4  C   UNL     1      23.942  44.476  50.523  1.00  0.00     0.036 A 
HETATM    5  N   UNL     1      22.621  44.701  50.096  1.00  0.00    -0.277 NA
HETATM    6  C   UNL     1      22.505  45.186  48.690  1.00  0.00     0.162 C 
HETATM    7  C   UNL     1      23.415  44.384  47.739  1.00  0.00     0.240 C 
HETATM    8  O   UNL     1      23.133  44.154  46.565  1.00  0.00    -0.271 OA
HETATM    9  N   UNL     1      24.638  44.010  48.245  1.00  0.00    -0.324 N 
HETATM   10  C   UNL     1      24.246  44.470  51.888  1.00  0.00     0.027 A 
HETATM   11  C   UNL     1      25.543  44.181  52.327  1.00  0.00     0.019 A 
HETATM   12  H   UNL     1      22.061  45.231  50.757  1.00  0.00     0.128 HD
HETATM   13  H   UNL     1      25.282  43.578  47.595  1.00  0.00     0.169 HD
ENDROOT
BRANCH   1  14
HETATM   14  C   UNL     1      27.935  43.554  51.814  1.00  0.00     0.252 C 
HETATM   15  N   UNL     1      28.092  42.979  53.053  1.00  0.00    -0.353 N 
HETATM   16  H   UNL     1      27.296  42.807  53.651  1.00  0.00     0.163 HD
HETATM   17  O   UNL     1      28.867  43.862  51.080  1.00  0.00    -0.268 OA
BRANCH  15  18
HETATM   18  C   UNL     1      29.404  42.699  53.597  1.00  0.00     0.161 C 
BRANCH  18  19
HETATM   19  C   UNL     1      29.739  43.610  54.752  1.00  0.00    -0.041 A 
HETATM   20  C   UNL     1      28.970  44.753  55.000  1.00  0.00     0.009 A 
HETATM   21  C   UNL     1      29.240  45.572  56.101  1.00  0.00     0.007 A 
HETATM   22  C   UNL     1      30.285  45.261  56.976  1.00  0.00    -0.062 A 
HETATM   23  C   UNL     1      30.570  46.116  58.176  1.00  0.00     0.048 C 
HETATM   24  C   UNL     1      31.051  44.114  56.740  1.00  0.00     0.007 A 
HETATM   25  C   UNL     1      30.776  43.293  55.643  1.00  0.00     0.009 A 
ENDBRANCH  18  19
ENDBRANCH  15  18
ENDBRANCH   1  14
BRANCH   6  26
HETATM   26  C   UNL     1      22.862  46.687  48.643  1.00  0.00     0.103 C 
BRANCH  26  27
HETATM   27  S   UNL     1      21.515  47.760  48.040  1.00  0.00    -0.162 SA
BRANCH  27  28
HETATM   28  C   UNL     1      21.655  49.082  49.283  1.00  0.00     0.114 C 
BRANCH  28  29
HETATM   29  C   UNL     1      20.523  50.072  49.179  1.00  0.00    -0.027 A 
HETATM   30  C   UNL     1      19.252  49.832  49.727  1.00  0.00     0.041 A 
HETATM   31 CL   UNL     1      18.875  48.365  50.563  1.00  0.00    -0.084 Cl
HETATM   32  C   UNL     1      18.233  50.783  49.605  1.00  0.00     0.024 A 
HETATM   33  C   UNL     1      18.471  51.987  48.944  1.00  0.00     0.002 A 
HETATM   34  C   UNL     1      19.729  52.245  48.407  1.00  0.00     0.001 A 
HETATM   35  C   UNL     1      20.748  51.298  48.525  1.00  0.00     0.009 A 
ENDBRANCH  28  29
ENDBRANCH  27  28
ENDBRANCH  26  27
ENDBRANCH   6  26
TORSDOF 7
ENDMDL
MODEL 9
REMARK VINA RESULT:      -9.4      3.758     10.792
REMARK  7 active torsions:
REMARK  status: ('A' for Active; 'I' for Inactive)
REMARK    1  A    between atoms: C_5  and  C_6 
REMARK    2  A    between atoms: C_6  and  N_7 
REMARK       I    between atoms: N_7  and  C_8 
REMARK    3  A    between atoms: C_8  and  C_9 
REMARK    4  A    between atoms: C_14  and  C_15 
REMARK    5  A    between atoms: C_15  and  S_16 
REMARK    6  A    between atoms: S_16  and  C_17 
REMARK    7  A    between atoms: C_17  and  C_18 
ROOT
HETATM    1  C   UNL     1      25.083  42.871  49.829  1.00  0.00     0.034 A 
HETATM    2  C   UNL     1      24.925  43.399  48.544  1.00  0.00     0.048 A 
HETATM    3  C   UNL     1      23.703  43.956  48.176  1.00  0.00     0.057 A 
HETATM    4  C   UNL     1      22.617  43.986  49.072  1.00  0.00     0.036 A 
HETATM    5  N   UNL     1      21.358  44.464  48.666  1.00  0.00    -0.277 NA
HETATM    6  C   UNL     1      21.411  45.502  47.596  1.00  0.00     0.162 C 
HETATM    7  C   UNL     1      22.400  45.111  46.478  1.00  0.00     0.240 C 
HETATM    8  O   UNL     1      22.243  45.418  45.298  1.00  0.00    -0.271 OA
HETATM    9  N   UNL     1      23.548  44.473  46.884  1.00  0.00    -0.324 N 
HETATM   10  C   UNL     1      22.767  43.385  50.325  1.00  0.00     0.027 A 
HETATM   11  C   UNL     1      23.999  42.846  50.713  1.00  0.00     0.019 A 
HETATM   12  H   UNL     1      20.742  44.705  49.437  1.00  0.00     0.128 HD
HETATM   13  H   UNL     1      24.249  44.309  46.172  1.00  0.00     0.169 HD
ENDROOT
BRANCH   1  14
HETATM   14  C   UNL     1      26.416  42.324  50.197  1.00  0.00     0.252 C 
HETATM   15  N   UNL     1      26.500  41.696  51.417  1.00  0.00    -0.353 N 
HETATM   16  H   UNL     1      25.700  41.645  52.032  1.00  0.00     0.163 HD
HETATM   17  O   UNL     1      27.369  42.490  49.446  1.00  0.00    -0.268 OA
BRANCH  15  18
HETATM   18  C   UNL     1      27.756  41.181  51.919  1.00  0.00     0.161 C 
BRANCH  18  19
HETATM   19  C   UNL     1      28.360  42.091  52.960  1.00  0.00    -0.041 A 
HETATM   20  C   UNL     1      29.751  42.188  53.096  1.00  0.00     0.009 A 
HETATM   21  C   UNL     1      30.319  43.070  54.020  1.00  0.00     0.007 A 
HETATM   22  C   UNL     1      29.506  43.872  54.827  1.00  0.00    -0.062 A 
HETATM   23  C   UNL     1      30.102  44.841  55.805  1.00  0.00     0.048 C 
HETATM   24  C   UNL     1      28.116  43.787  54.688  1.00  0.00     0.007 A 
HETATM   25  C   UNL     1      27.550  42.910  53.760  1.00  0.00     0.009 A 
ENDBRANCH  18  19
ENDBRANCH  15  18
ENDBRANCH   1  14
BRANCH   6  26
HETATM   26  C   UNL     1      21.811  46.854  48.224  1.00  0.00     0.103 C 
BRANCH  26  27
HETATM   27  S   UNL     1      20.829  48.274  47.635  1.00  0.00    -0.162 SA
BRANCH  27  28
HETATM   28  C   UNL     1      21.049  49.361  49.079  1.00  0.00     0.114 C 
BRANCH  28  29
HETATM   29  C   UNL     1      19.988  50.430  49.143  1.00  0.00    -0.027 A 
HETATM   30  C   UNL     1      18.890  50.357  50.015  1.00  0.00     0.041 A 
HETATM   31 CL   UNL     1      18.657  49.020  51.088  1.00  0.00    -0.084 Cl
HETATM   32  C   UNL     1      17.931  51.376  50.039  1.00  0.00     0.024 A 
HETATM   33  C   UNL     1      18.059  52.481  49.201  1.00  0.00     0.002 A 
HETATM   34  C   UNL     1      19.149  52.575  48.340  1.00  0.00     0.001 A 
HETATM   35  C   UNL     1      20.107  51.560  48.312  1.00  0.00     0.009 A 
ENDBRANCH  28  29
ENDBRANCH  27  28
ENDBRANCH  26  27
ENDBRANCH   6  26
TORSDOF 7
ENDMDL
MODEL 10
REMARK VINA RESULT:      -9.4      7.277     11.113
REMARK  7 active torsions:
REMARK  status: ('A' for Active; 'I' for Inactive)
REMARK    1  A    between atoms: C_5  and  C_6 
REMARK    2  A    between atoms: C_6  and  N_7 
REMARK       I    between atoms: N_7  and  C_8 
REMARK    3  A    between atoms: C_8  and  C_9 
REMARK    4  A    between atoms: C_14  and  C_15 
REMARK    5  A    between atoms: C_15  and  S_16 
REMARK    6  A    between atoms: S_16  and  C_17 
REMARK    7  A    between atoms: C_17  and  C_18 
ROOT
HETATM    1  C   UNL     1      27.249  42.299  51.280  1.00  0.00     0.034 A 
HETATM    2  C   UNL     1      28.315  41.395  51.332  1.00  0.00     0.048 A 
HETATM    3  C   UNL     1      28.165  40.124  50.780  1.00  0.00     0.057 A 
HETATM    4  C   UNL     1      26.953  39.728  50.182  1.00  0.00     0.036 A 
HETATM    5  N   UNL     1      26.775  38.415  49.711  1.00  0.00    -0.277 NA
HETATM    6  C   UNL     1      28.031  37.752  49.254  1.00  0.00     0.162 C 
HETATM    7  C   UNL     1      29.186  37.982  50.250  1.00  0.00     0.240 C 
HETATM    8  O   UNL     1      30.078  37.161  50.454  1.00  0.00    -0.271 OA
HETATM    9  N   UNL     1      29.232  39.220  50.845  1.00  0.00    -0.324 N 
HETATM   10  C   UNL     1      25.873  40.616  50.207  1.00  0.00     0.027 A 
HETATM   11  C   UNL     1      26.022  41.903  50.736  1.00  0.00     0.019 A 
HETATM   12  H   UNL     1      26.002  38.314  49.060  1.00  0.00     0.128 HD
HETATM   13  H   UNL     1      30.044  39.417  51.416  1.00  0.00     0.169 HD
ENDROOT
BRANCH   1  14
HETATM   14  C   UNL     1      27.463  43.658  51.842  1.00  0.00     0.252 C 
HETATM   15  N   UNL     1      27.467  43.756  53.214  1.00  0.00    -0.353 N 
HETATM   16  H   UNL     1      27.300  42.946  53.794  1.00  0.00     0.163 HD
HETATM   17  O   UNL     1      27.576  44.616  51.088  1.00  0.00    -0.268 OA
BRANCH  15  18
HETATM   18  C   UNL     1      27.598  45.034  53.881  1.00  0.00     0.161 C 
BRANCH  18  19
HETATM   19  C   UNL     1      28.656  45.001  54.956  1.00  0.00    -0.041 A 
HETATM   20  C   UNL     1      28.607  45.903  56.027  1.00  0.00     0.009 A 
HETATM   21  C   UNL     1      29.552  45.842  57.055  1.00  0.00     0.007 A 
HETATM   22  C   UNL     1      30.564  44.877  57.033  1.00  0.00    -0.062 A 
HETATM   23  C   UNL     1      31.570  44.785  58.143  1.00  0.00     0.048 C 
HETATM   24  C   UNL     1      30.611  43.967  55.971  1.00  0.00     0.007 A 
HETATM   25  C   UNL     1      29.663  44.024  54.947  1.00  0.00     0.009 A 
ENDBRANCH  18  19
ENDBRANCH  15  18
ENDBRANCH   1  14
BRANCH   6  26
HETATM   26  C   UNL     1      28.407  38.288  47.857  1.00  0.00     0.103 C 
BRANCH  26  27
HETATM   27  S   UNL     1      28.510  37.006  46.564  1.00  0.00    -0.162 SA
BRANCH  27  28
HETATM   28  C   UNL     1      27.629  37.894  45.242  1.00  0.00     0.114 C 
BRANCH  28  29
HETATM   29  C   UNL     1      28.579  38.627  44.329  1.00  0.00    -0.027 A 
HETATM   30  C   UNL     1      28.566  40.024  44.183  1.00  0.00     0.041 A 
HETATM   31 CL   UNL     1      27.443  41.025  45.038  1.00  0.00    -0.084 Cl
HETATM   32  C   UNL     1      29.469  40.659  43.325  1.00  0.00     0.024 A 
HETATM   33  C   UNL     1      30.401  39.911  42.607  1.00  0.00     0.002 A 
HETATM   34  C   UNL     1      30.435  38.527  42.750  1.00  0.00     0.001 A 
HETATM   35  C   UNL     1      29.535  37.889  43.605  1.00  0.00     0.009 A 
ENDBRANCH  28  29
ENDBRANCH  27  28
ENDBRANCH  26  27
ENDBRANCH   6  26
TORSDOF 7
ENDMDL
