MODEL 1
REMARK VINA RESULT:      -9.3      0.000      0.000
REMARK  6 active torsions:
REMARK  status: ('A' for Active; 'I' for Inactive)
REMARK    1  A    between atoms: C_5  and  C_6 
REMARK    2  A    between atoms: C_11  and  C_12 
REMARK       I    between atoms: C_12  and  N_13 
REMARK    3  A    between atoms: N_13  and  C_14 
REMARK    4  A    between atoms: C_16  and  C_17 
REMARK    5  A    between atoms: C_17  and  O_18 
REMARK    6  A    between atoms: C_25  and  C_26 
ROOT
HETATM    1  C   UNL     1      20.011  50.427  47.121  1.00  0.00     0.118 C 
HETATM    2  N   UNL     1      21.347  50.673  47.652  1.00  0.00    -0.366 N 
HETATM    3  C   UNL     1      22.084  49.715  48.250  1.00  0.00     0.123 A 
HETATM    4  N   UNL     1      21.638  48.430  48.369  1.00  0.00    -0.240 N 
HETATM    5  N   UNL     1      22.527  47.593  48.939  1.00  0.00    -0.165 NA
HETATM    6  C   UNL     1      23.571  48.401  49.239  1.00  0.00     0.148 A 
HETATM    7  C   UNL     1      23.325  49.737  48.825  1.00  0.00     0.089 A 
HETATM    8  C   UNL     1      20.354  47.966  47.879  1.00  0.00     0.221 C 
HETATM    9  C   UNL     1      19.802  48.933  46.815  1.00  0.00     0.066 C 
HETATM   10  H   UNL     1      21.636  51.650  47.671  1.00  0.00     0.161 HD
ENDROOT
BRANCH   6  11
HETATM   11  C   UNL     1      24.789  47.905  49.906  1.00  0.00     0.276 C 
HETATM   12  N   UNL     1      24.497  47.119  51.004  1.00  0.00    -0.322 N 
HETATM   13  H   UNL     1      23.500  47.030  51.186  1.00  0.00     0.169 HD
HETATM   14  O   UNL     1      25.904  48.202  49.492  1.00  0.00    -0.266 OA
BRANCH  12  15
HETATM   15  C   UNL     1      25.390  46.472  51.875  1.00  0.00     0.035 A 
HETATM   16  C   UNL     1      26.033  45.268  51.571  1.00  0.00     0.039 A 
HETATM   17  C   UNL     1      26.918  44.662  52.483  1.00  0.00    -0.028 A 
HETATM   18  C   UNL     1      27.158  45.295  53.710  1.00  0.00     0.010 A 
HETATM   19  C   UNL     1      26.517  46.494  54.023  1.00  0.00     0.003 A 
HETATM   20  C   UNL     1      25.635  47.076  53.111  1.00  0.00     0.029 A 
BRANCH  17  21
HETATM   21  C   UNL     1      27.601  43.366  52.102  1.00  0.00     0.147 C 
HETATM   22  C   UNL     1      29.048  43.333  52.579  1.00  0.00     0.044 C 
BRANCH  21  23
HETATM   23  O   UNL     1      26.905  42.249  52.655  1.00  0.00    -0.391 OA
HETATM   24  H   UNL     1      27.487  41.862  53.329  1.00  0.00     0.210 HD
ENDBRANCH  21  23
ENDBRANCH  17  21
ENDBRANCH  12  15
ENDBRANCH   6  11
BRANCH   8  25
HETATM   25  C   UNL     1      19.413  47.711  49.032  1.00  0.00     0.409 C 
HETATM   26  F   UNL     1      19.626  48.501  50.100  1.00  0.00    -0.169 F 
HETATM   27  F   UNL     1      18.128  47.904  48.638  1.00  0.00    -0.169 F 
HETATM   28  F   UNL     1      19.484  46.427  49.461  1.00  0.00    -0.169 F 
ENDBRANCH   8  25
BRANCH   1  29
HETATM   29  C   UNL     1      18.920  51.073  47.955  1.00  0.00    -0.035 A 
HETATM   30  C   UNL     1      17.584  50.960  47.534  1.00  0.00     0.010 A 
HETATM   31  C   UNL     1      16.546  51.563  48.251  1.00  0.00     0.007 A 
HETATM   32  C   UNL     1      16.819  52.300  49.406  1.00  0.00    -0.062 A 
HETATM   33  C   UNL     1      15.713  52.927  50.200  1.00  0.00     0.048 C 
HETATM   34  C   UNL     1      18.143  52.407  49.842  1.00  0.00     0.007 A 
HETATM   35  C   UNL     1      19.181  51.809  49.119  1.00  0.00     0.010 A 
ENDBRANCH   1  29
TORSDOF 6
ENDMDL
MODEL 2
REMARK VINA RESULT:      -8.9      1.159      2.161
REMARK  6 active torsions:
REMARK  status: ('A' for Active; 'I' for Inactive)
REMARK    1  A    between atoms: C_5  and  C_6 
REMARK    2  A    between atoms: C_11  and  C_12 
REMARK       I    between atoms: C_12  and  N_13 
REMARK    3  A    between atoms: N_13  and  C_14 
REMARK    4  A    between atoms: C_16  and  C_17 
REMARK    5  A    between atoms: C_17  and  O_18 
REMARK    6  A    between atoms: C_25  and  C_26 
ROOT
HETATM    1  C   UNL     1      18.935  50.611  46.918  1.00  0.00     0.118 C 
HETATM    2  N   UNL     1      20.307  50.897  47.319  1.00  0.00    -0.366 N 
HETATM    3  C   UNL     1      21.108  49.976  47.891  1.00  0.00     0.123 A 
HETATM    4  N   UNL     1      20.695  48.692  48.105  1.00  0.00    -0.240 N 
HETATM    5  N   UNL     1      21.644  47.892  48.631  1.00  0.00    -0.165 NA
HETATM    6  C   UNL     1      22.696  48.726  48.804  1.00  0.00     0.148 A 
HETATM    7  C   UNL     1      22.394  50.039  48.355  1.00  0.00     0.089 A 
HETATM    8  C   UNL     1      19.382  48.191  47.749  1.00  0.00     0.221 C 
HETATM    9  C   UNL     1      18.724  49.103  46.696  1.00  0.00     0.066 C 
HETATM   10  H   UNL     1      20.581  51.877  47.270  1.00  0.00     0.161 HD
ENDROOT
BRANCH   6  11
HETATM   11  C   UNL     1      23.975  48.275  49.383  1.00  0.00     0.276 C 
HETATM   12  N   UNL     1      23.910  46.971  49.836  1.00  0.00    -0.322 N 
HETATM   13  H   UNL     1      22.993  46.547  49.719  1.00  0.00     0.169 HD
HETATM   14  O   UNL     1      24.945  49.023  49.438  1.00  0.00    -0.266 OA
BRANCH  12  15
HETATM   15  C   UNL     1      24.924  46.205  50.435  1.00  0.00     0.035 A 
HETATM   16  C   UNL     1      25.301  46.331  51.775  1.00  0.00     0.039 A 
HETATM   17  C   UNL     1      26.327  45.538  52.323  1.00  0.00    -0.028 A 
HETATM   18  C   UNL     1      26.965  44.601  51.501  1.00  0.00     0.010 A 
HETATM   19  C   UNL     1      26.599  44.472  50.161  1.00  0.00     0.003 A 
HETATM   20  C   UNL     1      25.586  45.273  49.631  1.00  0.00     0.029 A 
BRANCH  17  21
HETATM   21  C   UNL     1      26.689  45.703  53.784  1.00  0.00     0.147 C 
HETATM   22  C   UNL     1      26.128  46.998  54.358  1.00  0.00     0.044 C 
BRANCH  21  23
HETATM   23  O   UNL     1      26.198  44.604  54.552  1.00  0.00    -0.391 OA
HETATM   24  H   UNL     1      26.285  43.813  53.996  1.00  0.00     0.210 HD
ENDBRANCH  21  23
ENDBRANCH  17  21
ENDBRANCH  12  15
ENDBRANCH   6  11
BRANCH   8  25
HETATM   25  C   UNL     1      18.548  47.976  48.990  1.00  0.00     0.409 C 
HETATM   26  F   UNL     1      17.222  48.071  48.784  1.00  0.00    -0.169 F 
HETATM   27  F   UNL     1      18.789  46.744  49.507  1.00  0.00    -0.169 F 
HETATM   28  F   UNL     1      18.867  48.860  49.966  1.00  0.00    -0.169 F 
ENDBRANCH   8  25
BRANCH   1  29
HETATM   29  C   UNL     1      17.910  51.281  47.814  1.00  0.00    -0.035 A 
HETATM   30  C   UNL     1      18.356  52.073  48.887  1.00  0.00     0.010 A 
HETATM   31  C   UNL     1      17.451  52.686  49.759  1.00  0.00     0.007 A 
HETATM   32  C   UNL     1      16.075  52.517  49.584  1.00  0.00    -0.062 A 
HETATM   33  C   UNL     1      15.094  53.193  50.495  1.00  0.00     0.048 C 
HETATM   34  C   UNL     1      15.620  51.744  48.513  1.00  0.00     0.007 A 
HETATM   35  C   UNL     1      16.527  51.125  47.646  1.00  0.00     0.010 A 
ENDBRANCH   1  29
TORSDOF 6
ENDMDL
MODEL 3
REMARK VINA RESULT:      -8.7      2.409      3.463
REMARK  6 active torsions:
REMARK  status: ('A' for Active; 'I' for Inactive)
REMARK    1  A    between atoms: C_5  and  C_6 
REMARK    2  A    between atoms: C_11  and  C_12 
REMARK       I    between atoms: C_12  and  N_13 
REMARK    3  A    between atoms: N_13  and  C_14 
REMARK    4  A    between atoms: C_16  and  C_17 
REMARK    5  A    between atoms: C_17  and  O_18 
REMARK    6  A    between atoms: C_25  and  C_26 
ROOT
HETATM    1  C   UNL     1      18.020  49.582  48.152  1.00  0.00     0.118 C 
HETATM    2  N   UNL     1      18.601  48.264  47.927  1.00  0.00    -0.366 N 
HETATM    3  C   UNL     1      19.862  47.950  48.285  1.00  0.00     0.123 A 
HETATM    4  N   UNL     1      20.677  48.844  48.921  1.00  0.00    -0.240 N 
HETATM    5  N   UNL     1      21.881  48.343  49.259  1.00  0.00    -0.165 NA
HETATM    6  C   UNL     1      21.845  47.082  48.769  1.00  0.00     0.148 A 
HETATM    7  C   UNL     1      20.597  46.804  48.150  1.00  0.00     0.089 A 
HETATM    8  C   UNL     1      20.284  50.195  49.270  1.00  0.00     0.221 C 
HETATM    9  C   UNL     1      18.749  50.323  49.288  1.00  0.00     0.066 C 
HETATM   10  H   UNL     1      18.044  47.633  47.352  1.00  0.00     0.161 HD
ENDROOT
BRANCH   6  11
HETATM   11  C   UNL     1      22.983  46.151  48.895  1.00  0.00     0.276 C 
HETATM   12  N   UNL     1      23.743  46.410  50.019  1.00  0.00    -0.322 N 
HETATM   13  H   UNL     1      23.412  47.207  50.559  1.00  0.00     0.169 HD
HETATM   14  O   UNL     1      23.183  45.278  48.058  1.00  0.00    -0.266 OA
BRANCH  12  15
HETATM   15  C   UNL     1      24.890  45.734  50.469  1.00  0.00     0.035 A 
HETATM   16  C   UNL     1      24.989  45.128  51.725  1.00  0.00     0.039 A 
HETATM   17  C   UNL     1      26.165  44.465  52.126  1.00  0.00    -0.028 A 
HETATM   18  C   UNL     1      27.243  44.410  51.233  1.00  0.00     0.010 A 
HETATM   19  C   UNL     1      27.155  45.016  49.980  1.00  0.00     0.003 A 
HETATM   20  C   UNL     1      25.985  45.677  49.602  1.00  0.00     0.029 A 
BRANCH  17  21
HETATM   21  C   UNL     1      26.218  43.813  53.491  1.00  0.00     0.147 C 
HETATM   22  C   UNL     1      27.159  44.557  54.431  1.00  0.00     0.044 C 
BRANCH  21  23
HETATM   23  O   UNL     1      24.918  43.767  54.078  1.00  0.00    -0.391 OA
HETATM   24  H   UNL     1      25.034  43.931  55.028  1.00  0.00     0.210 HD
ENDBRANCH  21  23
ENDBRANCH  17  21
ENDBRANCH  12  15
ENDBRANCH   6  11
BRANCH   8  25
HETATM   25  C   UNL     1      20.978  51.192  48.372  1.00  0.00     0.409 C 
HETATM   26  F   UNL     1      21.170  50.757  47.114  1.00  0.00    -0.169 F 
HETATM   27  F   UNL     1      20.252  52.338  48.296  1.00  0.00    -0.169 F 
HETATM   28  F   UNL     1      22.189  51.549  48.863  1.00  0.00    -0.169 F 
ENDBRANCH   8  25
BRANCH   1  29
HETATM   29  C   UNL     1      17.850  50.375  46.870  1.00  0.00    -0.035 A 
HETATM   30  C   UNL     1      17.147  51.592  46.909  1.00  0.00     0.010 A 
HETATM   31  C   UNL     1      16.937  52.344  45.750  1.00  0.00     0.007 A 
HETATM   32  C   UNL     1      17.421  51.896  44.518  1.00  0.00    -0.062 A 
HETATM   33  C   UNL     1      17.228  52.708  43.272  1.00  0.00     0.048 C 
HETATM   34  C   UNL     1      18.134  50.696  44.470  1.00  0.00     0.007 A 
HETATM   35  C   UNL     1      18.336  49.940  45.629  1.00  0.00     0.010 A 
ENDBRANCH   1  29
TORSDOF 6
ENDMDL
MODEL 4
REMARK VINA RESULT:      -8.6      3.845     10.445
REMARK  6 active torsions:
REMARK  status: ('A' for Active; 'I' for Inactive)
REMARK    1  A    between atoms: C_5  and  C_6 
REMARK    2  A    between atoms: C_11  and  C_12 
REMARK       I    between atoms: C_12  and  N_13 
REMARK    3  A    between atoms: N_13  and  C_14 
REMARK    4  A    between atoms: C_16  and  C_17 
REMARK    5  A    between atoms: C_17  and  O_18 
REMARK    6  A    between atoms: C_25  and  C_26 
ROOT
HETATM    1  C   UNL     1      26.211  43.942  54.159  1.00  0.00     0.118 C 
HETATM    2  N   UNL     1      25.726  45.293  53.906  1.00  0.00    -0.366 N 
HETATM    3  C   UNL     1      25.469  45.757  52.666  1.00  0.00     0.123 A 
HETATM    4  N   UNL     1      25.614  44.974  51.557  1.00  0.00    -0.240 N 
HETATM    5  N   UNL     1      25.256  45.581  50.408  1.00  0.00    -0.165 NA
HETATM    6  C   UNL     1      24.913  46.828  50.805  1.00  0.00     0.148 A 
HETATM    7  C   UNL     1      25.038  46.974  52.213  1.00  0.00     0.089 A 
HETATM    8  C   UNL     1      26.049  43.591  51.590  1.00  0.00     0.221 C 
HETATM    9  C   UNL     1      25.853  42.997  52.997  1.00  0.00     0.066 C 
HETATM   10  H   UNL     1      25.728  45.916  54.712  1.00  0.00     0.161 HD
ENDROOT
BRANCH   6  11
HETATM   11  C   UNL     1      24.465  47.865  49.857  1.00  0.00     0.276 C 
HETATM   12  N   UNL     1      23.096  48.049  49.897  1.00  0.00    -0.322 N 
HETATM   13  H   UNL     1      22.622  47.429  50.551  1.00  0.00     0.169 HD
HETATM   14  O   UNL     1      25.263  48.451  49.134  1.00  0.00    -0.266 OA
BRANCH  12  15
HETATM   15  C   UNL     1      22.315  48.947  49.150  1.00  0.00     0.035 A 
HETATM   16  C   UNL     1      21.208  48.563  48.389  1.00  0.00     0.039 A 
HETATM   17  C   UNL     1      20.462  49.507  47.656  1.00  0.00    -0.028 A 
HETATM   18  C   UNL     1      20.843  50.854  47.711  1.00  0.00     0.010 A 
HETATM   19  C   UNL     1      21.949  51.246  48.465  1.00  0.00     0.003 A 
HETATM   20  C   UNL     1      22.683  50.296  49.178  1.00  0.00     0.029 A 
BRANCH  17  21
HETATM   21  C   UNL     1      19.263  49.043  46.857  1.00  0.00     0.147 C 
HETATM   22  C   UNL     1      18.805  50.107  45.866  1.00  0.00     0.044 C 
BRANCH  21  23
HETATM   23  O   UNL     1      19.565  47.845  46.144  1.00  0.00    -0.391 OA
HETATM   24  H   UNL     1      19.301  47.105  46.715  1.00  0.00     0.210 HD
ENDBRANCH  21  23
ENDBRANCH  17  21
ENDBRANCH  12  15
ENDBRANCH   6  11
BRANCH   8  25
HETATM   25  C   UNL     1      27.459  43.473  51.059  1.00  0.00     0.409 C 
HETATM   26  F   UNL     1      28.303  44.407  51.530  1.00  0.00    -0.169 F 
HETATM   27  F   UNL     1      27.979  42.260  51.381  1.00  0.00    -0.169 F 
HETATM   28  F   UNL     1      27.492  43.546  49.706  1.00  0.00    -0.169 F 
ENDBRANCH   8  25
BRANCH   1  29
HETATM   29  C   UNL     1      27.665  43.910  54.591  1.00  0.00    -0.035 A 
HETATM   30  C   UNL     1      28.222  45.052  55.192  1.00  0.00     0.010 A 
HETATM   31  C   UNL     1      29.564  45.083  55.581  1.00  0.00     0.007 A 
HETATM   32  C   UNL     1      30.388  43.973  55.371  1.00  0.00    -0.062 A 
HETATM   33  C   UNL     1      31.821  43.983  55.810  1.00  0.00     0.048 C 
HETATM   34  C   UNL     1      29.840  42.828  54.787  1.00  0.00     0.007 A 
HETATM   35  C   UNL     1      28.499  42.801  54.392  1.00  0.00     0.010 A 
ENDBRANCH   1  29
TORSDOF 6
ENDMDL
MODEL 5
REMARK VINA RESULT:      -8.5     12.738     14.138
REMARK  6 active torsions:
REMARK  status: ('A' for Active; 'I' for Inactive)
REMARK    1  A    between atoms: C_5  and  C_6 
REMARK    2  A    between atoms: C_11  and  C_12 
REMARK       I    between atoms: C_12  and  N_13 
REMARK    3  A    between atoms: N_13  and  C_14 
REMARK    4  A    between atoms: C_16  and  C_17 
REMARK    5  A    between atoms: C_17  and  O_18 
REMARK    6  A    between atoms: C_25  and  C_26 
ROOT
HETATM    1  C   UNL     1      28.291  52.316  40.339  1.00  0.00     0.118 C 
HETATM    2  N   UNL     1      28.869  52.068  41.654  1.00  0.00    -0.366 N 
HETATM    3  C   UNL     1      30.199  52.042  41.874  1.00  0.00     0.123 A 
HETATM    4  N   UNL     1      31.102  52.283  40.878  1.00  0.00    -0.240 N 
HETATM    5  N   UNL     1      32.386  52.277  41.288  1.00  0.00    -0.165 NA
HETATM    6  C   UNL     1      32.293  51.968  42.603  1.00  0.00     0.148 A 
HETATM    7  C   UNL     1      30.939  51.811  43.002  1.00  0.00     0.089 A 
HETATM    8  C   UNL     1      30.737  52.585  39.507  1.00  0.00     0.221 C 
HETATM    9  C   UNL     1      29.279  53.073  39.432  1.00  0.00     0.066 C 
HETATM   10  H   UNL     1      28.210  51.774  42.373  1.00  0.00     0.161 HD
ENDROOT
BRANCH   6  11
HETATM   11  C   UNL     1      33.479  51.831  43.468  1.00  0.00     0.276 C 
HETATM   12  N   UNL     1      34.655  51.843  42.744  1.00  0.00    -0.322 N 
HETATM   13  H   UNL     1      34.512  51.919  41.739  1.00  0.00     0.169 HD
HETATM   14  O   UNL     1      33.367  51.712  44.684  1.00  0.00    -0.266 OA
BRANCH  12  15
HETATM   15  C   UNL     1      35.973  51.743  43.221  1.00  0.00     0.035 A 
HETATM   16  C   UNL     1      36.500  52.567  44.220  1.00  0.00     0.039 A 
HETATM   17  C   UNL     1      37.831  52.425  44.658  1.00  0.00    -0.028 A 
HETATM   18  C   UNL     1      38.626  51.426  44.081  1.00  0.00     0.010 A 
HETATM   19  C   UNL     1      38.110  50.602  43.081  1.00  0.00     0.003 A 
HETATM   20  C   UNL     1      36.791  50.763  42.651  1.00  0.00     0.029 A 
BRANCH  17  21
HETATM   21  C   UNL     1      38.351  53.333  45.752  1.00  0.00     0.147 C 
HETATM   22  C   UNL     1      37.665  54.694  45.724  1.00  0.00     0.044 C 
BRANCH  21  23
HETATM   23  O   UNL     1      38.153  52.741  47.035  1.00  0.00    -0.391 OA
HETATM   24  H   UNL     1      38.104  51.781  46.896  1.00  0.00     0.210 HD
ENDBRANCH  21  23
ENDBRANCH  17  21
ENDBRANCH  12  15
ENDBRANCH   6  11
BRANCH   8  25
HETATM   25  C   UNL     1      31.044  51.407  38.611  1.00  0.00     0.409 C 
HETATM   26  F   UNL     1      30.301  51.362  37.491  1.00  0.00    -0.169 F 
HETATM   27  F   UNL     1      32.347  51.437  38.230  1.00  0.00    -0.169 F 
HETATM   28  F   UNL     1      30.870  50.229  39.258  1.00  0.00    -0.169 F 
ENDBRANCH   8  25
BRANCH   1  29
HETATM   29  C   UNL     1      27.674  51.074  39.725  1.00  0.00    -0.035 A 
HETATM   30  C   UNL     1      27.510  49.929  40.524  1.00  0.00     0.010 A 
HETATM   31  C   UNL     1      26.973  48.750  39.997  1.00  0.00     0.007 A 
HETATM   32  C   UNL     1      26.592  48.684  38.654  1.00  0.00    -0.062 A 
HETATM   33  C   UNL     1      25.989  47.435  38.085  1.00  0.00     0.048 C 
HETATM   34  C   UNL     1      26.738  49.820  37.855  1.00  0.00     0.007 A 
HETATM   35  C   UNL     1      27.282  50.997  38.382  1.00  0.00     0.010 A 
ENDBRANCH   1  29
TORSDOF 6
ENDMDL
MODEL 6
REMARK VINA RESULT:      -8.4      3.714     10.081
REMARK  6 active torsions:
REMARK  status: ('A' for Active; 'I' for Inactive)
REMARK    1  A    between atoms: C_5  and  C_6 
REMARK    2  A    between atoms: C_11  and  C_12 
REMARK       I    between atoms: C_12  and  N_13 
REMARK    3  A    between atoms: N_13  and  C_14 
REMARK    4  A    between atoms: C_16  and  C_17 
REMARK    5  A    between atoms: C_17  and  O_18 
REMARK    6  A    between atoms: C_25  and  C_26 
ROOT
HETATM    1  C   UNL     1      26.471  42.621  51.343  1.00  0.00     0.118 C 
HETATM    2  N   UNL     1      25.018  42.716  51.407  1.00  0.00    -0.366 N 
HETATM    3  C   UNL     1      24.303  43.529  50.602  1.00  0.00     0.123 A 
HETATM    4  N   UNL     1      24.896  44.299  49.642  1.00  0.00    -0.240 N 
HETATM    5  N   UNL     1      24.026  45.003  48.891  1.00  0.00    -0.165 NA
HETATM    6  C   UNL     1      22.825  44.701  49.436  1.00  0.00     0.148 A 
HETATM    7  C   UNL     1      22.962  43.783  50.512  1.00  0.00     0.089 A 
HETATM    8  C   UNL     1      26.324  44.327  49.390  1.00  0.00     0.221 C 
HETATM    9  C   UNL     1      26.998  43.069  49.968  1.00  0.00     0.066 C 
HETATM   10  H   UNL     1      24.582  42.237  52.192  1.00  0.00     0.161 HD
ENDROOT
BRANCH   6  11
HETATM   11  C   UNL     1      21.562  45.273  48.933  1.00  0.00     0.276 C 
HETATM   12  N   UNL     1      21.608  46.651  48.860  1.00  0.00    -0.322 N 
HETATM   13  H   UNL     1      22.489  47.045  49.184  1.00  0.00     0.169 HD
HETATM   14  O   UNL     1      20.612  44.554  48.643  1.00  0.00    -0.266 OA
BRANCH  12  15
HETATM   15  C   UNL     1      20.606  47.535  48.425  1.00  0.00     0.035 A 
HETATM   16  C   UNL     1      19.964  48.451  49.263  1.00  0.00     0.039 A 
HETATM   17  C   UNL     1      18.963  49.312  48.773  1.00  0.00    -0.028 A 
HETATM   18  C   UNL     1      18.625  49.247  47.416  1.00  0.00     0.010 A 
HETATM   19  C   UNL     1      19.257  48.333  46.573  1.00  0.00     0.003 A 
HETATM   20  C   UNL     1      20.240  47.480  47.077  1.00  0.00     0.029 A 
BRANCH  17  21
HETATM   21  C   UNL     1      18.306  50.296  49.718  1.00  0.00     0.147 C 
HETATM   22  C   UNL     1      19.133  51.568  49.866  1.00  0.00     0.044 C 
BRANCH  21  23
HETATM   23  O   UNL     1      17.001  50.643  49.257  1.00  0.00    -0.391 OA
HETATM   24  H   UNL     1      16.851  51.568  49.509  1.00  0.00     0.210 HD
ENDBRANCH  21  23
ENDBRANCH  17  21
ENDBRANCH  12  15
ENDBRANCH   6  11
BRANCH   8  25
HETATM   25  C   UNL     1      26.918  45.627  49.877  1.00  0.00     0.409 C 
HETATM   26  F   UNL     1      26.523  45.982  51.113  1.00  0.00    -0.169 F 
HETATM   27  F   UNL     1      28.273  45.544  49.894  1.00  0.00    -0.169 F 
HETATM   28  F   UNL     1      26.616  46.656  49.049  1.00  0.00    -0.169 F 
ENDBRANCH   8  25
BRANCH   1  29
HETATM   29  C   UNL     1      27.154  43.264  52.536  1.00  0.00    -0.035 A 
HETATM   30  C   UNL     1      28.558  43.298  52.581  1.00  0.00     0.010 A 
HETATM   31  C   UNL     1      29.234  43.853  53.672  1.00  0.00     0.007 A 
HETATM   32  C   UNL     1      28.522  44.384  54.750  1.00  0.00    -0.062 A 
HETATM   33  C   UNL     1      29.235  45.008  55.912  1.00  0.00     0.048 C 
HETATM   34  C   UNL     1      27.126  44.369  54.709  1.00  0.00     0.007 A 
HETATM   35  C   UNL     1      26.451  43.806  53.620  1.00  0.00     0.010 A 
ENDBRANCH   1  29
TORSDOF 6
ENDMDL
MODEL 7
REMARK VINA RESULT:      -8.2      5.316     11.095
REMARK  6 active torsions:
REMARK  status: ('A' for Active; 'I' for Inactive)
REMARK    1  A    between atoms: C_5  and  C_6 
REMARK    2  A    between atoms: C_11  and  C_12 
REMARK       I    between atoms: C_12  and  N_13 
REMARK    3  A    between atoms: N_13  and  C_14 
REMARK    4  A    between atoms: C_16  and  C_17 
REMARK    5  A    between atoms: C_17  and  O_18 
REMARK    6  A    between atoms: C_25  and  C_26 
ROOT
HETATM    1  C   UNL     1      20.060  49.145  49.880  1.00  0.00     0.118 C 
HETATM    2  N   UNL     1      19.356  50.352  50.297  1.00  0.00    -0.366 N 
HETATM    3  C   UNL     1      18.302  50.854  49.621  1.00  0.00     0.123 A 
HETATM    4  N   UNL     1      17.798  50.240  48.510  1.00  0.00    -0.240 N 
HETATM    5  N   UNL     1      16.708  50.845  47.998  1.00  0.00    -0.165 NA
HETATM    6  C   UNL     1      16.544  51.925  48.797  1.00  0.00     0.148 A 
HETATM    7  C   UNL     1      17.527  51.963  49.822  1.00  0.00     0.089 A 
HETATM    8  C   UNL     1      18.327  49.012  47.949  1.00  0.00     0.221 C 
HETATM    9  C   UNL     1      19.164  48.257  48.998  1.00  0.00     0.066 C 
HETATM   10  H   UNL     1      19.796  50.876  51.052  1.00  0.00     0.161 HD
ENDROOT
BRANCH   6  11
HETATM   11  C   UNL     1      15.460  52.903  48.592  1.00  0.00     0.276 C 
HETATM   12  N   UNL     1      15.160  53.597  49.748  1.00  0.00    -0.322 N 
HETATM   13  H   UNL     1      15.715  53.307  50.551  1.00  0.00     0.169 HD
HETATM   14  O   UNL     1      14.918  53.029  47.499  1.00  0.00    -0.266 OA
BRANCH  12  15
HETATM   15  C   UNL     1      14.199  54.605  49.936  1.00  0.00     0.035 A 
HETATM   16  C   UNL     1      14.504  55.968  49.980  1.00  0.00     0.039 A 
HETATM   17  C   UNL     1      13.499  56.935  50.173  1.00  0.00    -0.028 A 
HETATM   18  C   UNL     1      12.171  56.509  50.310  1.00  0.00     0.010 A 
HETATM   19  C   UNL     1      11.859  55.150  50.272  1.00  0.00     0.003 A 
HETATM   20  C   UNL     1      12.868  54.204  50.089  1.00  0.00     0.029 A 
BRANCH  17  21
HETATM   21  C   UNL     1      13.878  58.401  50.199  1.00  0.00     0.147 C 
HETATM   22  C   UNL     1      14.785  58.724  51.381  1.00  0.00     0.044 C 
BRANCH  21  23
HETATM   23  O   UNL     1      14.540  58.772  48.991  1.00  0.00    -0.391 OA
HETATM   24  H   UNL     1      15.453  58.999  49.231  1.00  0.00     0.210 HD
ENDBRANCH  21  23
ENDBRANCH  17  21
ENDBRANCH  12  15
ENDBRANCH   6  11
BRANCH   8  25
HETATM   25  C   UNL     1      19.061  49.298  46.660  1.00  0.00     0.409 C 
HETATM   26  F   UNL     1      19.606  50.527  46.600  1.00  0.00    -0.169 F 
HETATM   27  F   UNL     1      20.067  48.402  46.487  1.00  0.00    -0.169 F 
HETATM   28  F   UNL     1      18.251  49.164  45.583  1.00  0.00    -0.169 F 
ENDBRANCH   8  25
BRANCH   1  29
HETATM   29  C   UNL     1      21.437  49.435  49.314  1.00  0.00    -0.035 A 
HETATM   30  C   UNL     1      22.337  48.370  49.132  1.00  0.00     0.010 A 
HETATM   31  C   UNL     1      23.628  48.590  48.642  1.00  0.00     0.007 A 
HETATM   32  C   UNL     1      24.055  49.883  48.327  1.00  0.00    -0.062 A 
HETATM   33  C   UNL     1      25.427  50.127  47.774  1.00  0.00     0.048 C 
HETATM   34  C   UNL     1      23.164  50.946  48.491  1.00  0.00     0.007 A 
HETATM   35  C   UNL     1      21.875  50.726  48.989  1.00  0.00     0.010 A 
ENDBRANCH   1  29
TORSDOF 6
ENDMDL
MODEL 8
REMARK VINA RESULT:      -8.2     11.131     14.547
REMARK  6 active torsions:
REMARK  status: ('A' for Active; 'I' for Inactive)
REMARK    1  A    between atoms: C_5  and  C_6 
REMARK    2  A    between atoms: C_11  and  C_12 
REMARK       I    between atoms: C_12  and  N_13 
REMARK    3  A    between atoms: N_13  and  C_14 
REMARK    4  A    between atoms: C_16  and  C_17 
REMARK    5  A    between atoms: C_17  and  O_18 
REMARK    6  A    between atoms: C_25  and  C_26 
ROOT
HETATM    1  C   UNL     1      31.434  49.880  39.076  1.00  0.00     0.118 C 
HETATM    2  N   UNL     1      30.332  48.937  39.221  1.00  0.00    -0.366 N 
HETATM    3  C   UNL     1      29.057  49.249  38.913  1.00  0.00     0.123 A 
HETATM    4  N   UNL     1      28.715  50.470  38.407  1.00  0.00    -0.240 N 
HETATM    5  N   UNL     1      27.408  50.589  38.100  1.00  0.00    -0.165 NA
HETATM    6  C   UNL     1      26.888  49.397  38.477  1.00  0.00     0.148 A 
HETATM    7  C   UNL     1      27.892  48.536  38.993  1.00  0.00     0.089 A 
HETATM    8  C   UNL     1      29.661  51.539  38.153  1.00  0.00     0.221 C 
HETATM    9  C   UNL     1      31.092  50.980  38.054  1.00  0.00     0.066 C 
HETATM   10  H   UNL     1      30.560  48.069  39.704  1.00  0.00     0.161 HD
ENDROOT
BRANCH   6  11
HETATM   11  C   UNL     1      25.454  49.081  38.339  1.00  0.00     0.276 C 
HETATM   12  N   UNL     1      24.791  49.137  39.550  1.00  0.00    -0.322 N 
HETATM   13  H   UNL     1      25.398  49.362  40.335  1.00  0.00     0.169 HD
HETATM   14  O   UNL     1      24.969  48.796  37.249  1.00  0.00    -0.266 OA
BRANCH  12  15
HETATM   15  C   UNL     1      23.429  48.906  39.809  1.00  0.00     0.035 A 
HETATM   16  C   UNL     1      22.424  49.847  39.570  1.00  0.00     0.039 A 
HETATM   17  C   UNL     1      21.074  49.562  39.851  1.00  0.00    -0.028 A 
HETATM   18  C   UNL     1      20.746  48.303  40.369  1.00  0.00     0.010 A 
HETATM   19  C   UNL     1      21.743  47.359  40.614  1.00  0.00     0.003 A 
HETATM   20  C   UNL     1      23.078  47.661  40.339  1.00  0.00     0.029 A 
BRANCH  17  21
HETATM   21  C   UNL     1      20.021  50.611  39.563  1.00  0.00     0.147 C 
HETATM   22  C   UNL     1      19.852  51.573  40.733  1.00  0.00     0.044 C 
BRANCH  21  23
HETATM   23  O   UNL     1      20.360  51.358  38.395  1.00  0.00    -0.391 OA
HETATM   24  H   UNL     1      19.952  52.233  38.493  1.00  0.00     0.210 HD
ENDBRANCH  21  23
ENDBRANCH  17  21
ENDBRANCH  12  15
ENDBRANCH   6  11
BRANCH   8  25
HETATM   25  C   UNL     1      29.495  52.641  39.174  1.00  0.00     0.409 C 
HETATM   26  F   UNL     1      28.851  52.260  40.292  1.00  0.00    -0.169 F 
HETATM   27  F   UNL     1      30.711  53.115  39.550  1.00  0.00    -0.169 F 
HETATM   28  F   UNL     1      28.823  53.700  38.662  1.00  0.00    -0.169 F 
ENDBRANCH   8  25
BRANCH   1  29
HETATM   29  C   UNL     1      31.959  50.379  40.409  1.00  0.00    -0.035 A 
HETATM   30  C   UNL     1      31.172  50.204  41.561  1.00  0.00     0.010 A 
HETATM   31  C   UNL     1      31.598  50.673  42.807  1.00  0.00     0.007 A 
HETATM   32  C   UNL     1      32.822  51.336  42.933  1.00  0.00    -0.062 A 
HETATM   33  C   UNL     1      33.303  51.818  44.269  1.00  0.00     0.048 C 
HETATM   34  C   UNL     1      33.619  51.502  41.798  1.00  0.00     0.007 A 
HETATM   35  C   UNL     1      33.187  51.039  40.550  1.00  0.00     0.010 A 
ENDBRANCH   1  29
TORSDOF 6
ENDMDL
MODEL 9
REMARK VINA RESULT:      -8.1     13.266     14.661
REMARK  6 active torsions:
REMARK  status: ('A' for Active; 'I' for Inactive)
REMARK    1  A    between atoms: C_5  and  C_6 
REMARK    2  A    between atoms: C_11  and  C_12 
REMARK       I    between atoms: C_12  and  N_13 
REMARK    3  A    between atoms: N_13  and  C_14 
REMARK    4  A    between atoms: C_16  and  C_17 
REMARK    5  A    between atoms: C_17  and  O_18 
REMARK    6  A    between atoms: C_25  and  C_26 
ROOT
HETATM    1  C   UNL     1      29.540  51.752  41.565  1.00  0.00     0.118 C 
HETATM    2  N   UNL     1      30.562  51.538  42.582  1.00  0.00    -0.366 N 
HETATM    3  C   UNL     1      31.883  51.567  42.309  1.00  0.00     0.123 A 
HETATM    4  N   UNL     1      32.355  51.836  41.056  1.00  0.00    -0.240 N 
HETATM    5  N   UNL     1      33.700  51.884  40.977  1.00  0.00    -0.165 NA
HETATM    6  C   UNL     1      34.099  51.581  42.235  1.00  0.00     0.148 A 
HETATM    7  C   UNL     1      32.987  51.373  43.093  1.00  0.00     0.089 A 
HETATM    8  C   UNL     1      31.510  52.113  39.911  1.00  0.00     0.221 C 
HETATM    9  C   UNL     1      30.104  52.541  40.369  1.00  0.00     0.066 C 
HETATM   10  H   UNL     1      30.219  51.223  43.488  1.00  0.00     0.161 HD
ENDROOT
BRANCH   6  11
HETATM   11  C   UNL     1      35.522  51.499  42.615  1.00  0.00     0.276 C 
HETATM   12  N   UNL     1      35.974  52.670  43.192  1.00  0.00    -0.322 N 
HETATM   13  H   UNL     1      35.265  53.399  43.240  1.00  0.00     0.169 HD
HETATM   14  O   UNL     1      36.177  50.484  42.403  1.00  0.00    -0.266 OA
BRANCH  12  15
HETATM   15  C   UNL     1      37.258  52.960  43.683  1.00  0.00     0.035 A 
HETATM   16  C   UNL     1      37.648  52.748  45.008  1.00  0.00     0.039 A 
HETATM   17  C   UNL     1      38.949  53.060  45.446  1.00  0.00    -0.028 A 
HETATM   18  C   UNL     1      39.863  53.580  44.521  1.00  0.00     0.010 A 
HETATM   19  C   UNL     1      39.482  53.800  43.198  1.00  0.00     0.003 A 
HETATM   20  C   UNL     1      38.185  53.494  42.782  1.00  0.00     0.029 A 
BRANCH  17  21
HETATM   21  C   UNL     1      39.327  52.799  46.889  1.00  0.00     0.147 C 
HETATM   22  C   UNL     1      40.460  53.711  47.345  1.00  0.00     0.044 C 
BRANCH  21  23
HETATM   23  O   UNL     1      38.203  52.993  47.747  1.00  0.00    -0.391 OA
HETATM   24  H   UNL     1      37.996  53.941  47.727  1.00  0.00     0.210 HD
ENDBRANCH  21  23
ENDBRANCH  17  21
ENDBRANCH  12  15
ENDBRANCH   6  11
BRANCH   8  25
HETATM   25  C   UNL     1      31.521  50.942  38.956  1.00  0.00     0.409 C 
HETATM   26  F   UNL     1      31.700  49.749  39.552  1.00  0.00    -0.169 F 
HETATM   27  F   UNL     1      30.346  50.881  38.278  1.00  0.00    -0.169 F 
HETATM   28  F   UNL     1      32.489  51.071  38.016  1.00  0.00    -0.169 F 
ENDBRANCH   8  25
BRANCH   1  29
HETATM   29  C   UNL     1      28.794  50.481  41.205  1.00  0.00    -0.035 A 
HETATM   30  C   UNL     1      27.678  50.564  40.354  1.00  0.00     0.010 A 
HETATM   31  C   UNL     1      26.939  49.426  40.017  1.00  0.00     0.007 A 
HETATM   32  C   UNL     1      27.295  48.174  40.528  1.00  0.00    -0.062 A 
HETATM   33  C   UNL     1      26.528  46.942  40.151  1.00  0.00     0.048 C 
HETATM   34  C   UNL     1      28.411  48.079  41.363  1.00  0.00     0.007 A 
HETATM   35  C   UNL     1      29.144  49.220  41.706  1.00  0.00     0.010 A 
ENDBRANCH   1  29
TORSDOF 6
ENDMDL
MODEL 10
REMARK VINA RESULT:      -8.0     13.933     17.481
REMARK  6 active torsions:
REMARK  status: ('A' for Active; 'I' for Inactive)
REMARK    1  A    between atoms: C_5  and  C_6 
REMARK    2  A    between atoms: C_11  and  C_12 
REMARK       I    between atoms: C_12  and  N_13 
REMARK    3  A    between atoms: N_13  and  C_14 
REMARK    4  A    between atoms: C_16  and  C_17 
REMARK    5  A    between atoms: C_17  and  O_18 
REMARK    6  A    between atoms: C_25  and  C_26 
ROOT
HETATM    1  C   UNL     1      38.494  51.262  41.623  1.00  0.00     0.118 C 
HETATM    2  N   UNL     1      37.308  50.435  41.439  1.00  0.00    -0.366 N 
HETATM    3  C   UNL     1      36.093  50.784  41.909  1.00  0.00     0.123 A 
HETATM    4  N   UNL     1      35.884  51.963  42.567  1.00  0.00    -0.240 N 
HETATM    5  N   UNL     1      34.600  52.176  42.914  1.00  0.00    -0.165 NA
HETATM    6  C   UNL     1      33.972  51.052  42.497  1.00  0.00     0.148 A 
HETATM    7  C   UNL     1      34.878  50.157  41.867  1.00  0.00     0.089 A 
HETATM    8  C   UNL     1      36.921  52.944  42.824  1.00  0.00     0.221 C 
HETATM    9  C   UNL     1      38.112  52.733  41.872  1.00  0.00     0.066 C 
HETATM   10  H   UNL     1      37.477  49.507  41.055  1.00  0.00     0.161 HD
ENDROOT
BRANCH   6  11
HETATM   11  C   UNL     1      32.526  50.836  42.691  1.00  0.00     0.276 C 
HETATM   12  N   UNL     1      31.784  51.288  41.616  1.00  0.00    -0.322 N 
HETATM   13  H   UNL     1      32.349  51.714  40.884  1.00  0.00     0.169 HD
HETATM   14  O   UNL     1      32.093  50.320  43.716  1.00  0.00    -0.266 OA
BRANCH  12  15
HETATM   15  C   UNL     1      30.391  51.247  41.440  1.00  0.00     0.035 A 
HETATM   16  C   UNL     1      29.685  50.082  41.126  1.00  0.00     0.039 A 
HETATM   17  C   UNL     1      28.287  50.099  40.957  1.00  0.00    -0.028 A 
HETATM   18  C   UNL     1      27.604  51.311  41.123  1.00  0.00     0.010 A 
HETATM   19  C   UNL     1      28.301  52.478  41.431  1.00  0.00     0.003 A 
HETATM   20  C   UNL     1      29.688  52.446  41.586  1.00  0.00     0.029 A 
BRANCH  17  21
HETATM   21  C   UNL     1      27.565  48.808  40.631  1.00  0.00     0.147 C 
HETATM   22  C   UNL     1      28.444  47.592  40.898  1.00  0.00     0.044 C 
BRANCH  21  23
HETATM   23  O   UNL     1      26.368  48.693  41.398  1.00  0.00    -0.391 OA
HETATM   24  H   UNL     1      26.433  47.861  41.896  1.00  0.00     0.210 HD
ENDBRANCH  21  23
ENDBRANCH  17  21
ENDBRANCH  12  15
ENDBRANCH   6  11
BRANCH   8  25
HETATM   25  C   UNL     1      37.290  52.944  44.289  1.00  0.00     0.409 C 
HETATM   26  F   UNL     1      37.020  51.789  44.924  1.00  0.00    -0.169 F 
HETATM   27  F   UNL     1      38.619  53.183  44.435  1.00  0.00    -0.169 F 
HETATM   28  F   UNL     1      36.656  53.933  44.965  1.00  0.00    -0.169 F 
ENDBRANCH   8  25
BRANCH   1  29
HETATM   29  C   UNL     1      39.472  50.672  42.621  1.00  0.00    -0.035 A 
HETATM   30  C   UNL     1      39.028  49.666  43.497  1.00  0.00     0.010 A 
HETATM   31  C   UNL     1      39.883  49.111  44.454  1.00  0.00     0.007 A 
HETATM   32  C   UNL     1      41.204  49.553  44.564  1.00  0.00    -0.062 A 
HETATM   33  C   UNL     1      42.139  48.946  45.567  1.00  0.00     0.048 C 
HETATM   34  C   UNL     1      41.660  50.542  43.689  1.00  0.00     0.007 A 
HETATM   35  C   UNL     1      40.801  51.102  42.737  1.00  0.00     0.010 A 
ENDBRANCH   1  29
TORSDOF 6
ENDMDL
