MODEL 1
REMARK VINA RESULT:     -10.3      0.000      0.000
REMARK  6 active torsions:
REMARK  status: ('A' for Active; 'I' for Inactive)
REMARK    1  A    between atoms: C_5  and  N_6 
REMARK       I    between atoms: N_6  and  C_7 
REMARK       I    between atoms: C_7  and  N_8 
REMARK    2  A    between atoms: N_8  and  C_9 
REMARK    3  A    between atoms: C_9  and  C_10 
REMARK       I    between atoms: C_10  and  N_11 
REMARK    4  A    between atoms: N_11  and  N_12 
REMARK       I    between atoms: N_12  and  C_13 
REMARK       I    between atoms: C_13  and  N_14 
REMARK    5  A    between atoms: N_14  and  C_15 
REMARK    6  A    between atoms: C_17  and  C_18 
ROOT
HETATM    1  C   UNL     1      25.674  46.773  51.637  1.00  0.00     0.253 C 
HETATM    2  N   UNL     1      25.599  45.394  51.703  1.00  0.00    -0.265 N 
HETATM    3  O   UNL     1      25.191  47.507  52.500  1.00  0.00    -0.270 OA
HETATM    4  H   UNL     1      26.196  44.841  51.083  1.00  0.00     0.190 HD
ENDROOT
BRANCH   2   5
HETATM    5  N   UNL     1      25.175  44.809  52.900  1.00  0.00    -0.249 N 
HETATM    6  C   UNL     1      26.051  44.381  53.877  1.00  0.00     0.339 C 
HETATM    7  N   UNL     1      27.356  44.746  53.645  1.00  0.00    -0.308 N 
HETATM    8  O   UNL     1      25.625  43.750  54.838  1.00  0.00    -0.245 OA
HETATM    9  H   UNL     1      27.513  45.143  52.729  1.00  0.00     0.170 HD
HETATM   10  H   UNL     1      24.240  44.406  52.917  1.00  0.00     0.192 HD
BRANCH   7  11
HETATM   11  C   UNL     1      28.480  44.538  54.463  1.00  0.00     0.037 A 
HETATM   12  C   UNL     1      28.716  45.231  55.653  1.00  0.00     0.045 A 
HETATM   13  C   UNL     1      29.871  44.983  56.417  1.00  0.00     0.050 A 
HETATM   14  C   UNL     1      30.785  44.015  55.977  1.00  0.00     0.016 A 
HETATM   15  C   UNL     1      30.558  43.321  54.791  1.00  0.00     0.003 A 
HETATM   16  C   UNL     1      29.412  43.584  54.037  1.00  0.00     0.029 A 
BRANCH  13  17
HETATM   17  C   UNL     1      30.115  45.720  57.711  1.00  0.00     0.417 C 
HETATM   18  F   UNL     1      31.047  46.708  57.616  1.00  0.00    -0.166 F 
HETATM   19  F   UNL     1      28.986  46.312  58.190  1.00  0.00    -0.166 F 
HETATM   20  F   UNL     1      30.552  44.896  58.706  1.00  0.00    -0.166 F 
ENDBRANCH  13  17
ENDBRANCH   7  11
ENDBRANCH   2   5
BRANCH   1  21
HETATM   21  C   UNL     1      26.239  47.320  50.321  1.00  0.00     0.228 C 
BRANCH  21  22
HETATM   22  N   UNL     1      25.493  48.409  49.713  1.00  0.00    -0.334 N 
HETATM   23  C   UNL     1      25.997  49.219  48.751  1.00  0.00     0.322 C 
HETATM   24  N   UNL     1      25.124  49.976  48.038  1.00  0.00    -0.293 N 
HETATM   25  O   UNL     1      27.209  49.322  48.557  1.00  0.00    -0.247 OA
HETATM   26  H   UNL     1      25.576  50.599  47.385  1.00  0.00     0.172 HD
HETATM   27  H   UNL     1      24.478  48.318  49.678  1.00  0.00     0.164 HD
BRANCH  24  28
HETATM   28  C   UNL     1      23.725  49.960  48.055  1.00  0.00     0.131 A 
HETATM   29  N   UNL     1      23.059  48.834  47.714  1.00  0.00    -0.243 NA
HETATM   30  C   UNL     1      21.705  48.883  47.729  1.00  0.00     0.125 A 
HETATM   31  C   UNL     1      20.967  50.013  48.056  1.00  0.00    -0.044 A 
HETATM   32  C   UNL     1      19.472  49.984  48.080  1.00  0.00     0.049 C 
HETATM   33  C   UNL     1      21.677  51.155  48.419  1.00  0.00     0.012 A 
HETATM   34  C   UNL     1      23.071  51.132  48.414  1.00  0.00     0.051 A 
ENDBRANCH  24  28
ENDBRANCH  21  22
ENDBRANCH   1  21
TORSDOF 6
ENDMDL
MODEL 2
REMARK VINA RESULT:      -9.8      3.537      4.910
REMARK  6 active torsions:
REMARK  status: ('A' for Active; 'I' for Inactive)
REMARK    1  A    between atoms: C_5  and  N_6 
REMARK       I    between atoms: N_6  and  C_7 
REMARK       I    between atoms: C_7  and  N_8 
REMARK    2  A    between atoms: N_8  and  C_9 
REMARK    3  A    between atoms: C_9  and  C_10 
REMARK       I    between atoms: C_10  and  N_11 
REMARK    4  A    between atoms: N_11  and  N_12 
REMARK       I    between atoms: N_12  and  C_13 
REMARK       I    between atoms: C_13  and  N_14 
REMARK    5  A    between atoms: N_14  and  C_15 
REMARK    6  A    between atoms: C_17  and  C_18 
ROOT
HETATM    1  C   UNL     1      26.071  41.304  49.872  1.00  0.00     0.253 C 
HETATM    2  N   UNL     1      25.940  41.126  51.236  1.00  0.00    -0.265 N 
HETATM    3  O   UNL     1      27.144  41.169  49.284  1.00  0.00    -0.270 OA
HETATM    4  H   UNL     1      25.001  41.038  51.631  1.00  0.00     0.190 HD
ENDROOT
BRANCH   2   5
HETATM    5  N   UNL     1      27.002  40.543  51.935  1.00  0.00    -0.249 N 
HETATM    6  C   UNL     1      27.841  41.264  52.761  1.00  0.00     0.339 C 
HETATM    7  N   UNL     1      27.428  42.558  52.972  1.00  0.00    -0.308 N 
HETATM    8  O   UNL     1      28.836  40.725  53.233  1.00  0.00    -0.245 OA
HETATM    9  H   UNL     1      26.658  42.843  52.384  1.00  0.00     0.170 HD
HETATM   10  H   UNL     1      27.356  39.653  51.590  1.00  0.00     0.192 HD
BRANCH   7  11
HETATM   11  C   UNL     1      28.001  43.533  53.807  1.00  0.00     0.037 A 
HETATM   12  C   UNL     1      27.468  44.811  53.995  1.00  0.00     0.045 A 
HETATM   13  C   UNL     1      28.103  45.744  54.834  1.00  0.00     0.050 A 
HETATM   14  C   UNL     1      29.281  45.372  55.498  1.00  0.00     0.016 A 
HETATM   15  C   UNL     1      29.821  44.101  55.315  1.00  0.00     0.003 A 
HETATM   16  C   UNL     1      29.185  43.189  54.471  1.00  0.00     0.029 A 
BRANCH  13  17
HETATM   17  C   UNL     1      27.516  47.117  55.048  1.00  0.00     0.417 C 
HETATM   18  F   UNL     1      26.277  47.278  54.507  1.00  0.00    -0.166 F 
HETATM   19  F   UNL     1      27.394  47.428  56.368  1.00  0.00    -0.166 F 
HETATM   20  F   UNL     1      28.285  48.104  54.505  1.00  0.00    -0.166 F 
ENDBRANCH  13  17
ENDBRANCH   7  11
ENDBRANCH   2   5
BRANCH   1  21
HETATM   21  C   UNL     1      24.822  41.859  49.178  1.00  0.00     0.228 C 
BRANCH  21  22
HETATM   22  N   UNL     1      24.565  43.277  49.373  1.00  0.00    -0.334 N 
HETATM   23  C   UNL     1      23.689  43.761  50.286  1.00  0.00     0.322 C 
HETATM   24  N   UNL     1      23.768  45.080  50.602  1.00  0.00    -0.293 N 
HETATM   25  O   UNL     1      22.806  43.058  50.779  1.00  0.00    -0.247 OA
HETATM   26  H   UNL     1      23.045  45.382  51.239  1.00  0.00     0.172 HD
HETATM   27  H   UNL     1      25.320  43.924  49.149  1.00  0.00     0.164 HD
BRANCH  24  28
HETATM   28  C   UNL     1      24.725  46.024  50.212  1.00  0.00     0.131 A 
HETATM   29  N   UNL     1      26.023  45.664  50.106  1.00  0.00    -0.243 NA
HETATM   30  C   UNL     1      26.907  46.625  49.745  1.00  0.00     0.125 A 
HETATM   31  C   UNL     1      26.566  47.948  49.495  1.00  0.00    -0.044 A 
HETATM   32  C   UNL     1      27.594  48.948  49.071  1.00  0.00     0.049 C 
HETATM   33  C   UNL     1      25.219  48.289  49.597  1.00  0.00     0.012 A 
HETATM   34  C   UNL     1      24.288  47.319  49.964  1.00  0.00     0.051 A 
ENDBRANCH  24  28
ENDBRANCH  21  22
ENDBRANCH   1  21
TORSDOF 6
ENDMDL
MODEL 3
REMARK VINA RESULT:      -9.7      5.446     10.926
REMARK  6 active torsions:
REMARK  status: ('A' for Active; 'I' for Inactive)
REMARK    1  A    between atoms: C_5  and  N_6 
REMARK       I    between atoms: N_6  and  C_7 
REMARK       I    between atoms: C_7  and  N_8 
REMARK    2  A    between atoms: N_8  and  C_9 
REMARK    3  A    between atoms: C_9  and  C_10 
REMARK       I    between atoms: C_10  and  N_11 
REMARK    4  A    between atoms: N_11  and  N_12 
REMARK       I    between atoms: N_12  and  C_13 
REMARK       I    between atoms: C_13  and  N_14 
REMARK    5  A    between atoms: N_14  and  C_15 
REMARK    6  A    between atoms: C_17  and  C_18 
ROOT
HETATM    1  C   UNL     1      24.830  46.171  50.480  1.00  0.00     0.253 C 
HETATM    2  N   UNL     1      24.173  47.387  50.447  1.00  0.00    -0.265 N 
HETATM    3  O   UNL     1      25.187  45.581  49.460  1.00  0.00    -0.270 OA
HETATM    4  H   UNL     1      24.096  47.926  51.313  1.00  0.00     0.190 HD
ENDROOT
BRANCH   2   5
HETATM    5  N   UNL     1      24.123  48.082  49.234  1.00  0.00    -0.249 N 
HETATM    6  C   UNL     1      22.946  48.559  48.692  1.00  0.00     0.339 C 
HETATM    7  N   UNL     1      21.866  48.447  49.534  1.00  0.00    -0.308 N 
HETATM    8  O   UNL     1      22.949  49.035  47.562  1.00  0.00    -0.245 OA
HETATM    9  H   UNL     1      22.050  47.903  50.366  1.00  0.00     0.170 HD
HETATM   10  H   UNL     1      24.904  47.960  48.594  1.00  0.00     0.192 HD
BRANCH   7  11
HETATM   11  C   UNL     1      20.549  48.893  49.330  1.00  0.00     0.037 A 
HETATM   12  C   UNL     1      20.184  50.241  49.265  1.00  0.00     0.045 A 
HETATM   13  C   UNL     1      18.842  50.618  49.072  1.00  0.00     0.050 A 
HETATM   14  C   UNL     1      17.867  49.621  48.930  1.00  0.00     0.016 A 
HETATM   15  C   UNL     1      18.222  48.275  48.995  1.00  0.00     0.003 A 
HETATM   16  C   UNL     1      19.556  47.915  49.197  1.00  0.00     0.029 A 
BRANCH  13  17
HETATM   17  C   UNL     1      18.454  52.073  48.985  1.00  0.00     0.417 C 
HETATM   18  F   UNL     1      19.379  52.856  48.366  1.00  0.00    -0.166 F 
HETATM   19  F   UNL     1      17.288  52.258  48.306  1.00  0.00    -0.166 F 
HETATM   20  F   UNL     1      18.259  52.635  50.213  1.00  0.00    -0.166 F 
ENDBRANCH  13  17
ENDBRANCH   7  11
ENDBRANCH   2   5
BRANCH   1  21
HETATM   21  C   UNL     1      24.917  45.530  51.869  1.00  0.00     0.228 C 
BRANCH  21  22
HETATM   22  N   UNL     1      26.068  45.909  52.673  1.00  0.00    -0.334 N 
HETATM   23  C   UNL     1      26.080  46.974  53.510  1.00  0.00     0.322 C 
HETATM   24  N   UNL     1      27.071  47.041  54.436  1.00  0.00    -0.293 N 
HETATM   25  O   UNL     1      25.263  47.890  53.410  1.00  0.00    -0.247 OA
HETATM   26  H   UNL     1      27.054  47.891  54.980  1.00  0.00     0.172 HD
HETATM   27  H   UNL     1      26.709  45.166  52.949  1.00  0.00     0.164 HD
BRANCH  24  28
HETATM   28  C   UNL     1      28.045  46.087  54.756  1.00  0.00     0.131 A 
HETATM   29  N   UNL     1      28.101  44.925  54.069  1.00  0.00    -0.243 NA
HETATM   30  C   UNL     1      29.052  44.031  54.436  1.00  0.00     0.125 A 
HETATM   31  C   UNL     1      29.951  44.228  55.476  1.00  0.00    -0.044 A 
HETATM   32  C   UNL     1      30.993  43.208  55.806  1.00  0.00     0.049 C 
HETATM   33  C   UNL     1      29.881  45.441  56.158  1.00  0.00     0.012 A 
HETATM   34  C   UNL     1      28.915  46.380  55.799  1.00  0.00     0.051 A 
ENDBRANCH  24  28
ENDBRANCH  21  22
ENDBRANCH   1  21
TORSDOF 6
ENDMDL
MODEL 4
REMARK VINA RESULT:      -9.6      4.956     10.181
REMARK  6 active torsions:
REMARK  status: ('A' for Active; 'I' for Inactive)
REMARK    1  A    between atoms: C_5  and  N_6 
REMARK       I    between atoms: N_6  and  C_7 
REMARK       I    between atoms: C_7  and  N_8 
REMARK    2  A    between atoms: N_8  and  C_9 
REMARK    3  A    between atoms: C_9  and  C_10 
REMARK       I    between atoms: C_10  and  N_11 
REMARK    4  A    between atoms: N_11  and  N_12 
REMARK       I    between atoms: N_12  and  C_13 
REMARK       I    between atoms: C_13  and  N_14 
REMARK    5  A    between atoms: N_14  and  C_15 
REMARK    6  A    between atoms: C_17  and  C_18 
ROOT
HETATM    1  C   UNL     1      24.778  44.735  51.160  1.00  0.00     0.253 C 
HETATM    2  N   UNL     1      23.478  44.799  50.696  1.00  0.00    -0.265 N 
HETATM    3  O   UNL     1      25.739  44.521  50.419  1.00  0.00    -0.270 OA
HETATM    4  H   UNL     1      22.758  45.189  51.308  1.00  0.00     0.190 HD
ENDROOT
BRANCH   2   5
HETATM    5  N   UNL     1      23.268  44.860  49.314  1.00  0.00    -0.249 N 
HETATM    6  C   UNL     1      22.944  46.031  48.657  1.00  0.00     0.339 C 
HETATM    7  N   UNL     1      23.025  47.150  49.451  1.00  0.00    -0.308 N 
HETATM    8  O   UNL     1      22.636  45.993  47.471  1.00  0.00    -0.245 OA
HETATM    9  H   UNL     1      23.165  46.946  50.431  1.00  0.00     0.170 HD
HETATM   10  H   UNL     1      23.040  43.991  48.837  1.00  0.00     0.192 HD
BRANCH   7  11
HETATM   11  C   UNL     1      22.834  48.494  49.088  1.00  0.00     0.037 A 
HETATM   12  C   UNL     1      21.628  49.181  49.247  1.00  0.00     0.045 A 
HETATM   13  C   UNL     1      21.502  50.523  48.847  1.00  0.00     0.050 A 
HETATM   14  C   UNL     1      22.612  51.178  48.296  1.00  0.00     0.016 A 
HETATM   15  C   UNL     1      23.819  50.500  48.131  1.00  0.00     0.003 A 
HETATM   16  C   UNL     1      23.926  49.164  48.524  1.00  0.00     0.029 A 
BRANCH  13  17
HETATM   17  C   UNL     1      20.203  51.267  49.036  1.00  0.00     0.417 C 
HETATM   18  F   UNL     1      20.121  52.424  48.323  1.00  0.00    -0.166 F 
HETATM   19  F   UNL     1      19.122  50.523  48.672  1.00  0.00    -0.166 F 
HETATM   20  F   UNL     1      19.988  51.620  50.336  1.00  0.00    -0.166 F 
ENDBRANCH  13  17
ENDBRANCH   7  11
ENDBRANCH   2   5
BRANCH   1  21
HETATM   21  C   UNL     1      24.914  44.768  52.686  1.00  0.00     0.228 C 
BRANCH  21  22
HETATM   22  N   UNL     1      26.170  45.290  53.201  1.00  0.00    -0.334 N 
HETATM   23  C   UNL     1      26.325  46.557  53.656  1.00  0.00     0.322 C 
HETATM   24  N   UNL     1      27.427  46.832  54.400  1.00  0.00    -0.293 N 
HETATM   25  O   UNL     1      25.535  47.455  53.362  1.00  0.00    -0.247 OA
HETATM   26  H   UNL     1      27.508  47.807  54.649  1.00  0.00     0.172 HD
HETATM   27  H   UNL     1      26.814  44.623  53.624  1.00  0.00     0.164 HD
BRANCH  24  28
HETATM   28  C   UNL     1      28.398  45.954  54.896  1.00  0.00     0.131 A 
HETATM   29  N   UNL     1      28.674  44.810  54.232  1.00  0.00    -0.243 NA
HETATM   30  C   UNL     1      29.609  43.989  54.769  1.00  0.00     0.125 A 
HETATM   31  C   UNL     1      30.283  44.242  55.957  1.00  0.00    -0.044 A 
HETATM   32  C   UNL     1      31.324  43.303  56.475  1.00  0.00     0.049 C 
HETATM   33  C   UNL     1      29.989  45.436  56.614  1.00  0.00     0.012 A 
HETATM   34  C   UNL     1      29.034  46.300  56.082  1.00  0.00     0.051 A 
ENDBRANCH  24  28
ENDBRANCH  21  22
ENDBRANCH   1  21
TORSDOF 6
ENDMDL
MODEL 5
REMARK VINA RESULT:      -9.6      3.132      4.571
REMARK  6 active torsions:
REMARK  status: ('A' for Active; 'I' for Inactive)
REMARK    1  A    between atoms: C_5  and  N_6 
REMARK       I    between atoms: N_6  and  C_7 
REMARK       I    between atoms: C_7  and  N_8 
REMARK    2  A    between atoms: N_8  and  C_9 
REMARK    3  A    between atoms: C_9  and  C_10 
REMARK       I    between atoms: C_10  and  N_11 
REMARK    4  A    between atoms: N_11  and  N_12 
REMARK       I    between atoms: N_12  and  C_13 
REMARK       I    between atoms: C_13  and  N_14 
REMARK    5  A    between atoms: N_14  and  C_15 
REMARK    6  A    between atoms: C_17  and  C_18 
ROOT
HETATM    1  C   UNL     1      26.142  41.791  49.961  1.00  0.00     0.253 C 
HETATM    2  N   UNL     1      25.958  40.970  51.057  1.00  0.00    -0.265 N 
HETATM    3  O   UNL     1      27.240  42.260  49.658  1.00  0.00    -0.270 OA
HETATM    4  H   UNL     1      25.085  40.443  51.133  1.00  0.00     0.190 HD
ENDROOT
BRANCH   2   5
HETATM    5  N   UNL     1      27.090  40.462  51.704  1.00  0.00    -0.249 N 
HETATM    6  C   UNL     1      27.893  41.231  52.522  1.00  0.00     0.339 C 
HETATM    7  N   UNL     1      27.380  42.479  52.783  1.00  0.00    -0.308 N 
HETATM    8  O   UNL     1      28.946  40.767  52.946  1.00  0.00    -0.245 OA
HETATM    9  H   UNL     1      26.569  42.712  52.228  1.00  0.00     0.170 HD
HETATM   10  H   UNL     1      27.505  39.614  51.323  1.00  0.00     0.192 HD
BRANCH   7  11
HETATM   11  C   UNL     1      27.899  43.478  53.625  1.00  0.00     0.037 A 
HETATM   12  C   UNL     1      28.998  43.294  54.467  1.00  0.00     0.045 A 
HETATM   13  C   UNL     1      29.456  44.334  55.297  1.00  0.00     0.050 A 
HETATM   14  C   UNL     1      28.802  45.573  55.260  1.00  0.00     0.016 A 
HETATM   15  C   UNL     1      27.704  45.765  54.425  1.00  0.00     0.003 A 
HETATM   16  C   UNL     1      27.254  44.721  53.614  1.00  0.00     0.029 A 
BRANCH  13  17
HETATM   17  C   UNL     1      30.654  44.137  56.193  1.00  0.00     0.417 C 
HETATM   18  F   UNL     1      30.601  44.850  57.351  1.00  0.00    -0.166 F 
HETATM   19  F   UNL     1      30.819  42.836  56.559  1.00  0.00    -0.166 F 
HETATM   20  F   UNL     1      31.822  44.502  55.589  1.00  0.00    -0.166 F 
ENDBRANCH  13  17
ENDBRANCH   7  11
ENDBRANCH   2   5
BRANCH   1  21
HETATM   21  C   UNL     1      24.849  42.220  49.260  1.00  0.00     0.228 C 
BRANCH  21  22
HETATM   22  N   UNL     1      24.542  43.641  49.307  1.00  0.00    -0.334 N 
HETATM   23  C   UNL     1      23.537  44.167  50.047  1.00  0.00     0.322 C 
HETATM   24  N   UNL     1      23.547  45.507  50.269  1.00  0.00    -0.293 N 
HETATM   25  O   UNL     1      22.604  43.478  50.462  1.00  0.00    -0.247 OA
HETATM   26  H   UNL     1      22.736  45.835  50.772  1.00  0.00     0.172 HD
HETATM   27  H   UNL     1      25.311  44.290  49.143  1.00  0.00     0.164 HD
BRANCH  24  28
HETATM   28  C   UNL     1      24.534  46.446  49.947  1.00  0.00     0.131 A 
HETATM   29  N   UNL     1      25.840  46.122  50.073  1.00  0.00    -0.243 NA
HETATM   30  C   UNL     1      26.751  47.077  49.767  1.00  0.00     0.125 A 
HETATM   31  C   UNL     1      26.426  48.362  49.351  1.00  0.00    -0.044 A 
HETATM   32  C   UNL     1      27.487  49.357  49.002  1.00  0.00     0.049 C 
HETATM   33  C   UNL     1      25.073  48.666  49.215  1.00  0.00     0.012 A 
HETATM   34  C   UNL     1      24.115  47.701  49.521  1.00  0.00     0.051 A 
ENDBRANCH  24  28
ENDBRANCH  21  22
ENDBRANCH   1  21
TORSDOF 6
ENDMDL
MODEL 6
REMARK VINA RESULT:      -9.6      3.554      6.162
REMARK  6 active torsions:
REMARK  status: ('A' for Active; 'I' for Inactive)
REMARK    1  A    between atoms: C_5  and  N_6 
REMARK       I    between atoms: N_6  and  C_7 
REMARK       I    between atoms: C_7  and  N_8 
REMARK    2  A    between atoms: N_8  and  C_9 
REMARK    3  A    between atoms: C_9  and  C_10 
REMARK       I    between atoms: C_10  and  N_11 
REMARK    4  A    between atoms: N_11  and  N_12 
REMARK       I    between atoms: N_12  and  C_13 
REMARK       I    between atoms: C_13  and  N_14 
REMARK    5  A    between atoms: N_14  and  C_15 
REMARK    6  A    between atoms: C_17  and  C_18 
ROOT
HETATM    1  C   UNL     1      25.906  46.900  51.225  1.00  0.00     0.253 C 
HETATM    2  N   UNL     1      25.505  46.605  52.515  1.00  0.00    -0.265 N 
HETATM    3  O   UNL     1      26.450  47.964  50.925  1.00  0.00    -0.270 OA
HETATM    4  H   UNL     1      25.261  45.638  52.742  1.00  0.00     0.190 HD
ENDROOT
BRANCH   2   5
HETATM    5  N   UNL     1      25.943  47.434  53.553  1.00  0.00    -0.249 N 
HETATM    6  C   UNL     1      26.905  47.047  54.465  1.00  0.00     0.339 C 
HETATM    7  N   UNL     1      27.514  45.855  54.152  1.00  0.00    -0.308 N 
HETATM    8  O   UNL     1      27.144  47.762  55.432  1.00  0.00    -0.245 OA
HETATM    9  H   UNL     1      27.076  45.361  53.387  1.00  0.00     0.170 HD
HETATM   10  H   UNL     1      25.330  48.197  53.831  1.00  0.00     0.192 HD
BRANCH   7  11
HETATM   11  C   UNL     1      28.572  45.214  54.819  1.00  0.00     0.037 A 
HETATM   12  C   UNL     1      29.064  45.613  56.064  1.00  0.00     0.045 A 
HETATM   13  C   UNL     1      30.138  44.935  56.668  1.00  0.00     0.050 A 
HETATM   14  C   UNL     1      30.706  43.834  56.011  1.00  0.00     0.016 A 
HETATM   15  C   UNL     1      30.223  43.431  54.768  1.00  0.00     0.003 A 
HETATM   16  C   UNL     1      29.163  44.120  54.175  1.00  0.00     0.029 A 
BRANCH  13  17
HETATM   17  C   UNL     1      30.657  45.357  58.021  1.00  0.00     0.417 C 
HETATM   18  F   UNL     1      31.004  46.671  58.093  1.00  0.00    -0.166 F 
HETATM   19  F   UNL     1      29.746  45.153  59.012  1.00  0.00    -0.166 F 
HETATM   20  F   UNL     1      31.770  44.662  58.393  1.00  0.00    -0.166 F 
ENDBRANCH  13  17
ENDBRANCH   7  11
ENDBRANCH   2   5
BRANCH   1  21
HETATM   21  C   UNL     1      25.457  45.885  50.169  1.00  0.00     0.228 C 
BRANCH  21  22
HETATM   22  N   UNL     1      25.691  44.487  50.492  1.00  0.00    -0.334 N 
HETATM   23  C   UNL     1      24.740  43.665  50.999  1.00  0.00     0.322 C 
HETATM   24  N   UNL     1      24.971  42.327  50.957  1.00  0.00    -0.293 N 
HETATM   25  O   UNL     1      23.723  44.101  51.539  1.00  0.00    -0.247 OA
HETATM   26  H   UNL     1      24.251  41.783  51.409  1.00  0.00     0.172 HD
HETATM   27  H   UNL     1      26.410  43.998  49.960  1.00  0.00     0.164 HD
BRANCH  24  28
HETATM   28  C   UNL     1      26.016  41.632  50.338  1.00  0.00     0.131 A 
HETATM   29  N   UNL     1      26.220  41.765  49.009  1.00  0.00    -0.243 NA
HETATM   30  C   UNL     1      27.234  41.052  48.460  1.00  0.00     0.125 A 
HETATM   31  C   UNL     1      28.058  40.189  49.172  1.00  0.00    -0.044 A 
HETATM   32  C   UNL     1      29.177  39.457  48.504  1.00  0.00     0.049 C 
HETATM   33  C   UNL     1      27.835  40.082  50.543  1.00  0.00     0.012 A 
HETATM   34  C   UNL     1      26.801  40.806  51.133  1.00  0.00     0.051 A 
ENDBRANCH  24  28
ENDBRANCH  21  22
ENDBRANCH   1  21
TORSDOF 6
ENDMDL
MODEL 7
REMARK VINA RESULT:      -9.6      3.011      3.957
REMARK  6 active torsions:
REMARK  status: ('A' for Active; 'I' for Inactive)
REMARK    1  A    between atoms: C_5  and  N_6 
REMARK       I    between atoms: N_6  and  C_7 
REMARK       I    between atoms: C_7  and  N_8 
REMARK    2  A    between atoms: N_8  and  C_9 
REMARK    3  A    between atoms: C_9  and  C_10 
REMARK       I    between atoms: C_10  and  N_11 
REMARK    4  A    between atoms: N_11  and  N_12 
REMARK       I    between atoms: N_12  and  C_13 
REMARK       I    between atoms: C_13  and  N_14 
REMARK    5  A    between atoms: N_14  and  C_15 
REMARK    6  A    between atoms: C_17  and  C_18 
ROOT
HETATM    1  C   UNL     1      22.614  46.222  48.792  1.00  0.00     0.253 C 
HETATM    2  N   UNL     1      23.516  46.017  49.820  1.00  0.00    -0.265 N 
HETATM    3  O   UNL     1      21.928  45.315  48.319  1.00  0.00    -0.270 OA
HETATM    4  H   UNL     1      23.891  46.831  50.311  1.00  0.00     0.190 HD
ENDROOT
BRANCH   2   5
HETATM    5  N   UNL     1      23.477  44.798  50.504  1.00  0.00    -0.249 N 
HETATM    6  C   UNL     1      24.420  44.437  51.446  1.00  0.00     0.339 C 
HETATM    7  N   UNL     1      25.287  45.452  51.775  1.00  0.00    -0.308 N 
HETATM    8  O   UNL     1      24.412  43.300  51.906  1.00  0.00    -0.245 OA
HETATM    9  H   UNL     1      25.207  46.266  51.183  1.00  0.00     0.170 HD
HETATM   10  H   UNL     1      22.941  44.042  50.082  1.00  0.00     0.192 HD
BRANCH   7  11
HETATM   11  C   UNL     1      26.309  45.448  52.739  1.00  0.00     0.037 A 
HETATM   12  C   UNL     1      27.313  44.478  52.807  1.00  0.00     0.045 A 
HETATM   13  C   UNL     1      28.299  44.527  53.809  1.00  0.00     0.050 A 
HETATM   14  C   UNL     1      28.274  45.575  54.740  1.00  0.00     0.016 A 
HETATM   15  C   UNL     1      27.276  46.545  54.681  1.00  0.00     0.003 A 
HETATM   16  C   UNL     1      26.298  46.479  53.687  1.00  0.00     0.029 A 
BRANCH  13  17
HETATM   17  C   UNL     1      29.391  43.488  53.870  1.00  0.00     0.417 C 
HETATM   18  F   UNL     1      30.386  43.783  54.751  1.00  0.00    -0.166 F 
HETATM   19  F   UNL     1      28.920  42.262  54.228  1.00  0.00    -0.166 F 
HETATM   20  F   UNL     1      30.008  43.309  52.666  1.00  0.00    -0.166 F 
ENDBRANCH  13  17
ENDBRANCH   7  11
ENDBRANCH   2   5
BRANCH   1  21
HETATM   21  C   UNL     1      22.666  47.620  48.166  1.00  0.00     0.228 C 
BRANCH  21  22
HETATM   22  N   UNL     1      21.986  48.672  48.904  1.00  0.00    -0.334 N 
HETATM   23  C   UNL     1      22.612  49.769  49.394  1.00  0.00     0.322 C 
HETATM   24  N   UNL     1      21.842  50.822  49.773  1.00  0.00    -0.293 N 
HETATM   25  O   UNL     1      23.832  49.805  49.555  1.00  0.00    -0.247 OA
HETATM   26  H   UNL     1      22.371  51.576  50.186  1.00  0.00     0.172 HD
HETATM   27  H   UNL     1      20.999  48.823  48.699  1.00  0.00     0.164 HD
BRANCH  24  28
HETATM   28  C   UNL     1      20.464  51.008  49.615  1.00  0.00     0.131 A 
HETATM   29  N   UNL     1      19.596  50.283  50.355  1.00  0.00    -0.243 NA
HETATM   30  C   UNL     1      18.274  50.492  50.144  1.00  0.00     0.125 A 
HETATM   31  C   UNL     1      17.761  51.384  49.212  1.00  0.00    -0.044 A 
HETATM   32  C   UNL     1      16.287  51.582  49.055  1.00  0.00     0.049 C 
HETATM   33  C   UNL     1      18.677  52.129  48.472  1.00  0.00     0.012 A 
HETATM   34  C   UNL     1      20.043  51.937  48.671  1.00  0.00     0.051 A 
ENDBRANCH  24  28
ENDBRANCH  21  22
ENDBRANCH   1  21
TORSDOF 6
ENDMDL
MODEL 8
REMARK VINA RESULT:      -9.3     12.495     13.453
REMARK  6 active torsions:
REMARK  status: ('A' for Active; 'I' for Inactive)
REMARK    1  A    between atoms: C_5  and  N_6 
REMARK       I    between atoms: N_6  and  C_7 
REMARK       I    between atoms: C_7  and  N_8 
REMARK    2  A    between atoms: N_8  and  C_9 
REMARK    3  A    between atoms: C_9  and  C_10 
REMARK       I    between atoms: C_10  and  N_11 
REMARK    4  A    between atoms: N_11  and  N_12 
REMARK       I    between atoms: N_12  and  C_13 
REMARK       I    between atoms: C_13  and  N_14 
REMARK    5  A    between atoms: N_14  and  C_15 
REMARK    6  A    between atoms: C_17  and  C_18 
ROOT
HETATM    1  C   UNL     1      28.799  46.606  39.647  1.00  0.00     0.253 C 
HETATM    2  N   UNL     1      29.947  47.374  39.607  1.00  0.00    -0.265 N 
HETATM    3  O   UNL     1      28.811  45.406  39.924  1.00  0.00    -0.270 OA
HETATM    4  H   UNL     1      29.855  48.392  39.587  1.00  0.00     0.190 HD
ENDROOT
BRANCH   2   5
HETATM    5  N   UNL     1      31.127  46.832  40.128  1.00  0.00    -0.249 N 
HETATM    6  C   UNL     1      32.031  47.573  40.863  1.00  0.00     0.339 C 
HETATM    7  N   UNL     1      31.581  48.831  41.184  1.00  0.00    -0.308 N 
HETATM    8  O   UNL     1      33.110  47.078  41.171  1.00  0.00    -0.245 OA
HETATM    9  H   UNL     1      30.722  49.090  40.719  1.00  0.00     0.170 HD
HETATM   10  H   UNL     1      31.477  45.978  39.700  1.00  0.00     0.192 HD
BRANCH   7  11
HETATM   11  C   UNL     1      32.211  49.809  41.974  1.00  0.00     0.037 A 
HETATM   12  C   UNL     1      33.538  50.213  41.803  1.00  0.00     0.045 A 
HETATM   13  C   UNL     1      34.110  51.187  42.641  1.00  0.00     0.050 A 
HETATM   14  C   UNL     1      33.327  51.766  43.649  1.00  0.00     0.016 A 
HETATM   15  C   UNL     1      32.003  51.368  43.827  1.00  0.00     0.003 A 
HETATM   16  C   UNL     1      31.451  50.392  42.995  1.00  0.00     0.029 A 
BRANCH  13  17
HETATM   17  C   UNL     1      35.538  51.634  42.443  1.00  0.00     0.417 C 
HETATM   18  F   UNL     1      36.455  50.642  42.609  1.00  0.00    -0.166 F 
HETATM   19  F   UNL     1      35.754  52.142  41.198  1.00  0.00    -0.166 F 
HETATM   20  F   UNL     1      35.901  52.620  43.313  1.00  0.00    -0.166 F 
ENDBRANCH  13  17
ENDBRANCH   7  11
ENDBRANCH   2   5
BRANCH   1  21
HETATM   21  C   UNL     1      27.538  47.317  39.143  1.00  0.00     0.228 C 
BRANCH  21  22
HETATM   22  N   UNL     1      27.539  48.767  39.252  1.00  0.00    -0.334 N 
HETATM   23  C   UNL     1      26.473  49.489  39.674  1.00  0.00     0.322 C 
HETATM   24  N   UNL     1      26.686  50.778  40.041  1.00  0.00    -0.293 N 
HETATM   25  O   UNL     1      25.332  49.025  39.673  1.00  0.00    -0.247 OA
HETATM   26  H   UNL     1      25.839  51.270  40.282  1.00  0.00     0.172 HD
HETATM   27  H   UNL     1      28.435  49.221  39.430  1.00  0.00     0.164 HD
BRANCH  24  28
HETATM   28  C   UNL     1      27.897  51.467  40.178  1.00  0.00     0.131 A 
HETATM   29  N   UNL     1      28.825  51.400  39.198  1.00  0.00    -0.243 NA
HETATM   30  C   UNL     1      29.986  52.071  39.393  1.00  0.00     0.125 A 
HETATM   31  C   UNL     1      30.284  52.804  40.536  1.00  0.00    -0.044 A 
HETATM   32  C   UNL     1      31.576  53.543  40.669  1.00  0.00     0.049 C 
HETATM   33  C   UNL     1      29.304  52.868  41.524  1.00  0.00     0.012 A 
HETATM   34  C   UNL     1      28.099  52.190  41.347  1.00  0.00     0.051 A 
ENDBRANCH  24  28
ENDBRANCH  21  22
ENDBRANCH   1  21
TORSDOF 6
ENDMDL
MODEL 9
REMARK VINA RESULT:      -9.3      5.209     10.824
REMARK  6 active torsions:
REMARK  status: ('A' for Active; 'I' for Inactive)
REMARK    1  A    between atoms: C_5  and  N_6 
REMARK       I    between atoms: N_6  and  C_7 
REMARK       I    between atoms: C_7  and  N_8 
REMARK    2  A    between atoms: N_8  and  C_9 
REMARK    3  A    between atoms: C_9  and  C_10 
REMARK       I    between atoms: C_10  and  N_11 
REMARK    4  A    between atoms: N_11  and  N_12 
REMARK       I    between atoms: N_12  and  C_13 
REMARK       I    between atoms: C_13  and  N_14 
REMARK    5  A    between atoms: N_14  and  C_15 
REMARK    6  A    between atoms: C_17  and  C_18 
ROOT
HETATM    1  C   UNL     1      26.131  46.537  49.684  1.00  0.00     0.253 C 
HETATM    2  N   UNL     1      24.912  47.185  49.750  1.00  0.00    -0.265 N 
HETATM    3  O   UNL     1      27.132  47.052  49.183  1.00  0.00    -0.270 OA
HETATM    4  H   UNL     1      24.187  46.803  50.360  1.00  0.00     0.190 HD
ENDROOT
BRANCH   2   5
HETATM    5  N   UNL     1      24.871  48.553  49.457  1.00  0.00    -0.249 N 
HETATM    6  C   UNL     1      23.704  49.214  49.129  1.00  0.00     0.339 C 
HETATM    7  N   UNL     1      22.573  48.449  49.293  1.00  0.00    -0.308 N 
HETATM    8  O   UNL     1      23.754  50.378  48.747  1.00  0.00    -0.245 OA
HETATM    9  H   UNL     1      22.761  47.476  49.487  1.00  0.00     0.170 HD
HETATM   10  H   UNL     1      25.742  48.996  49.174  1.00  0.00     0.192 HD
BRANCH   7  11
HETATM   11  C   UNL     1      21.230  48.829  49.121  1.00  0.00     0.037 A 
HETATM   12  C   UNL     1      20.782  50.151  49.167  1.00  0.00     0.045 A 
HETATM   13  C   UNL     1      19.419  50.459  49.002  1.00  0.00     0.050 A 
HETATM   14  C   UNL     1      18.508  49.418  48.774  1.00  0.00     0.016 A 
HETATM   15  C   UNL     1      18.946  48.097  48.729  1.00  0.00     0.003 A 
HETATM   16  C   UNL     1      20.300  47.805  48.905  1.00  0.00     0.029 A 
BRANCH  13  17
HETATM   17  C   UNL     1      18.941  51.889  49.035  1.00  0.00     0.417 C 
HETATM   18  F   UNL     1      18.781  52.389  50.291  1.00  0.00    -0.166 F 
HETATM   19  F   UNL     1      19.795  52.736  48.398  1.00  0.00    -0.166 F 
HETATM   20  F   UNL     1      17.734  52.050  48.419  1.00  0.00    -0.166 F 
ENDBRANCH  13  17
ENDBRANCH   7  11
ENDBRANCH   2   5
BRANCH   1  21
HETATM   21  C   UNL     1      26.096  45.066  50.114  1.00  0.00     0.228 C 
BRANCH  21  22
HETATM   22  N   UNL     1      26.291  44.814  51.532  1.00  0.00    -0.334 N 
HETATM   23  C   UNL     1      25.441  44.078  52.287  1.00  0.00     0.322 C 
HETATM   24  N   UNL     1      25.880  43.643  53.496  1.00  0.00    -0.293 N 
HETATM   25  O   UNL     1      24.283  43.852  51.931  1.00  0.00    -0.247 OA
HETATM   26  H   UNL     1      25.173  43.158  54.028  1.00  0.00     0.172 HD
HETATM   27  H   UNL     1      27.250  44.812  51.879  1.00  0.00     0.164 HD
BRANCH  24  28
HETATM   28  C   UNL     1      27.162  43.732  54.052  1.00  0.00     0.131 A 
HETATM   29  N   UNL     1      27.571  44.887  54.621  1.00  0.00    -0.243 NA
HETATM   30  C   UNL     1      28.829  44.921  55.125  1.00  0.00     0.125 A 
HETATM   31  C   UNL     1      29.720  43.856  55.078  1.00  0.00    -0.044 A 
HETATM   32  C   UNL     1      31.084  43.958  55.681  1.00  0.00     0.049 C 
HETATM   33  C   UNL     1      29.267  42.673  54.499  1.00  0.00     0.012 A 
HETATM   34  C   UNL     1      27.977  42.609  53.975  1.00  0.00     0.051 A 
ENDBRANCH  24  28
ENDBRANCH  21  22
ENDBRANCH   1  21
TORSDOF 6
ENDMDL
MODEL 10
REMARK VINA RESULT:      -9.0      3.698      5.025
REMARK  6 active torsions:
REMARK  status: ('A' for Active; 'I' for Inactive)
REMARK    1  A    between atoms: C_5  and  N_6 
REMARK       I    between atoms: N_6  and  C_7 
REMARK       I    between atoms: C_7  and  N_8 
REMARK    2  A    between atoms: N_8  and  C_9 
REMARK    3  A    between atoms: C_9  and  C_10 
REMARK       I    between atoms: C_10  and  N_11 
REMARK    4  A    between atoms: N_11  and  N_12 
REMARK       I    between atoms: N_12  and  C_13 
REMARK       I    between atoms: C_13  and  N_14 
REMARK    5  A    between atoms: N_14  and  C_15 
REMARK    6  A    between atoms: C_17  and  C_18 
ROOT
HETATM    1  C   UNL     1      22.863  45.048  48.614  1.00  0.00     0.253 C 
HETATM    2  N   UNL     1      23.877  44.673  49.476  1.00  0.00    -0.265 N 
HETATM    3  O   UNL     1      23.072  45.678  47.577  1.00  0.00    -0.270 OA
HETATM    4  H   UNL     1      23.675  43.976  50.196  1.00  0.00     0.190 HD
ENDROOT
BRANCH   2   5
HETATM    5  N   UNL     1      25.200  44.803  49.041  1.00  0.00    -0.249 N 
HETATM    6  C   UNL     1      26.263  44.951  49.910  1.00  0.00     0.339 C 
HETATM    7  N   UNL     1      25.924  44.779  51.231  1.00  0.00    -0.308 N 
HETATM    8  O   UNL     1      27.378  45.200  49.465  1.00  0.00    -0.245 OA
HETATM    9  H   UNL     1      24.928  44.714  51.392  1.00  0.00     0.170 HD
HETATM   10  H   UNL     1      25.349  45.108  48.082  1.00  0.00     0.192 HD
BRANCH   7  11
HETATM   11  C   UNL     1      26.764  44.789  52.357  1.00  0.00     0.037 A 
HETATM   12  C   UNL     1      27.725  43.810  52.622  1.00  0.00     0.045 A 
HETATM   13  C   UNL     1      28.524  43.874  53.778  1.00  0.00     0.050 A 
HETATM   14  C   UNL     1      28.357  44.948  54.663  1.00  0.00     0.016 A 
HETATM   15  C   UNL     1      27.400  45.928  54.408  1.00  0.00     0.003 A 
HETATM   16  C   UNL     1      26.607  45.846  53.262  1.00  0.00     0.029 A 
BRANCH  13  17
HETATM   17  C   UNL     1      29.572  42.824  54.052  1.00  0.00     0.417 C 
HETATM   18  F   UNL     1      30.169  42.945  55.270  1.00  0.00    -0.166 F 
HETATM   19  F   UNL     1      29.065  41.561  54.005  1.00  0.00    -0.166 F 
HETATM   20  F   UNL     1      30.587  42.849  53.141  1.00  0.00    -0.166 F 
ENDBRANCH  13  17
ENDBRANCH   7  11
ENDBRANCH   2   5
BRANCH   1  21
HETATM   21  C   UNL     1      21.448  44.781  49.138  1.00  0.00     0.228 C 
BRANCH  21  22
HETATM   22  N   UNL     1      20.441  45.765  48.777  1.00  0.00    -0.334 N 
HETATM   23  C   UNL     1      19.151  45.453  48.503  1.00  0.00     0.322 C 
HETATM   24  N   UNL     1      18.242  46.462  48.498  1.00  0.00    -0.293 N 
HETATM   25  O   UNL     1      18.808  44.308  48.206  1.00  0.00    -0.247 OA
HETATM   26  H   UNL     1      17.317  46.165  48.224  1.00  0.00     0.172 HD
HETATM   27  H   UNL     1      20.564  46.712  49.135  1.00  0.00     0.164 HD
BRANCH  24  28
HETATM   28  C   UNL     1      18.410  47.801  48.868  1.00  0.00     0.131 A 
HETATM   29  N   UNL     1      18.785  48.111  50.129  1.00  0.00    -0.243 NA
HETATM   30  C   UNL     1      18.912  49.425  50.435  1.00  0.00     0.125 A 
HETATM   31  C   UNL     1      18.668  50.463  49.545  1.00  0.00    -0.044 A 
HETATM   32  C   UNL     1      18.857  51.891  49.947  1.00  0.00     0.049 C 
HETATM   33  C   UNL     1      18.297  50.116  48.248  1.00  0.00     0.012 A 
HETATM   34  C   UNL     1      18.161  48.772  47.905  1.00  0.00     0.051 A 
ENDBRANCH  24  28
ENDBRANCH  21  22
ENDBRANCH   1  21
TORSDOF 6
ENDMDL
