MODEL 1
REMARK VINA RESULT:     -10.2      0.000      0.000
REMARK  3 active torsions:
REMARK  status: ('A' for Active; 'I' for Inactive)
REMARK    1  A    between atoms: C_6  and  N_7 
REMARK       I    between atoms: N_7  and  C_8 
REMARK    2  A    between atoms: C_8  and  C_9 
REMARK    3  A    between atoms: C_20  and  O_21 
ROOT
HETATM    1  C   UNL     1      25.408  44.680  52.605  1.00  0.00     0.153 A 
HETATM    2  N   UNL     1      24.469  43.848  52.093  1.00  0.00    -0.168 NA
HETATM    3  N   UNL     1      23.923  44.549  51.075  1.00  0.00    -0.276 N 
HETATM    4  H   UNL     1      23.187  44.115  50.531  1.00  0.00     0.189 HD
HETATM    5  C   UNL     1      24.470  45.784  50.910  1.00  0.00     0.069 A 
HETATM    6  C   UNL     1      25.443  45.896  51.879  1.00  0.00     0.007 A 
HETATM    7  C   UNL     1      26.255  47.134  52.027  1.00  0.00     0.048 C 
HETATM    8  C   UNL     1      26.350  47.895  50.684  1.00  0.00     0.044 C 
HETATM    9  C   UNL     1      25.065  47.901  49.861  1.00  0.00    -0.043 A 
HETATM   10  C   UNL     1      24.158  46.818  49.940  1.00  0.00    -0.001 A 
HETATM   11  C   UNL     1      24.819  48.939  48.954  1.00  0.00     0.044 A 
HETATM   12  C   UNL     1      23.675  48.930  48.151  1.00  0.00     0.068 A 
HETATM   13  C   UNL     1      22.781  47.860  48.240  1.00  0.00     0.037 A 
HETATM   14  C   UNL     1      23.022  46.805  49.129  1.00  0.00     0.017 A 
ENDROOT
BRANCH   1  15
HETATM   15  C   UNL     1      26.234  44.295  53.766  1.00  0.00     0.277 C 
HETATM   16  N   UNL     1      27.567  44.605  53.572  1.00  0.00    -0.322 N 
HETATM   17  H   UNL     1      27.748  45.040  52.670  1.00  0.00     0.169 HD
HETATM   18  O   UNL     1      25.747  43.766  54.760  1.00  0.00    -0.266 OA
BRANCH  16  19
HETATM   19  C   UNL     1      28.646  44.401  54.447  1.00  0.00     0.037 A 
HETATM   20  C   UNL     1      29.074  45.339  55.387  1.00  0.00     0.072 A 
HETATM   21  C   UNL     1      30.161  45.052  56.211  1.00  0.00     0.124 A 
HETATM   22  C   UNL     1      30.851  43.842  56.119  1.00  0.00    -0.023 A 
HETATM   23  F   UNL     1      30.546  45.968  57.112  1.00  0.00    -0.205 F 
HETATM   24  C   UNL     1      31.997  43.554  57.039  1.00  0.00     0.051 C 
HETATM   25  C   UNL     1      30.412  42.895  55.189  1.00  0.00     0.012 A 
HETATM   26  C   UNL     1      29.322  43.177  54.359  1.00  0.00     0.030 A 
ENDBRANCH  16  19
ENDBRANCH   1  15
BRANCH  12  27
HETATM   27  O   UNL     1      23.552  50.012  47.324  1.00  0.00    -0.356 OA
HETATM   28  C   UNL     1      23.093  51.223  47.912  1.00  0.00     0.210 C 
ENDBRANCH  12  27
TORSDOF 3
ENDMDL
MODEL 2
REMARK VINA RESULT:      -9.5      3.158      8.801
REMARK  3 active torsions:
REMARK  status: ('A' for Active; 'I' for Inactive)
REMARK    1  A    between atoms: C_6  and  N_7 
REMARK       I    between atoms: N_7  and  C_8 
REMARK    2  A    between atoms: C_8  and  C_9 
REMARK    3  A    between atoms: C_20  and  O_21 
ROOT
HETATM    1  C   UNL     1      26.569  44.644  51.650  1.00  0.00     0.153 A 
HETATM    2  N   UNL     1      27.012  43.426  51.255  1.00  0.00    -0.168 NA
HETATM    3  N   UNL     1      27.950  43.100  52.171  1.00  0.00    -0.276 N 
HETATM    4  H   UNL     1      28.425  42.209  52.080  1.00  0.00     0.189 HD
HETATM    5  C   UNL     1      28.124  44.048  53.132  1.00  0.00     0.069 A 
HETATM    6  C   UNL     1      27.236  45.056  52.830  1.00  0.00     0.007 A 
HETATM    7  C   UNL     1      27.148  46.289  53.658  1.00  0.00     0.048 C 
HETATM    8  C   UNL     1      27.606  46.014  55.109  1.00  0.00     0.044 C 
HETATM    9  C   UNL     1      28.803  45.077  55.234  1.00  0.00    -0.043 A 
HETATM   10  C   UNL     1      29.025  44.064  54.272  1.00  0.00    -0.001 A 
HETATM   11  C   UNL     1      29.643  45.157  56.352  1.00  0.00     0.044 A 
HETATM   12  C   UNL     1      30.710  44.268  56.510  1.00  0.00     0.068 A 
HETATM   13  C   UNL     1      30.925  43.275  55.552  1.00  0.00     0.037 A 
HETATM   14  C   UNL     1      30.084  43.170  54.436  1.00  0.00     0.017 A 
ENDROOT
BRANCH   1  15
HETATM   15  C   UNL     1      25.534  45.375  50.893  1.00  0.00     0.277 C 
HETATM   16  N   UNL     1      25.925  46.670  50.608  1.00  0.00    -0.322 N 
HETATM   17  H   UNL     1      26.850  46.894  50.968  1.00  0.00     0.169 HD
HETATM   18  O   UNL     1      24.471  44.850  50.579  1.00  0.00    -0.266 OA
BRANCH  16  19
HETATM   19  C   UNL     1      25.220  47.659  49.903  1.00  0.00     0.037 A 
HETATM   20  C   UNL     1      23.829  47.713  49.820  1.00  0.00     0.072 A 
HETATM   21  C   UNL     1      23.216  48.731  49.090  1.00  0.00     0.124 A 
HETATM   22  C   UNL     1      23.960  49.706  48.424  1.00  0.00    -0.023 A 
HETATM   23  F   UNL     1      21.876  48.765  49.033  1.00  0.00    -0.205 F 
HETATM   24  C   UNL     1      23.268  50.802  47.673  1.00  0.00     0.051 C 
HETATM   25  C   UNL     1      25.353  49.661  48.522  1.00  0.00     0.012 A 
HETATM   26  C   UNL     1      25.976  48.643  49.252  1.00  0.00     0.030 A 
ENDBRANCH  16  19
ENDBRANCH   1  15
BRANCH  12  27
HETATM   27  O   UNL     1      31.456  44.471  57.638  1.00  0.00    -0.356 OA
HETATM   28  C   UNL     1      30.956  45.412  58.581  1.00  0.00     0.210 C 
ENDBRANCH  12  27
TORSDOF 3
ENDMDL
MODEL 3
REMARK VINA RESULT:      -9.4      5.598      8.628
REMARK  3 active torsions:
REMARK  status: ('A' for Active; 'I' for Inactive)
REMARK    1  A    between atoms: C_6  and  N_7 
REMARK       I    between atoms: N_7  and  C_8 
REMARK    2  A    between atoms: C_8  and  C_9 
REMARK    3  A    between atoms: C_20  and  O_21 
ROOT
HETATM    1  C   UNL     1      27.145  42.439  51.634  1.00  0.00     0.153 A 
HETATM    2  N   UNL     1      26.360  43.520  51.415  1.00  0.00    -0.168 NA
HETATM    3  N   UNL     1      26.747  44.409  52.355  1.00  0.00    -0.276 N 
HETATM    4  H   UNL     1      26.292  45.314  52.380  1.00  0.00     0.189 HD
HETATM    5  C   UNL     1      27.743  43.950  53.161  1.00  0.00     0.069 A 
HETATM    6  C   UNL     1      28.032  42.679  52.713  1.00  0.00     0.007 A 
HETATM    7  C   UNL     1      29.070  41.840  53.369  1.00  0.00     0.048 C 
HETATM    8  C   UNL     1      30.135  42.722  54.062  1.00  0.00     0.044 C 
HETATM    9  C   UNL     1      29.582  43.962  54.758  1.00  0.00    -0.043 A 
HETATM   10  C   UNL     1      28.418  44.600  54.270  1.00  0.00    -0.001 A 
HETATM   11  C   UNL     1      30.276  44.529  55.834  1.00  0.00     0.044 A 
HETATM   12  C   UNL     1      29.814  45.698  56.446  1.00  0.00     0.068 A 
HETATM   13  C   UNL     1      28.661  46.317  55.961  1.00  0.00     0.037 A 
HETATM   14  C   UNL     1      27.964  45.773  54.874  1.00  0.00     0.017 A 
ENDROOT
BRANCH   1  15
HETATM   15  C   UNL     1      27.024  41.214  50.818  1.00  0.00     0.277 C 
HETATM   16  N   UNL     1      27.994  41.155  49.835  1.00  0.00    -0.322 N 
HETATM   17  H   UNL     1      28.618  41.959  49.843  1.00  0.00     0.169 HD
HETATM   18  O   UNL     1      26.149  40.381  51.028  1.00  0.00    -0.266 OA
BRANCH  16  19
HETATM   19  C   UNL     1      28.207  40.149  48.879  1.00  0.00     0.037 A 
HETATM   20  C   UNL     1      27.747  40.217  47.564  1.00  0.00     0.072 A 
HETATM   21  C   UNL     1      28.001  39.166  46.684  1.00  0.00     0.124 A 
HETATM   22  C   UNL     1      28.703  38.027  47.085  1.00  0.00    -0.023 A 
HETATM   23  F   UNL     1      27.556  39.260  45.422  1.00  0.00    -0.205 F 
HETATM   24  C   UNL     1      28.983  36.929  46.106  1.00  0.00     0.051 C 
HETATM   25  C   UNL     1      29.177  37.967  48.398  1.00  0.00     0.012 A 
HETATM   26  C   UNL     1      28.926  39.018  49.286  1.00  0.00     0.030 A 
ENDBRANCH  16  19
ENDBRANCH   1  15
BRANCH  12  27
HETATM   27  O   UNL     1      30.579  46.131  57.493  1.00  0.00    -0.356 OA
HETATM   28  C   UNL     1      31.013  45.148  58.425  1.00  0.00     0.210 C 
ENDBRANCH  12  27
TORSDOF 3
ENDMDL
MODEL 4
REMARK VINA RESULT:      -9.4      2.224      2.986
REMARK  3 active torsions:
REMARK  status: ('A' for Active; 'I' for Inactive)
REMARK    1  A    between atoms: C_6  and  N_7 
REMARK       I    between atoms: N_7  and  C_8 
REMARK    2  A    between atoms: C_8  and  C_9 
REMARK    3  A    between atoms: C_20  and  O_21 
ROOT
HETATM    1  C   UNL     1      25.219  45.611  50.030  1.00  0.00     0.153 A 
HETATM    2  N   UNL     1      24.222  44.714  49.844  1.00  0.00    -0.168 NA
HETATM    3  N   UNL     1      23.184  45.457  49.403  1.00  0.00    -0.276 N 
HETATM    4  H   UNL     1      22.311  44.987  49.187  1.00  0.00     0.189 HD
HETATM    5  C   UNL     1      23.470  46.782  49.295  1.00  0.00     0.069 A 
HETATM    6  C   UNL     1      24.785  46.915  49.683  1.00  0.00     0.007 A 
HETATM    7  C   UNL     1      25.457  48.241  49.716  1.00  0.00     0.048 C 
HETATM    8  C   UNL     1      24.802  49.217  48.710  1.00  0.00     0.044 C 
HETATM    9  C   UNL     1      23.283  49.116  48.621  1.00  0.00    -0.043 A 
HETATM   10  C   UNL     1      22.630  47.885  48.862  1.00  0.00    -0.001 A 
HETATM   11  C   UNL     1      22.530  50.224  48.211  1.00  0.00     0.044 A 
HETATM   12  C   UNL     1      21.143  50.132  48.069  1.00  0.00     0.068 A 
HETATM   13  C   UNL     1      20.506  48.914  48.315  1.00  0.00     0.037 A 
HETATM   14  C   UNL     1      21.246  47.791  48.708  1.00  0.00     0.017 A 
ENDROOT
BRANCH   1  15
HETATM   15  C   UNL     1      26.545  45.203  50.535  1.00  0.00     0.277 C 
HETATM   16  N   UNL     1      26.515  44.922  51.888  1.00  0.00    -0.322 N 
HETATM   17  H   UNL     1      25.592  45.046  52.300  1.00  0.00     0.169 HD
HETATM   18  O   UNL     1      27.524  45.136  49.800  1.00  0.00    -0.266 OA
BRANCH  16  19
HETATM   19  C   UNL     1      27.567  44.497  52.715  1.00  0.00     0.037 A 
HETATM   20  C   UNL     1      28.515  43.545  52.341  1.00  0.00     0.072 A 
HETATM   21  C   UNL     1      29.523  43.180  53.232  1.00  0.00     0.124 A 
HETATM   22  C   UNL     1      29.611  43.739  54.508  1.00  0.00    -0.023 A 
HETATM   23  F   UNL     1      30.427  42.268  52.844  1.00  0.00    -0.205 F 
HETATM   24  C   UNL     1      30.723  43.345  55.430  1.00  0.00     0.051 C 
HETATM   25  C   UNL     1      28.671  44.705  54.877  1.00  0.00     0.012 A 
HETATM   26  C   UNL     1      27.656  45.076  53.988  1.00  0.00     0.030 A 
ENDBRANCH  16  19
ENDBRANCH   1  15
BRANCH  12  27
HETATM   27  O   UNL     1      20.534  51.293  47.679  1.00  0.00    -0.356 OA
HETATM   28  C   UNL     1      19.718  51.948  48.643  1.00  0.00     0.210 C 
ENDBRANCH  12  27
TORSDOF 3
ENDMDL
MODEL 5
REMARK VINA RESULT:      -9.2      3.422      8.966
REMARK  3 active torsions:
REMARK  status: ('A' for Active; 'I' for Inactive)
REMARK    1  A    between atoms: C_6  and  N_7 
REMARK       I    between atoms: N_7  and  C_8 
REMARK    2  A    between atoms: C_8  and  C_9 
REMARK    3  A    between atoms: C_20  and  O_21 
ROOT
HETATM    1  C   UNL     1      25.552  44.111  51.441  1.00  0.00     0.153 A 
HETATM    2  N   UNL     1      25.977  42.913  50.973  1.00  0.00    -0.168 NA
HETATM    3  N   UNL     1      27.084  42.646  51.699  1.00  0.00    -0.276 N 
HETATM    4  H   UNL     1      27.579  41.779  51.523  1.00  0.00     0.189 HD
HETATM    5  C   UNL     1      27.384  43.613  52.609  1.00  0.00     0.069 A 
HETATM    6  C   UNL     1      26.404  44.571  52.475  1.00  0.00     0.007 A 
HETATM    7  C   UNL     1      26.407  45.808  53.302  1.00  0.00     0.048 C 
HETATM    8  C   UNL     1      27.140  45.573  54.644  1.00  0.00     0.044 C 
HETATM    9  C   UNL     1      28.387  44.700  54.545  1.00  0.00    -0.043 A 
HETATM   10  C   UNL     1      28.478  43.688  53.561  1.00  0.00    -0.001 A 
HETATM   11  C   UNL     1      29.414  44.835  55.488  1.00  0.00     0.044 A 
HETATM   12  C   UNL     1      30.536  44.004  55.446  1.00  0.00     0.068 A 
HETATM   13  C   UNL     1      30.621  43.012  54.467  1.00  0.00     0.037 A 
HETATM   14  C   UNL     1      29.594  42.851  53.527  1.00  0.00     0.017 A 
ENDROOT
BRANCH   1  15
HETATM   15  C   UNL     1      24.357  44.780  50.888  1.00  0.00     0.277 C 
HETATM   16  N   UNL     1      24.688  45.922  50.184  1.00  0.00    -0.322 N 
HETATM   17  H   UNL     1      25.690  46.105  50.169  1.00  0.00     0.169 HD
HETATM   18  O   UNL     1      23.228  44.334  51.061  1.00  0.00    -0.266 OA
BRANCH  16  19
HETATM   19  C   UNL     1      23.834  46.811  49.511  1.00  0.00     0.037 A 
HETATM   20  C   UNL     1      22.880  46.415  48.575  1.00  0.00     0.072 A 
HETATM   21  C   UNL     1      22.079  47.371  47.952  1.00  0.00     0.124 A 
HETATM   22  C   UNL     1      22.208  48.732  48.233  1.00  0.00    -0.023 A 
HETATM   23  F   UNL     1      21.163  46.962  47.061  1.00  0.00    -0.205 F 
HETATM   24  C   UNL     1      21.312  49.730  47.567  1.00  0.00     0.051 C 
HETATM   25  C   UNL     1      23.153  49.127  49.184  1.00  0.00     0.012 A 
HETATM   26  C   UNL     1      23.961  48.174  49.813  1.00  0.00     0.030 A 
ENDBRANCH  16  19
ENDBRANCH   1  15
BRANCH  12  27
HETATM   27  O   UNL     1      31.467  44.258  56.415  1.00  0.00    -0.356 OA
HETATM   28  C   UNL     1      31.818  43.178  57.272  1.00  0.00     0.210 C 
ENDBRANCH  12  27
TORSDOF 3
ENDMDL
MODEL 6
REMARK VINA RESULT:      -8.9      2.620      3.618
REMARK  3 active torsions:
REMARK  status: ('A' for Active; 'I' for Inactive)
REMARK    1  A    between atoms: C_6  and  N_7 
REMARK       I    between atoms: N_7  and  C_8 
REMARK    2  A    between atoms: C_8  and  C_9 
REMARK    3  A    between atoms: C_20  and  O_21 
ROOT
HETATM    1  C   UNL     1      25.660  46.045  52.557  1.00  0.00     0.153 A 
HETATM    2  N   UNL     1      25.257  47.261  52.114  1.00  0.00    -0.168 NA
HETATM    3  N   UNL     1      24.543  46.988  51.000  1.00  0.00    -0.276 N 
HETATM    4  H   UNL     1      24.129  47.761  50.491  1.00  0.00     0.189 HD
HETATM    5  C   UNL     1      24.467  45.660  50.713  1.00  0.00     0.069 A 
HETATM    6  C   UNL     1      25.171  45.021  51.709  1.00  0.00     0.007 A 
HETATM    7  C   UNL     1      25.328  43.542  51.724  1.00  0.00     0.048 C 
HETATM    8  C   UNL     1      24.157  42.854  50.983  1.00  0.00     0.044 C 
HETATM    9  C   UNL     1      23.689  43.575  49.723  1.00  0.00    -0.043 A 
HETATM   10  C   UNL     1      23.798  44.981  49.618  1.00  0.00    -0.001 A 
HETATM   11  C   UNL     1      23.066  42.855  48.696  1.00  0.00     0.044 A 
HETATM   12  C   UNL     1      22.580  43.508  47.559  1.00  0.00     0.068 A 
HETATM   13  C   UNL     1      22.697  44.896  47.461  1.00  0.00     0.037 A 
HETATM   14  C   UNL     1      23.302  45.633  48.488  1.00  0.00     0.017 A 
ENDROOT
BRANCH   1  15
HETATM   15  C   UNL     1      26.497  45.899  53.764  1.00  0.00     0.277 C 
HETATM   16  N   UNL     1      27.628  45.145  53.516  1.00  0.00    -0.322 N 
HETATM   17  H   UNL     1      27.688  44.822  52.552  1.00  0.00     0.169 HD
HETATM   18  O   UNL     1      26.182  46.406  54.835  1.00  0.00    -0.266 OA
BRANCH  16  19
HETATM   19  C   UNL     1      28.659  44.799  54.404  1.00  0.00     0.037 A 
HETATM   20  C   UNL     1      29.145  45.647  55.399  1.00  0.00     0.072 A 
HETATM   21  C   UNL     1      30.178  45.220  56.233  1.00  0.00     0.124 A 
HETATM   22  C   UNL     1      30.755  43.956  56.096  1.00  0.00    -0.023 A 
HETATM   23  F   UNL     1      30.621  46.051  57.188  1.00  0.00    -0.205 F 
HETATM   24  C   UNL     1      31.843  43.518  57.027  1.00  0.00     0.051 C 
HETATM   25  C   UNL     1      30.257  43.101  55.110  1.00  0.00     0.012 A 
HETATM   26  C   UNL     1      29.221  43.523  54.269  1.00  0.00     0.030 A 
ENDBRANCH  16  19
ENDBRANCH   1  15
BRANCH  12  27
HETATM   27  O   UNL     1      22.010  42.682  46.630  1.00  0.00    -0.356 OA
HETATM   28  C   UNL     1      22.193  41.284  46.813  1.00  0.00     0.210 C 
ENDBRANCH  12  27
TORSDOF 3
ENDMDL
MODEL 7
REMARK VINA RESULT:      -8.9      5.881      7.451
REMARK  3 active torsions:
REMARK  status: ('A' for Active; 'I' for Inactive)
REMARK    1  A    between atoms: C_6  and  N_7 
REMARK       I    between atoms: N_7  and  C_8 
REMARK    2  A    between atoms: C_8  and  C_9 
REMARK    3  A    between atoms: C_20  and  O_21 
ROOT
HETATM    1  C   UNL     1      27.996  41.688  51.384  1.00  0.00     0.153 A 
HETATM    2  N   UNL     1      27.285  42.567  50.636  1.00  0.00    -0.168 NA
HETATM    3  N   UNL     1      27.230  41.994  49.414  1.00  0.00    -0.276 N 
HETATM    4  H   UNL     1      26.732  42.479  48.676  1.00  0.00     0.189 HD
HETATM    5  C   UNL     1      27.866  40.793  49.346  1.00  0.00     0.069 A 
HETATM    6  C   UNL     1      28.363  40.560  50.609  1.00  0.00     0.007 A 
HETATM    7  C   UNL     1      29.148  39.336  50.923  1.00  0.00     0.048 C 
HETATM    8  C   UNL     1      28.769  38.178  49.970  1.00  0.00     0.044 C 
HETATM    9  C   UNL     1      28.525  38.596  48.523  1.00  0.00    -0.043 A 
HETATM   10  C   UNL     1      28.023  39.885  48.224  1.00  0.00    -0.001 A 
HETATM   11  C   UNL     1      28.711  37.674  47.486  1.00  0.00     0.044 A 
HETATM   12  C   UNL     1      28.437  38.024  46.161  1.00  0.00     0.068 A 
HETATM   13  C   UNL     1      27.948  39.300  45.874  1.00  0.00     0.037 A 
HETATM   14  C   UNL     1      27.739  40.229  46.902  1.00  0.00     0.017 A 
ENDROOT
BRANCH   1  15
HETATM   15  C   UNL     1      28.304  41.951  52.804  1.00  0.00     0.277 C 
HETATM   16  N   UNL     1      28.956  43.158  52.972  1.00  0.00    -0.322 N 
HETATM   17  H   UNL     1      29.111  43.653  52.095  1.00  0.00     0.169 HD
HETATM   18  O   UNL     1      27.997  41.161  53.689  1.00  0.00    -0.266 OA
BRANCH  16  19
HETATM   19  C   UNL     1      29.400  43.752  54.165  1.00  0.00     0.037 A 
HETATM   20  C   UNL     1      30.505  43.308  54.890  1.00  0.00     0.072 A 
HETATM   21  C   UNL     1      30.868  43.957  56.069  1.00  0.00     0.124 A 
HETATM   22  C   UNL     1      30.146  45.047  56.559  1.00  0.00    -0.023 A 
HETATM   23  F   UNL     1      31.940  43.515  56.744  1.00  0.00    -0.205 F 
HETATM   24  C   UNL     1      30.581  45.738  57.814  1.00  0.00     0.051 C 
HETATM   25  C   UNL     1      29.049  45.502  55.823  1.00  0.00     0.012 A 
HETATM   26  C   UNL     1      28.678  44.855  54.639  1.00  0.00     0.030 A 
ENDBRANCH  16  19
ENDBRANCH   1  15
BRANCH  12  27
HETATM   27  O   UNL     1      28.680  37.033  45.251  1.00  0.00    -0.356 OA
HETATM   28  C   UNL     1      29.507  37.364  44.142  1.00  0.00     0.210 C 
ENDBRANCH  12  27
TORSDOF 3
ENDMDL
MODEL 8
REMARK VINA RESULT:      -8.8      3.970      9.580
REMARK  3 active torsions:
REMARK  status: ('A' for Active; 'I' for Inactive)
REMARK    1  A    between atoms: C_6  and  N_7 
REMARK       I    between atoms: N_7  and  C_8 
REMARK    2  A    between atoms: C_8  and  C_9 
REMARK    3  A    between atoms: C_20  and  O_21 
ROOT
HETATM    1  C   UNL     1      23.779  46.648  49.506  1.00  0.00     0.153 A 
HETATM    2  N   UNL     1      23.284  45.449  49.116  1.00  0.00    -0.168 NA
HETATM    3  N   UNL     1      23.995  44.547  49.827  1.00  0.00    -0.276 N 
HETATM    4  H   UNL     1      23.790  43.563  49.701  1.00  0.00     0.189 HD
HETATM    5  C   UNL     1      24.917  45.112  50.654  1.00  0.00     0.069 A 
HETATM    6  C   UNL     1      24.794  46.473  50.479  1.00  0.00     0.007 A 
HETATM    7  C   UNL     1      25.662  47.433  51.212  1.00  0.00     0.048 C 
HETATM    8  C   UNL     1      26.156  46.824  52.545  1.00  0.00     0.044 C 
HETATM    9  C   UNL     1      26.519  45.345  52.475  1.00  0.00    -0.043 A 
HETATM   10  C   UNL     1      25.858  44.486  51.566  1.00  0.00    -0.001 A 
HETATM   11  C   UNL     1      27.448  44.808  53.375  1.00  0.00     0.044 A 
HETATM   12  C   UNL     1      27.748  43.443  53.362  1.00  0.00     0.068 A 
HETATM   13  C   UNL     1      27.096  42.604  52.457  1.00  0.00     0.037 A 
HETATM   14  C   UNL     1      26.151  43.122  51.562  1.00  0.00     0.017 A 
ENDROOT
BRANCH   1  15
HETATM   15  C   UNL     1      23.275  47.915  48.941  1.00  0.00     0.277 C 
HETATM   16  N   UNL     1      21.965  48.157  49.309  1.00  0.00    -0.322 N 
HETATM   17  H   UNL     1      21.576  47.425  49.900  1.00  0.00     0.169 HD
HETATM   18  O   UNL     1      23.976  48.632  48.235  1.00  0.00    -0.266 OA
BRANCH  16  19
HETATM   19  C   UNL     1      21.153  49.254  48.978  1.00  0.00     0.037 A 
HETATM   20  C   UNL     1      20.588  49.451  47.719  1.00  0.00     0.072 A 
HETATM   21  C   UNL     1      19.799  50.576  47.480  1.00  0.00     0.124 A 
HETATM   22  C   UNL     1      19.561  51.529  48.472  1.00  0.00    -0.023 A 
HETATM   23  F   UNL     1      19.259  50.738  46.263  1.00  0.00    -0.205 F 
HETATM   24  C   UNL     1      18.686  52.711  48.190  1.00  0.00     0.051 C 
HETATM   25  C   UNL     1      20.115  51.322  49.739  1.00  0.00     0.012 A 
HETATM   26  C   UNL     1      20.907  50.196  49.986  1.00  0.00     0.030 A 
ENDBRANCH  16  19
ENDBRANCH   1  15
BRANCH  12  27
HETATM   27  O   UNL     1      28.685  43.059  54.283  1.00  0.00    -0.356 OA
HETATM   28  C   UNL     1      29.423  44.094  54.922  1.00  0.00     0.210 C 
ENDBRANCH  12  27
TORSDOF 3
ENDMDL
MODEL 9
REMARK VINA RESULT:      -8.8      4.713      9.818
REMARK  3 active torsions:
REMARK  status: ('A' for Active; 'I' for Inactive)
REMARK    1  A    between atoms: C_6  and  N_7 
REMARK       I    between atoms: N_7  and  C_8 
REMARK    2  A    between atoms: C_8  and  C_9 
REMARK    3  A    between atoms: C_20  and  O_21 
ROOT
HETATM    1  C   UNL     1      23.904  48.125  49.209  1.00  0.00     0.153 A 
HETATM    2  N   UNL     1      25.079  48.691  49.573  1.00  0.00    -0.168 NA
HETATM    3  N   UNL     1      25.828  47.654  50.007  1.00  0.00    -0.276 N 
HETATM    4  H   UNL     1      26.770  47.841  50.331  1.00  0.00     0.189 HD
HETATM    5  C   UNL     1      25.190  46.454  49.934  1.00  0.00     0.069 A 
HETATM    6  C   UNL     1      23.944  46.723  49.410  1.00  0.00     0.007 A 
HETATM    7  C   UNL     1      22.940  45.646  49.199  1.00  0.00     0.048 C 
HETATM    8  C   UNL     1      23.633  44.278  48.994  1.00  0.00     0.044 C 
HETATM    9  C   UNL     1      24.853  44.042  49.879  1.00  0.00    -0.043 A 
HETATM   10  C   UNL     1      25.655  45.128  50.299  1.00  0.00    -0.001 A 
HETATM   11  C   UNL     1      25.238  42.736  50.207  1.00  0.00     0.044 A 
HETATM   12  C   UNL     1      26.386  42.500  50.969  1.00  0.00     0.068 A 
HETATM   13  C   UNL     1      27.168  43.579  51.385  1.00  0.00     0.037 A 
HETATM   14  C   UNL     1      26.808  44.890  51.050  1.00  0.00     0.017 A 
ENDROOT
BRANCH   1  15
HETATM   15  C   UNL     1      22.782  48.932  48.689  1.00  0.00     0.277 C 
HETATM   16  N   UNL     1      21.915  49.315  49.695  1.00  0.00    -0.322 N 
HETATM   17  H   UNL     1      22.196  48.976  50.613  1.00  0.00     0.169 HD
HETATM   18  O   UNL     1      22.679  49.204  47.497  1.00  0.00    -0.266 OA
BRANCH  16  19
HETATM   19  C   UNL     1      20.749  50.091  49.593  1.00  0.00     0.037 A 
HETATM   20  C   UNL     1      20.658  51.264  48.846  1.00  0.00     0.072 A 
HETATM   21  C   UNL     1      19.458  51.973  48.809  1.00  0.00     0.124 A 
HETATM   22  C   UNL     1      18.331  51.545  49.513  1.00  0.00    -0.023 A 
HETATM   23  F   UNL     1      19.395  53.094  48.075  1.00  0.00    -0.205 F 
HETATM   24  C   UNL     1      17.050  52.315  49.428  1.00  0.00     0.051 C 
HETATM   25  C   UNL     1      18.418  50.360  50.248  1.00  0.00     0.012 A 
HETATM   26  C   UNL     1      19.619  49.643  50.291  1.00  0.00     0.030 A 
ENDBRANCH  16  19
ENDBRANCH   1  15
BRANCH  12  27
HETATM   27  O   UNL     1      26.633  41.180  51.229  1.00  0.00    -0.356 OA
HETATM   28  C   UNL     1      26.396  40.259  50.172  1.00  0.00     0.210 C 
ENDBRANCH  12  27
TORSDOF 3
ENDMDL
MODEL 10
REMARK VINA RESULT:      -8.6      3.622      8.760
REMARK  3 active torsions:
REMARK  status: ('A' for Active; 'I' for Inactive)
REMARK    1  A    between atoms: C_6  and  N_7 
REMARK       I    between atoms: N_7  and  C_8 
REMARK    2  A    between atoms: C_8  and  C_9 
REMARK    3  A    between atoms: C_20  and  O_21 
ROOT
HETATM    1  C   UNL     1      25.988  46.598  53.071  1.00  0.00     0.153 A 
HETATM    2  N   UNL     1      25.800  47.695  53.843  1.00  0.00    -0.168 NA
HETATM    3  N   UNL     1      26.680  47.543  54.856  1.00  0.00    -0.276 N 
HETATM    4  H   UNL     1      26.724  48.262  55.570  1.00  0.00     0.189 HD
HETATM    5  C   UNL     1      27.423  46.406  54.766  1.00  0.00     0.069 A 
HETATM    6  C   UNL     1      27.007  45.777  53.614  1.00  0.00     0.007 A 
HETATM    7  C   UNL     1      27.585  44.475  53.186  1.00  0.00     0.048 C 
HETATM    8  C   UNL     1      29.019  44.300  53.738  1.00  0.00     0.044 C 
HETATM    9  C   UNL     1      29.222  44.812  55.161  1.00  0.00    -0.043 A 
HETATM   10  C   UNL     1      28.459  45.898  55.648  1.00  0.00    -0.001 A 
HETATM   11  C   UNL     1      30.230  44.265  55.964  1.00  0.00     0.044 A 
HETATM   12  C   UNL     1      30.467  44.762  57.249  1.00  0.00     0.068 A 
HETATM   13  C   UNL     1      29.705  45.831  57.724  1.00  0.00     0.037 A 
HETATM   14  C   UNL     1      28.704  46.401  56.926  1.00  0.00     0.017 A 
ENDROOT
BRANCH   1  15
HETATM   15  C   UNL     1      25.193  46.366  51.849  1.00  0.00     0.277 C 
HETATM   16  N   UNL     1      25.104  45.020  51.543  1.00  0.00    -0.322 N 
HETATM   17  H   UNL     1      25.599  44.428  52.206  1.00  0.00     0.169 HD
HETATM   18  O   UNL     1      24.692  47.290  51.217  1.00  0.00    -0.266 OA
BRANCH  16  19
HETATM   19  C   UNL     1      24.430  44.412  50.472  1.00  0.00     0.037 A 
HETATM   20  C   UNL     1      24.177  45.041  49.253  1.00  0.00     0.072 A 
HETATM   21  C   UNL     1      23.494  44.359  48.248  1.00  0.00     0.124 A 
HETATM   22  C   UNL     1      23.040  43.051  48.426  1.00  0.00    -0.023 A 
HETATM   23  F   UNL     1      23.271  44.984  47.082  1.00  0.00    -0.205 F 
HETATM   24  C   UNL     1      22.335  42.337  47.315  1.00  0.00     0.051 C 
HETATM   25  C   UNL     1      23.309  42.415  49.642  1.00  0.00     0.012 A 
HETATM   26  C   UNL     1      23.993  43.093  50.656  1.00  0.00     0.030 A 
ENDBRANCH  16  19
ENDBRANCH   1  15
BRANCH  12  27
HETATM   27  O   UNL     1      31.469  44.125  57.928  1.00  0.00    -0.356 OA
HETATM   28  C   UNL     1      32.115  43.046  57.263  1.00  0.00     0.210 C 
ENDBRANCH  12  27
TORSDOF 3
ENDMDL
