MODEL 1
REMARK VINA RESULT:     -10.9      0.000      0.000
REMARK  9 active torsions:
REMARK  status: ('A' for Active; 'I' for Inactive)
REMARK       I    between atoms: C_2  and  N_3 
REMARK    1  A    between atoms: N_3  and  C_4 
REMARK    2  A    between atoms: C_7  and  O_8 
REMARK    3  A    between atoms: O_8  and  C_9 
REMARK    4  A    between atoms: C_9  and  C_10 
REMARK    5  A    between atoms: C_11  and  O_12 
REMARK    6  A    between atoms: C_16  and  C_17 
REMARK    7  A    between atoms: C_31  and  O_32 
REMARK    8  A    between atoms: O_32  and  C_33 
REMARK    9  A    between atoms: C_33  and  C_34 
ROOT
HETATM    1  C   UNL     1      24.253  44.789  48.601  1.00  0.00     0.269 C 
HETATM    2  N   UNL     1      24.337  43.295  48.383  1.00  0.00    -0.061 N 
HETATM    3  H   UNL     1      25.289  43.086  48.070  1.00  0.00     0.278 HD
HETATM    4  H   UNL     1      23.698  43.043  47.622  1.00  0.00     0.278 HD
HETATM    5  C   UNL     1      24.035  42.456  49.604  1.00  0.00     0.238 C 
HETATM    6  C   UNL     1      25.038  42.739  50.736  1.00  0.00     0.069 C 
HETATM    7  C   UNL     1      25.265  44.204  50.883  1.00  0.00    -0.019 A 
HETATM    8  C   UNL     1      24.915  45.108  49.896  1.00  0.00     0.052 A 
HETATM    9  N   UNL     1      25.268  46.362  50.323  1.00  0.00    -0.356 N 
HETATM   10  H   UNL     1      25.121  47.235  49.829  1.00  0.00     0.166 HD
HETATM   11  C   UNL     1      25.833  46.281  51.577  1.00  0.00     0.043 A 
HETATM   12  C   UNL     1      25.829  44.938  51.961  1.00  0.00     0.002 A 
HETATM   13  C   UNL     1      26.341  47.294  52.394  1.00  0.00     0.033 A 
HETATM   14  C   UNL     1      26.830  46.924  53.650  1.00  0.00     0.039 A 
HETATM   15  C   UNL     1      26.804  45.598  54.080  1.00  0.00     0.070 A 
HETATM   16  C   UNL     1      26.334  44.590  53.231  1.00  0.00     0.051 A 
ENDROOT
BRANCH   1  17
HETATM   17  C   UNL     1      22.822  45.276  48.463  1.00  0.00    -0.021 A 
HETATM   18  C   UNL     1      21.771  44.456  48.902  1.00  0.00     0.012 A 
HETATM   19  C   UNL     1      20.445  44.905  48.866  1.00  0.00     0.038 A 
HETATM   20  C   UNL     1      20.138  46.182  48.392  1.00  0.00     0.076 A 
HETATM   21  C   UNL     1      21.170  47.014  47.926  1.00  0.00    -0.000 A 
HETATM   22  C   UNL     1      22.502  46.556  47.981  1.00  0.00     0.021 A 
BRANCH  20  23
HETATM   23  O   UNL     1      18.879  46.716  48.365  1.00  0.00    -0.355 OA
HETATM   24  C   UNL     1      17.790  45.846  48.079  1.00  0.00     0.210 C 
ENDBRANCH  20  23
BRANCH  21  25
HETATM   25  C   UNL     1      20.876  48.423  47.437  1.00  0.00     0.217 C 
BRANCH  25  26
HETATM   26  O   UNL     1      21.252  49.371  48.444  1.00  0.00    -0.347 OA
BRANCH  26  27
HETATM   27  C   UNL     1      20.281  50.268  48.802  1.00  0.00     0.069 A 
HETATM   28  C   UNL     1      19.394  49.830  49.786  1.00  0.00     0.039 A 
HETATM   29  C   UNL     1      18.363  50.663  50.236  1.00  0.00     0.032 A 
HETATM   30  C   UNL     1      18.193  51.943  49.697  1.00  0.00     0.034 A 
HETATM   31  C   UNL     1      19.073  52.369  48.700  1.00  0.00     0.032 A 
HETATM   32  C   UNL     1      20.109  51.538  48.255  1.00  0.00     0.039 A 
BRANCH  30  33
HETATM   33  N   UNL     1      17.136  52.727  50.201  1.00  0.00    -0.328 N 
HETATM   34  C   UNL     1      15.790  52.618  49.897  1.00  0.00     0.218 C 
HETATM   35  C   UNL     1      14.960  53.649  50.621  1.00  0.00     0.117 C 
HETATM   36  O   UNL     1      15.269  51.814  49.132  1.00  0.00    -0.274 OA
HETATM   37  H   UNL     1      17.393  53.457  50.854  1.00  0.00     0.169 HD
ENDBRANCH  30  33
ENDBRANCH  26  27
ENDBRANCH  25  26
ENDBRANCH  21  25
ENDBRANCH   1  17
BRANCH  15  38
HETATM   38  O   UNL     1      27.280  45.393  55.347  1.00  0.00    -0.347 OA
BRANCH  38  39
HETATM   39  C   UNL     1      28.412  46.181  55.727  1.00  0.00     0.214 C 
BRANCH  39  40
HETATM   40  C   UNL     1      29.532  45.273  56.175  1.00  0.00    -0.034 A 
HETATM   41  C   UNL     1      30.141  45.457  57.426  1.00  0.00     0.009 A 
HETATM   42  C   UNL     1      31.139  44.585  57.866  1.00  0.00     0.001 A 
HETATM   43  C   UNL     1      31.532  43.515  57.065  1.00  0.00     0.000 A 
HETATM   44  C   UNL     1      30.927  43.315  55.826  1.00  0.00     0.001 A 
HETATM   45  C   UNL     1      29.930  44.186  55.383  1.00  0.00     0.009 A 
ENDBRANCH  39  40
ENDBRANCH  38  39
ENDBRANCH  15  38
TORSDOF 9
ENDMDL
MODEL 2
REMARK VINA RESULT:     -10.4      5.377      9.546
REMARK  9 active torsions:
REMARK  status: ('A' for Active; 'I' for Inactive)
REMARK       I    between atoms: C_2  and  N_3 
REMARK    1  A    between atoms: N_3  and  C_4 
REMARK    2  A    between atoms: C_7  and  O_8 
REMARK    3  A    between atoms: O_8  and  C_9 
REMARK    4  A    between atoms: C_9  and  C_10 
REMARK    5  A    between atoms: C_11  and  O_12 
REMARK    6  A    between atoms: C_16  and  C_17 
REMARK    7  A    between atoms: C_31  and  O_32 
REMARK    8  A    between atoms: O_32  and  C_33 
REMARK    9  A    between atoms: C_33  and  C_34 
ROOT
HETATM    1  C   UNL     1      23.513  43.327  50.045  1.00  0.00     0.269 C 
HETATM    2  N   UNL     1      23.073  44.758  50.250  1.00  0.00    -0.061 N 
HETATM    3  H   UNL     1      22.708  44.831  51.204  1.00  0.00     0.278 HD
HETATM    4  H   UNL     1      22.299  44.954  49.607  1.00  0.00     0.278 HD
HETATM    5  C   UNL     1      24.162  45.790  50.070  1.00  0.00     0.238 C 
HETATM    6  C   UNL     1      25.298  45.585  51.088  1.00  0.00     0.069 C 
HETATM    7  C   UNL     1      25.656  44.142  51.191  1.00  0.00    -0.019 A 
HETATM    8  C   UNL     1      24.824  43.140  50.726  1.00  0.00     0.052 A 
HETATM    9  N   UNL     1      25.423  41.935  50.983  1.00  0.00    -0.356 N 
HETATM   10  H   UNL     1      25.069  41.016  50.742  1.00  0.00     0.166 HD
HETATM   11  C   UNL     1      26.637  42.145  51.602  1.00  0.00     0.043 A 
HETATM   12  C   UNL     1      26.816  43.525  51.730  1.00  0.00     0.002 A 
HETATM   13  C   UNL     1      27.582  41.220  52.051  1.00  0.00     0.033 A 
HETATM   14  C   UNL     1      28.756  41.723  52.619  1.00  0.00     0.039 A 
HETATM   15  C   UNL     1      28.985  43.094  52.725  1.00  0.00     0.070 A 
HETATM   16  C   UNL     1      28.007  44.007  52.312  1.00  0.00     0.051 A 
ENDROOT
BRANCH   1  17
HETATM   17  C   UNL     1      23.485  42.958  48.572  1.00  0.00    -0.021 A 
HETATM   18  C   UNL     1      22.794  43.782  47.670  1.00  0.00     0.012 A 
HETATM   19  C   UNL     1      22.814  43.520  46.295  1.00  0.00     0.038 A 
HETATM   20  C   UNL     1      23.525  42.430  45.788  1.00  0.00     0.076 A 
HETATM   21  C   UNL     1      24.206  41.576  46.672  1.00  0.00    -0.000 A 
HETATM   22  C   UNL     1      24.190  41.860  48.053  1.00  0.00     0.021 A 
BRANCH  20  23
HETATM   23  O   UNL     1      23.636  42.128  44.458  1.00  0.00    -0.355 OA
HETATM   24  C   UNL     1      23.702  43.206  43.532  1.00  0.00     0.210 C 
ENDBRANCH  20  23
BRANCH  21  25
HETATM   25  C   UNL     1      25.019  40.402  46.153  1.00  0.00     0.217 C 
BRANCH  25  26
HETATM   26  O   UNL     1      26.415  40.649  46.367  1.00  0.00    -0.347 OA
BRANCH  26  27
HETATM   27  C   UNL     1      27.002  39.906  47.355  1.00  0.00     0.069 A 
HETATM   28  C   UNL     1      26.437  38.650  47.576  1.00  0.00     0.039 A 
HETATM   29  C   UNL     1      26.956  37.798  48.559  1.00  0.00     0.032 A 
HETATM   30  C   UNL     1      28.042  38.197  49.347  1.00  0.00     0.034 A 
HETATM   31  C   UNL     1      28.592  39.461  49.133  1.00  0.00     0.032 A 
HETATM   32  C   UNL     1      28.076  40.311  48.145  1.00  0.00     0.039 A 
BRANCH  30  33
HETATM   33  N   UNL     1      28.514  37.286  50.313  1.00  0.00    -0.328 N 
HETATM   34  C   UNL     1      29.794  37.201  50.834  1.00  0.00     0.218 C 
HETATM   35  C   UNL     1      29.924  36.083  51.838  1.00  0.00     0.117 C 
HETATM   36  O   UNL     1      30.754  37.907  50.548  1.00  0.00    -0.274 OA
HETATM   37  H   UNL     1      27.840  36.615  50.662  1.00  0.00     0.169 HD
ENDBRANCH  30  33
ENDBRANCH  26  27
ENDBRANCH  25  26
ENDBRANCH  21  25
ENDBRANCH   1  17
BRANCH  15  38
HETATM   38  O   UNL     1      30.194  43.437  53.266  1.00  0.00    -0.347 OA
BRANCH  38  39
HETATM   39  C   UNL     1      30.579  42.724  54.445  1.00  0.00     0.214 C 
BRANCH  39  40
HETATM   40  C   UNL     1      30.544  43.656  55.632  1.00  0.00    -0.034 A 
HETATM   41  C   UNL     1      31.326  43.394  56.768  1.00  0.00     0.009 A 
HETATM   42  C   UNL     1      31.337  44.282  57.845  1.00  0.00     0.001 A 
HETATM   43  C   UNL     1      30.574  45.446  57.794  1.00  0.00     0.000 A 
HETATM   44  C   UNL     1      29.801  45.724  56.669  1.00  0.00     0.001 A 
HETATM   45  C   UNL     1      29.788  44.836  55.591  1.00  0.00     0.009 A 
ENDBRANCH  39  40
ENDBRANCH  38  39
ENDBRANCH  15  38
TORSDOF 9
ENDMDL
MODEL 3
REMARK VINA RESULT:     -10.3      1.576      2.301
REMARK  9 active torsions:
REMARK  status: ('A' for Active; 'I' for Inactive)
REMARK       I    between atoms: C_2  and  N_3 
REMARK    1  A    between atoms: N_3  and  C_4 
REMARK    2  A    between atoms: C_7  and  O_8 
REMARK    3  A    between atoms: O_8  and  C_9 
REMARK    4  A    between atoms: C_9  and  C_10 
REMARK    5  A    between atoms: C_11  and  O_12 
REMARK    6  A    between atoms: C_16  and  C_17 
REMARK    7  A    between atoms: C_31  and  O_32 
REMARK    8  A    between atoms: O_32  and  C_33 
REMARK    9  A    between atoms: C_33  and  C_34 
ROOT
HETATM    1  C   UNL     1      22.650  46.102  47.981  1.00  0.00     0.269 C 
HETATM    2  N   UNL     1      22.598  44.782  47.248  1.00  0.00    -0.061 N 
HETATM    3  H   UNL     1      23.477  44.687  46.730  1.00  0.00     0.278 HD
HETATM    4  H   UNL     1      21.837  44.823  46.561  1.00  0.00     0.278 HD
HETATM    5  C   UNL     1      22.424  43.569  48.132  1.00  0.00     0.238 C 
HETATM    6  C   UNL     1      23.602  43.421  49.112  1.00  0.00     0.069 C 
HETATM    7  C   UNL     1      23.947  44.737  49.721  1.00  0.00    -0.019 A 
HETATM    8  C   UNL     1      23.517  45.935  49.180  1.00  0.00     0.052 A 
HETATM    9  N   UNL     1      24.013  46.953  49.953  1.00  0.00    -0.356 N 
HETATM   10  H   UNL     1      23.855  47.946  49.824  1.00  0.00     0.166 HD
HETATM   11  C   UNL     1      24.752  46.427  50.990  1.00  0.00     0.043 A 
HETATM   12  C   UNL     1      24.713  45.035  50.879  1.00  0.00     0.002 A 
HETATM   13  C   UNL     1      25.444  47.079  52.014  1.00  0.00     0.033 A 
HETATM   14  C   UNL     1      26.088  46.283  52.965  1.00  0.00     0.039 A 
HETATM   15  C   UNL     1      26.035  44.890  52.906  1.00  0.00     0.070 A 
HETATM   16  C   UNL     1      25.377  44.254  51.848  1.00  0.00     0.051 A 
ENDROOT
BRANCH   1  17
HETATM   17  C   UNL     1      21.251  46.624  48.256  1.00  0.00    -0.021 A 
HETATM   18  C   UNL     1      20.151  45.769  48.077  1.00  0.00     0.012 A 
HETATM   19  C   UNL     1      18.855  46.188  48.399  1.00  0.00     0.038 A 
HETATM   20  C   UNL     1      18.625  47.468  48.907  1.00  0.00     0.076 A 
HETATM   21  C   UNL     1      19.706  48.351  49.075  1.00  0.00    -0.000 A 
HETATM   22  C   UNL     1      21.008  47.912  48.761  1.00  0.00     0.021 A 
BRANCH  20  23
HETATM   23  O   UNL     1      17.400  47.942  49.290  1.00  0.00    -0.355 OA
HETATM   24  C   UNL     1      16.301  47.739  48.410  1.00  0.00     0.210 C 
ENDBRANCH  20  23
BRANCH  21  25
HETATM   25  C   UNL     1      19.498  49.738  49.659  1.00  0.00     0.217 C 
BRANCH  25  26
HETATM   26  O   UNL     1      19.182  50.661  48.608  1.00  0.00    -0.347 OA
BRANCH  26  27
HETATM   27  C   UNL     1      18.062  51.423  48.808  1.00  0.00     0.069 A 
HETATM   28  C   UNL     1      17.058  51.273  47.852  1.00  0.00     0.039 A 
HETATM   29  C   UNL     1      15.863  51.997  47.955  1.00  0.00     0.032 A 
HETATM   30  C   UNL     1      15.662  52.894  49.009  1.00  0.00     0.034 A 
HETATM   31  C   UNL     1      16.677  53.053  49.953  1.00  0.00     0.032 A 
HETATM   32  C   UNL     1      17.869  52.323  49.854  1.00  0.00     0.039 A 
BRANCH  30  33
HETATM   33  N   UNL     1      14.434  53.585  49.050  1.00  0.00    -0.328 N 
HETATM   34  C   UNL     1      13.560  53.685  50.119  1.00  0.00     0.218 C 
HETATM   35  C   UNL     1      12.336  54.496  49.777  1.00  0.00     0.117 C 
HETATM   36  O   UNL     1      13.697  53.188  51.231  1.00  0.00    -0.274 OA
HETATM   37  H   UNL     1      14.159  54.058  48.198  1.00  0.00     0.169 HD
ENDBRANCH  30  33
ENDBRANCH  26  27
ENDBRANCH  25  26
ENDBRANCH  21  25
ENDBRANCH   1  17
BRANCH  15  38
HETATM   38  O   UNL     1      26.679  44.245  53.926  1.00  0.00    -0.347 OA
BRANCH  38  39
HETATM   39  C   UNL     1      27.907  43.596  53.583  1.00  0.00     0.214 C 
BRANCH  39  40
HETATM   40  C   UNL     1      28.969  43.959  54.593  1.00  0.00    -0.034 A 
HETATM   41  C   UNL     1      28.903  45.174  55.292  1.00  0.00     0.009 A 
HETATM   42  C   UNL     1      29.854  45.487  56.265  1.00  0.00     0.001 A 
HETATM   43  C   UNL     1      30.874  44.585  56.557  1.00  0.00     0.000 A 
HETATM   44  C   UNL     1      30.945  43.371  55.878  1.00  0.00     0.001 A 
HETATM   45  C   UNL     1      29.996  43.056  54.903  1.00  0.00     0.009 A 
ENDBRANCH  39  40
ENDBRANCH  38  39
ENDBRANCH  15  38
TORSDOF 9
ENDMDL
MODEL 4
REMARK VINA RESULT:     -10.1      1.908      2.093
REMARK  9 active torsions:
REMARK  status: ('A' for Active; 'I' for Inactive)
REMARK       I    between atoms: C_2  and  N_3 
REMARK    1  A    between atoms: N_3  and  C_4 
REMARK    2  A    between atoms: C_7  and  O_8 
REMARK    3  A    between atoms: O_8  and  C_9 
REMARK    4  A    between atoms: C_9  and  C_10 
REMARK    5  A    between atoms: C_11  and  O_12 
REMARK    6  A    between atoms: C_16  and  C_17 
REMARK    7  A    between atoms: C_31  and  O_32 
REMARK    8  A    between atoms: O_32  and  C_33 
REMARK    9  A    between atoms: C_33  and  C_34 
ROOT
HETATM    1  C   UNL     1      23.484  44.950  48.468  1.00  0.00     0.269 C 
HETATM    2  N   UNL     1      23.353  43.455  48.297  1.00  0.00    -0.061 N 
HETATM    3  H   UNL     1      24.249  43.110  47.937  1.00  0.00     0.278 HD
HETATM    4  H   UNL     1      22.642  43.272  47.581  1.00  0.00     0.278 HD
HETATM    5  C   UNL     1      23.015  42.697  49.560  1.00  0.00     0.238 C 
HETATM    6  C   UNL     1      24.113  42.870  50.624  1.00  0.00     0.069 C 
HETATM    7  C   UNL     1      24.543  44.294  50.709  1.00  0.00    -0.019 A 
HETATM    8  C   UNL     1      24.259  45.211  49.712  1.00  0.00     0.052 A 
HETATM    9  N   UNL     1      24.800  46.416  50.076  1.00  0.00    -0.356 N 
HETATM   10  H   UNL     1      24.743  47.288  49.562  1.00  0.00     0.166 HD
HETATM   11  C   UNL     1      25.424  46.292  51.299  1.00  0.00     0.043 A 
HETATM   12  C   UNL     1      25.263  44.972  51.728  1.00  0.00     0.002 A 
HETATM   13  C   UNL     1      26.111  47.248  52.051  1.00  0.00     0.033 A 
HETATM   14  C   UNL     1      26.620  46.848  53.290  1.00  0.00     0.039 A 
HETATM   15  C   UNL     1      26.442  45.549  53.766  1.00  0.00     0.070 A 
HETATM   16  C   UNL     1      25.792  44.592  52.978  1.00  0.00     0.051 A 
ENDROOT
BRANCH   1  17
HETATM   17  C   UNL     1      22.125  45.624  48.393  1.00  0.00    -0.021 A 
HETATM   18  C   UNL     1      21.013  44.882  47.964  1.00  0.00     0.012 A 
HETATM   19  C   UNL     1      19.731  45.445  47.960  1.00  0.00     0.038 A 
HETATM   20  C   UNL     1      19.529  46.760  48.384  1.00  0.00     0.076 A 
HETATM   21  C   UNL     1      20.629  47.531  48.797  1.00  0.00    -0.000 A 
HETATM   22  C   UNL     1      21.912  46.948  48.810  1.00  0.00     0.021 A 
BRANCH  20  23
HETATM   23  O   UNL     1      18.307  47.372  48.456  1.00  0.00    -0.355 OA
HETATM   24  C   UNL     1      17.146  46.553  48.396  1.00  0.00     0.210 C 
ENDBRANCH  20  23
BRANCH  21  25
HETATM   25  C   UNL     1      20.441  48.953  49.299  1.00  0.00     0.217 C 
BRANCH  25  26
HETATM   26  O   UNL     1      20.822  49.880  48.274  1.00  0.00    -0.347 OA
BRANCH  26  27
HETATM   27  C   UNL     1      19.790  50.528  47.651  1.00  0.00     0.069 A 
HETATM   28  C   UNL     1      19.327  51.676  48.294  1.00  0.00     0.039 A 
HETATM   29  C   UNL     1      18.278  52.425  47.747  1.00  0.00     0.032 A 
HETATM   30  C   UNL     1      17.664  52.028  46.554  1.00  0.00     0.034 A 
HETATM   31  C   UNL     1      18.119  50.869  45.924  1.00  0.00     0.032 A 
HETATM   32  C   UNL     1      19.174  50.123  46.468  1.00  0.00     0.039 A 
BRANCH  30  33
HETATM   33  N   UNL     1      16.617  52.832  46.062  1.00  0.00    -0.328 N 
HETATM   34  C   UNL     1      16.398  53.216  44.750  1.00  0.00     0.218 C 
HETATM   35  C   UNL     1      15.180  54.096  44.613  1.00  0.00     0.117 C 
HETATM   36  O   UNL     1      17.077  52.924  43.773  1.00  0.00    -0.274 OA
HETATM   37  H   UNL     1      15.953  53.171  46.747  1.00  0.00     0.169 HD
ENDBRANCH  30  33
ENDBRANCH  26  27
ENDBRANCH  25  26
ENDBRANCH  21  25
ENDBRANCH   1  17
BRANCH  15  38
HETATM   38  O   UNL     1      26.962  45.315  55.010  1.00  0.00    -0.347 OA
BRANCH  38  39
HETATM   39  C   UNL     1      28.067  46.138  55.394  1.00  0.00     0.214 C 
BRANCH  39  40
HETATM   40  C   UNL     1      29.229  45.264  55.803  1.00  0.00    -0.034 A 
HETATM   41  C   UNL     1      29.921  45.512  56.999  1.00  0.00     0.009 A 
HETATM   42  C   UNL     1      30.960  44.674  57.406  1.00  0.00     0.001 A 
HETATM   43  C   UNL     1      31.311  43.573  56.629  1.00  0.00     0.000 A 
HETATM   44  C   UNL     1      30.625  43.309  55.446  1.00  0.00     0.001 A 
HETATM   45  C   UNL     1      29.586  44.147  55.035  1.00  0.00     0.009 A 
ENDBRANCH  39  40
ENDBRANCH  38  39
ENDBRANCH  15  38
TORSDOF 9
ENDMDL
MODEL 5
REMARK VINA RESULT:     -10.0      2.067      3.221
REMARK  9 active torsions:
REMARK  status: ('A' for Active; 'I' for Inactive)
REMARK       I    between atoms: C_2  and  N_3 
REMARK    1  A    between atoms: N_3  and  C_4 
REMARK    2  A    between atoms: C_7  and  O_8 
REMARK    3  A    between atoms: O_8  and  C_9 
REMARK    4  A    between atoms: C_9  and  C_10 
REMARK    5  A    between atoms: C_11  and  O_12 
REMARK    6  A    between atoms: C_16  and  C_17 
REMARK    7  A    between atoms: C_31  and  O_32 
REMARK    8  A    between atoms: O_32  and  C_33 
REMARK    9  A    between atoms: C_33  and  C_34 
ROOT
HETATM    1  C   UNL     1      23.535  48.840  49.600  1.00  0.00     0.269 C 
HETATM    2  N   UNL     1      24.475  49.890  49.055  1.00  0.00    -0.061 N 
HETATM    3  H   UNL     1      24.844  50.413  49.855  1.00  0.00     0.278 HD
HETATM    4  H   UNL     1      23.933  50.543  48.481  1.00  0.00     0.278 HD
HETATM    5  C   UNL     1      25.638  49.349  48.255  1.00  0.00     0.238 C 
HETATM    6  C   UNL     1      26.531  48.438  49.116  1.00  0.00     0.069 C 
HETATM    7  C   UNL     1      25.701  47.510  49.935  1.00  0.00    -0.019 A 
HETATM    8  C   UNL     1      24.352  47.724  50.151  1.00  0.00     0.052 A 
HETATM    9  N   UNL     1      23.884  46.714  50.952  1.00  0.00    -0.356 N 
HETATM   10  H   UNL     1      22.930  46.582  51.268  1.00  0.00     0.166 HD
HETATM   11  C   UNL     1      24.913  45.846  51.249  1.00  0.00     0.043 A 
HETATM   12  C   UNL     1      26.063  46.313  50.608  1.00  0.00     0.002 A 
HETATM   13  C   UNL     1      24.906  44.688  52.030  1.00  0.00     0.033 A 
HETATM   14  C   UNL     1      26.103  43.973  52.132  1.00  0.00     0.039 A 
HETATM   15  C   UNL     1      27.260  44.390  51.474  1.00  0.00     0.070 A 
HETATM   16  C   UNL     1      27.260  45.578  50.733  1.00  0.00     0.051 A 
ENDROOT
BRANCH   1  17
HETATM   17  C   UNL     1      22.506  48.442  48.557  1.00  0.00    -0.021 A 
HETATM   18  C   UNL     1      22.586  47.173  47.962  1.00  0.00     0.012 A 
HETATM   19  C   UNL     1      21.609  46.740  47.058  1.00  0.00     0.038 A 
HETATM   20  C   UNL     1      20.530  47.561  46.727  1.00  0.00     0.076 A 
HETATM   21  C   UNL     1      20.438  48.845  47.292  1.00  0.00    -0.000 A 
HETATM   22  C   UNL     1      21.420  49.264  48.212  1.00  0.00     0.021 A 
BRANCH  20  23
HETATM   23  O   UNL     1      19.508  47.200  45.891  1.00  0.00    -0.355 OA
HETATM   24  C   UNL     1      18.699  46.093  46.265  1.00  0.00     0.210 C 
ENDBRANCH  20  23
BRANCH  21  25
HETATM   25  C   UNL     1      19.259  49.752  46.983  1.00  0.00     0.217 C 
BRANCH  25  26
HETATM   26  O   UNL     1      18.135  49.373  47.788  1.00  0.00    -0.347 OA
BRANCH  26  27
HETATM   27  C   UNL     1      17.505  50.398  48.442  1.00  0.00     0.069 A 
HETATM   28  C   UNL     1      18.336  51.231  49.191  1.00  0.00     0.039 A 
HETATM   29  C   UNL     1      17.805  52.316  49.900  1.00  0.00     0.032 A 
HETATM   30  C   UNL     1      16.430  52.575  49.882  1.00  0.00     0.034 A 
HETATM   31  C   UNL     1      15.601  51.728  49.145  1.00  0.00     0.032 A 
HETATM   32  C   UNL     1      16.134  50.647  48.430  1.00  0.00     0.039 A 
BRANCH  30  33
HETATM   33  N   UNL     1      15.967  53.686  50.615  1.00  0.00    -0.328 N 
HETATM   34  C   UNL     1      14.699  53.882  51.133  1.00  0.00     0.218 C 
HETATM   35  C   UNL     1      14.576  55.207  51.845  1.00  0.00     0.117 C 
HETATM   36  O   UNL     1      13.743  53.120  51.049  1.00  0.00    -0.274 OA
HETATM   37  H   UNL     1      16.639  54.427  50.775  1.00  0.00     0.169 HD
ENDBRANCH  30  33
ENDBRANCH  26  27
ENDBRANCH  25  26
ENDBRANCH  21  25
ENDBRANCH   1  17
BRANCH  15  38
HETATM   38  O   UNL     1      28.343  43.570  51.635  1.00  0.00    -0.347 OA
BRANCH  38  39
HETATM   39  C   UNL     1      28.342  42.752  52.809  1.00  0.00     0.214 C 
BRANCH  39  40
HETATM   40  C   UNL     1      29.125  43.438  53.902  1.00  0.00    -0.034 A 
HETATM   41  C   UNL     1      28.648  44.621  54.487  1.00  0.00     0.009 A 
HETATM   42  C   UNL     1      29.343  45.227  55.535  1.00  0.00     0.001 A 
HETATM   43  C   UNL     1      30.517  44.652  56.016  1.00  0.00     0.000 A 
HETATM   44  C   UNL     1      30.995  43.471  55.453  1.00  0.00     0.001 A 
HETATM   45  C   UNL     1      30.303  42.864  54.403  1.00  0.00     0.009 A 
ENDBRANCH  39  40
ENDBRANCH  38  39
ENDBRANCH  15  38
TORSDOF 9
ENDMDL
MODEL 6
REMARK VINA RESULT:      -9.9      3.271      4.864
REMARK  9 active torsions:
REMARK  status: ('A' for Active; 'I' for Inactive)
REMARK       I    between atoms: C_2  and  N_3 
REMARK    1  A    between atoms: N_3  and  C_4 
REMARK    2  A    between atoms: C_7  and  O_8 
REMARK    3  A    between atoms: O_8  and  C_9 
REMARK    4  A    between atoms: C_9  and  C_10 
REMARK    5  A    between atoms: C_11  and  O_12 
REMARK    6  A    between atoms: C_16  and  C_17 
REMARK    7  A    between atoms: C_31  and  O_32 
REMARK    8  A    between atoms: O_32  and  C_33 
REMARK    9  A    between atoms: C_33  and  C_34 
ROOT
HETATM    1  C   UNL     1      26.461  41.170  47.933  1.00  0.00     0.269 C 
HETATM    2  N   UNL     1      27.036  39.822  48.302  1.00  0.00    -0.061 N 
HETATM    3  H   UNL     1      28.056  39.905  48.262  1.00  0.00     0.278 HD
HETATM    4  H   UNL     1      26.752  39.143  47.588  1.00  0.00     0.278 HD
HETATM    5  C   UNL     1      26.646  39.317  49.672  1.00  0.00     0.238 C 
HETATM    6  C   UNL     1      27.143  40.266  50.778  1.00  0.00     0.069 C 
HETATM    7  C   UNL     1      26.879  41.686  50.409  1.00  0.00    -0.019 A 
HETATM    8  C   UNL     1      26.588  42.070  49.113  1.00  0.00     0.052 A 
HETATM    9  N   UNL     1      26.418  43.430  49.100  1.00  0.00    -0.356 N 
HETATM   10  H   UNL     1      26.176  44.004  48.300  1.00  0.00     0.166 HD
HETATM   11  C   UNL     1      26.586  43.928  50.374  1.00  0.00     0.043 A 
HETATM   12  C   UNL     1      26.860  42.851  51.220  1.00  0.00     0.002 A 
HETATM   13  C   UNL     1      26.513  45.246  50.833  1.00  0.00     0.033 A 
HETATM   14  C   UNL     1      26.696  45.461  52.202  1.00  0.00     0.039 A 
HETATM   15  C   UNL     1      26.931  44.404  53.081  1.00  0.00     0.070 A 
HETATM   16  C   UNL     1      27.047  43.096  52.596  1.00  0.00     0.051 A 
ENDROOT
BRANCH   1  17
HETATM   17  C   UNL     1      25.057  41.024  47.373  1.00  0.00    -0.021 A 
HETATM   18  C   UNL     1      24.619  39.765  46.935  1.00  0.00     0.012 A 
HETATM   19  C   UNL     1      23.306  39.575  46.489  1.00  0.00     0.038 A 
HETATM   20  C   UNL     1      22.399  40.636  46.471  1.00  0.00     0.076 A 
HETATM   21  C   UNL     1      22.819  41.913  46.883  1.00  0.00    -0.000 A 
HETATM   22  C   UNL     1      24.140  42.088  47.344  1.00  0.00     0.021 A 
BRANCH  20  23
HETATM   23  O   UNL     1      21.087  40.529  46.096  1.00  0.00    -0.355 OA
HETATM   24  C   UNL     1      20.767  39.632  45.040  1.00  0.00     0.210 C 
ENDBRANCH  20  23
BRANCH  21  25
HETATM   25  C   UNL     1      21.849  43.083  46.911  1.00  0.00     0.217 C 
BRANCH  25  26
HETATM   26  O   UNL     1      21.644  43.507  48.264  1.00  0.00    -0.347 OA
BRANCH  26  27
HETATM   27  C   UNL     1      21.962  44.812  48.528  1.00  0.00     0.069 A 
HETATM   28  C   UNL     1      20.929  45.731  48.341  1.00  0.00     0.039 A 
HETATM   29  C   UNL     1      21.135  47.094  48.584  1.00  0.00     0.032 A 
HETATM   30  C   UNL     1      22.384  47.562  49.006  1.00  0.00     0.034 A 
HETATM   31  C   UNL     1      23.419  46.642  49.175  1.00  0.00     0.032 A 
HETATM   32  C   UNL     1      23.211  45.276  48.938  1.00  0.00     0.039 A 
BRANCH  30  33
HETATM   33  N   UNL     1      22.517  48.947  49.235  1.00  0.00    -0.328 N 
HETATM   34  C   UNL     1      23.091  49.886  48.396  1.00  0.00     0.218 C 
HETATM   35  C   UNL     1      23.066  51.271  48.995  1.00  0.00     0.117 C 
HETATM   36  O   UNL     1      23.590  49.685  47.295  1.00  0.00    -0.274 OA
HETATM   37  H   UNL     1      22.156  49.290  50.116  1.00  0.00     0.169 HD
ENDBRANCH  30  33
ENDBRANCH  26  27
ENDBRANCH  25  26
ENDBRANCH  21  25
ENDBRANCH   1  17
BRANCH  15  38
HETATM   38  O   UNL     1      27.051  44.764  54.396  1.00  0.00    -0.347 OA
BRANCH  38  39
HETATM   39  C   UNL     1      28.058  45.735  54.692  1.00  0.00     0.214 C 
BRANCH  39  40
HETATM   40  C   UNL     1      29.214  45.066  55.396  1.00  0.00    -0.034 A 
HETATM   41  C   UNL     1      29.751  45.619  56.568  1.00  0.00     0.009 A 
HETATM   42  C   UNL     1      30.784  44.974  57.251  1.00  0.00     0.001 A 
HETATM   43  C   UNL     1      31.284  43.764  56.774  1.00  0.00     0.000 A 
HETATM   44  C   UNL     1      30.752  43.199  55.617  1.00  0.00     0.001 A 
HETATM   45  C   UNL     1      29.720  43.843  54.932  1.00  0.00     0.009 A 
ENDBRANCH  39  40
ENDBRANCH  38  39
ENDBRANCH  15  38
TORSDOF 9
ENDMDL
MODEL 7
REMARK VINA RESULT:      -9.8      3.563     10.038
REMARK  9 active torsions:
REMARK  status: ('A' for Active; 'I' for Inactive)
REMARK       I    between atoms: C_2  and  N_3 
REMARK    1  A    between atoms: N_3  and  C_4 
REMARK    2  A    between atoms: C_7  and  O_8 
REMARK    3  A    between atoms: O_8  and  C_9 
REMARK    4  A    between atoms: C_9  and  C_10 
REMARK    5  A    between atoms: C_11  and  O_12 
REMARK    6  A    between atoms: C_16  and  C_17 
REMARK    7  A    between atoms: C_31  and  O_32 
REMARK    8  A    between atoms: O_32  and  C_33 
REMARK    9  A    between atoms: C_33  and  C_34 
ROOT
HETATM    1  C   UNL     1      24.581  41.380  50.007  1.00  0.00     0.269 C 
HETATM    2  N   UNL     1      23.970  41.025  48.672  1.00  0.00    -0.061 N 
HETATM    3  H   UNL     1      22.955  41.128  48.764  1.00  0.00     0.278 HD
HETATM    4  H   UNL     1      24.163  40.036  48.481  1.00  0.00     0.278 HD
HETATM    5  C   UNL     1      24.439  41.872  47.511  1.00  0.00     0.238 C 
HETATM    6  C   UNL     1      24.076  43.353  47.721  1.00  0.00     0.069 C 
HETATM    7  C   UNL     1      24.381  43.776  49.117  1.00  0.00    -0.019 A 
HETATM    8  C   UNL     1      24.590  42.864  50.135  1.00  0.00     0.052 A 
HETATM    9  N   UNL     1      24.826  43.562  51.291  1.00  0.00    -0.356 N 
HETATM   10  H   UNL     1      25.034  43.174  52.204  1.00  0.00     0.166 HD
HETATM   11  C   UNL     1      24.781  44.915  51.030  1.00  0.00     0.043 A 
HETATM   12  C   UNL     1      24.520  45.078  49.667  1.00  0.00     0.002 A 
HETATM   13  C   UNL     1      24.956  45.997  51.896  1.00  0.00     0.033 A 
HETATM   14  C   UNL     1      24.890  47.280  51.345  1.00  0.00     0.039 A 
HETATM   15  C   UNL     1      24.671  47.477  49.982  1.00  0.00     0.070 A 
HETATM   16  C   UNL     1      24.452  46.383  49.137  1.00  0.00     0.051 A 
ENDROOT
BRANCH   1  17
HETATM   17  C   UNL     1      25.928  40.703  50.183  1.00  0.00    -0.021 A 
HETATM   18  C   UNL     1      26.271  39.626  49.350  1.00  0.00     0.012 A 
HETATM   19  C   UNL     1      27.535  39.030  49.427  1.00  0.00     0.038 A 
HETATM   20  C   UNL     1      28.487  39.494  50.336  1.00  0.00     0.076 A 
HETATM   21  C   UNL     1      28.162  40.556  51.198  1.00  0.00    -0.000 A 
HETATM   22  C   UNL     1      26.890  41.157  51.101  1.00  0.00     0.021 A 
BRANCH  20  23
HETATM   23  O   UNL     1      29.759  39.001  50.446  1.00  0.00    -0.355 OA
HETATM   24  C   UNL     1      29.922  37.679  50.945  1.00  0.00     0.210 C 
ENDBRANCH  20  23
BRANCH  21  25
HETATM   25  C   UNL     1      29.185  41.110  52.176  1.00  0.00     0.217 C 
BRANCH  25  26
HETATM   26  O   UNL     1      28.618  41.159  53.491  1.00  0.00    -0.347 OA
BRANCH  26  27
HETATM   27  C   UNL     1      28.425  42.413  54.005  1.00  0.00     0.069 A 
HETATM   28  C   UNL     1      27.093  42.795  54.169  1.00  0.00     0.039 A 
HETATM   29  C   UNL     1      26.772  44.054  54.691  1.00  0.00     0.032 A 
HETATM   30  C   UNL     1      27.781  44.958  55.043  1.00  0.00     0.034 A 
HETATM   31  C   UNL     1      29.111  44.577  54.860  1.00  0.00     0.032 A 
HETATM   32  C   UNL     1      29.431  43.314  54.344  1.00  0.00     0.039 A 
BRANCH  30  33
HETATM   33  N   UNL     1      27.384  46.205  55.565  1.00  0.00    -0.328 N 
HETATM   34  C   UNL     1      27.197  47.387  54.869  1.00  0.00     0.218 C 
HETATM   35  C   UNL     1      26.788  48.521  55.776  1.00  0.00     0.117 C 
HETATM   36  O   UNL     1      27.342  47.564  53.665  1.00  0.00    -0.274 OA
HETATM   37  H   UNL     1      27.223  46.240  56.564  1.00  0.00     0.169 HD
ENDBRANCH  30  33
ENDBRANCH  26  27
ENDBRANCH  25  26
ENDBRANCH  21  25
ENDBRANCH   1  17
BRANCH  15  38
HETATM   38  O   UNL     1      24.671  48.786  49.581  1.00  0.00    -0.347 OA
BRANCH  38  39
HETATM   39  C   UNL     1      23.765  49.119  48.525  1.00  0.00     0.214 C 
BRANCH  39  40
HETATM   40  C   UNL     1      22.409  49.440  49.106  1.00  0.00    -0.034 A 
HETATM   41  C   UNL     1      22.174  50.676  49.727  1.00  0.00     0.009 A 
HETATM   42  C   UNL     1      20.907  50.997  50.216  1.00  0.00     0.001 A 
HETATM   43  C   UNL     1      19.858  50.090  50.081  1.00  0.00     0.000 A 
HETATM   44  C   UNL     1      20.075  48.864  49.457  1.00  0.00     0.001 A 
HETATM   45  C   UNL     1      21.343  48.540  48.968  1.00  0.00     0.009 A 
ENDBRANCH  39  40
ENDBRANCH  38  39
ENDBRANCH  15  38
TORSDOF 9
ENDMDL
MODEL 8
REMARK VINA RESULT:      -9.8      5.340      7.053
REMARK  9 active torsions:
REMARK  status: ('A' for Active; 'I' for Inactive)
REMARK       I    between atoms: C_2  and  N_3 
REMARK    1  A    between atoms: N_3  and  C_4 
REMARK    2  A    between atoms: C_7  and  O_8 
REMARK    3  A    between atoms: O_8  and  C_9 
REMARK    4  A    between atoms: C_9  and  C_10 
REMARK    5  A    between atoms: C_11  and  O_12 
REMARK    6  A    between atoms: C_16  and  C_17 
REMARK    7  A    between atoms: C_31  and  O_32 
REMARK    8  A    between atoms: O_32  and  C_33 
REMARK    9  A    between atoms: C_33  and  C_34 
ROOT
HETATM    1  C   UNL     1      27.319  39.820  47.446  1.00  0.00     0.269 C 
HETATM    2  N   UNL     1      28.123  38.541  47.420  1.00  0.00    -0.061 N 
HETATM    3  H   UNL     1      29.087  38.793  47.183  1.00  0.00     0.278 HD
HETATM    4  H   UNL     1      27.763  37.948  46.666  1.00  0.00     0.278 HD
HETATM    5  C   UNL     1      28.131  37.769  48.719  1.00  0.00     0.238 C 
HETATM    6  C   UNL     1      28.756  38.597  49.856  1.00  0.00     0.069 C 
HETATM    7  C   UNL     1      28.244  39.996  49.830  1.00  0.00    -0.019 A 
HETATM    8  C   UNL     1      27.611  40.530  48.722  1.00  0.00     0.052 A 
HETATM    9  N   UNL     1      27.280  41.829  49.005  1.00  0.00    -0.356 N 
HETATM   10  H   UNL     1      26.788  42.476  48.400  1.00  0.00     0.166 HD
HETATM   11  C   UNL     1      27.682  42.139  50.286  1.00  0.00     0.043 A 
HETATM   12  C   UNL     1      28.276  41.000  50.834  1.00  0.00     0.002 A 
HETATM   13  C   UNL     1      27.561  43.338  50.994  1.00  0.00     0.033 A 
HETATM   14  C   UNL     1      28.034  43.359  52.310  1.00  0.00     0.039 A 
HETATM   15  C   UNL     1      28.596  42.228  52.900  1.00  0.00     0.070 A 
HETATM   16  C   UNL     1      28.752  41.049  52.161  1.00  0.00     0.051 A 
ENDROOT
BRANCH   1  17
HETATM   17  C   UNL     1      25.851  39.542  47.176  1.00  0.00    -0.021 A 
HETATM   18  C   UNL     1      25.458  38.257  46.769  1.00  0.00     0.012 A 
HETATM   19  C   UNL     1      24.106  37.940  46.591  1.00  0.00     0.038 A 
HETATM   20  C   UNL     1      23.115  38.897  46.816  1.00  0.00     0.076 A 
HETATM   21  C   UNL     1      23.482  40.198  47.202  1.00  0.00    -0.000 A 
HETATM   22  C   UNL     1      24.846  40.500  47.392  1.00  0.00     0.021 A 
BRANCH  20  23
HETATM   23  O   UNL     1      21.771  38.660  46.711  1.00  0.00    -0.355 OA
HETATM   24  C   UNL     1      21.219  38.513  45.408  1.00  0.00     0.210 C 
ENDBRANCH  20  23
BRANCH  21  25
HETATM   25  C   UNL     1      22.429  41.254  47.490  1.00  0.00     0.217 C 
BRANCH  25  26
HETATM   26  O   UNL     1      22.422  41.560  48.890  1.00  0.00    -0.347 OA
BRANCH  26  27
HETATM   27  C   UNL     1      23.081  42.705  49.248  1.00  0.00     0.069 A 
HETATM   28  C   UNL     1      23.112  43.706  48.277  1.00  0.00     0.039 A 
HETATM   29  C   UNL     1      23.754  44.925  48.532  1.00  0.00     0.032 A 
HETATM   30  C   UNL     1      24.387  45.155  49.758  1.00  0.00     0.034 A 
HETATM   31  C   UNL     1      24.368  44.143  50.719  1.00  0.00     0.032 A 
HETATM   32  C   UNL     1      23.720  42.926  50.466  1.00  0.00     0.039 A 
BRANCH  30  33
HETATM   33  N   UNL     1      25.010  46.405  49.945  1.00  0.00    -0.328 N 
HETATM   34  C   UNL     1      26.327  46.737  49.679  1.00  0.00     0.218 C 
HETATM   35  C   UNL     1      26.631  48.173  50.027  1.00  0.00     0.117 C 
HETATM   36  O   UNL     1      27.196  46.000  49.228  1.00  0.00    -0.274 OA
HETATM   37  H   UNL     1      24.427  47.142  50.323  1.00  0.00     0.169 HD
ENDBRANCH  30  33
ENDBRANCH  26  27
ENDBRANCH  25  26
ENDBRANCH  21  25
ENDBRANCH   1  17
BRANCH  15  38
HETATM   38  O   UNL     1      28.979  42.388  54.205  1.00  0.00    -0.347 OA
BRANCH  38  39
HETATM   39  C   UNL     1      30.322  42.832  54.415  1.00  0.00     0.214 C 
BRANCH  39  40
HETATM   40  C   UNL     1      30.375  43.724  55.631  1.00  0.00    -0.034 A 
HETATM   41  C   UNL     1      31.233  43.423  56.700  1.00  0.00     0.009 A 
HETATM   42  C   UNL     1      31.323  44.275  57.802  1.00  0.00     0.001 A 
HETATM   43  C   UNL     1      30.564  45.442  57.843  1.00  0.00     0.000 A 
HETATM   44  C   UNL     1      29.716  45.758  56.784  1.00  0.00     0.001 A 
HETATM   45  C   UNL     1      29.623  44.907  55.681  1.00  0.00     0.009 A 
ENDBRANCH  39  40
ENDBRANCH  38  39
ENDBRANCH  15  38
TORSDOF 9
ENDMDL
MODEL 9
REMARK VINA RESULT:      -9.7      2.858      4.131
REMARK  9 active torsions:
REMARK  status: ('A' for Active; 'I' for Inactive)
REMARK       I    between atoms: C_2  and  N_3 
REMARK    1  A    between atoms: N_3  and  C_4 
REMARK    2  A    between atoms: C_7  and  O_8 
REMARK    3  A    between atoms: O_8  and  C_9 
REMARK    4  A    between atoms: C_9  and  C_10 
REMARK    5  A    between atoms: C_11  and  O_12 
REMARK    6  A    between atoms: C_16  and  C_17 
REMARK    7  A    between atoms: C_31  and  O_32 
REMARK    8  A    between atoms: O_32  and  C_33 
REMARK    9  A    between atoms: C_33  and  C_34 
ROOT
HETATM    1  C   UNL     1      22.702  47.196  48.171  1.00  0.00     0.269 C 
HETATM    2  N   UNL     1      22.176  45.959  47.479  1.00  0.00    -0.061 N 
HETATM    3  H   UNL     1      22.934  45.591  46.897  1.00  0.00     0.278 HD
HETATM    4  H   UNL     1      21.414  46.239  46.853  1.00  0.00     0.278 HD
HETATM    5  C   UNL     1      21.702  44.864  48.407  1.00  0.00     0.238 C 
HETATM    6  C   UNL     1      22.850  44.352  49.296  1.00  0.00     0.069 C 
HETATM    7  C   UNL     1      23.641  45.492  49.840  1.00  0.00    -0.019 A 
HETATM    8  C   UNL     1      23.568  46.764  49.303  1.00  0.00     0.052 A 
HETATM    9  N   UNL     1      24.421  47.573  50.007  1.00  0.00    -0.356 N 
HETATM   10  H   UNL     1      24.574  48.565  49.864  1.00  0.00     0.166 HD
HETATM   11  C   UNL     1      25.040  46.841  50.997  1.00  0.00     0.043 A 
HETATM   12  C   UNL     1      24.555  45.533  50.926  1.00  0.00     0.002 A 
HETATM   13  C   UNL     1      25.984  47.242  51.946  1.00  0.00     0.033 A 
HETATM   14  C   UNL     1      26.420  46.284  52.865  1.00  0.00     0.039 A 
HETATM   15  C   UNL     1      25.927  44.979  52.847  1.00  0.00     0.070 A 
HETATM   16  C   UNL     1      25.016  44.583  51.861  1.00  0.00     0.051 A 
ENDROOT
BRANCH   1  17
HETATM   17  C   UNL     1      21.566  48.133  48.540  1.00  0.00    -0.021 A 
HETATM   18  C   UNL     1      21.745  49.519  48.402  1.00  0.00     0.012 A 
HETATM   19  C   UNL     1      20.694  50.409  48.654  1.00  0.00     0.038 A 
HETATM   20  C   UNL     1      19.441  49.938  49.049  1.00  0.00     0.076 A 
HETATM   21  C   UNL     1      19.241  48.556  49.217  1.00  0.00    -0.000 A 
HETATM   22  C   UNL     1      20.303  47.670  48.946  1.00  0.00     0.021 A 
BRANCH  20  23
HETATM   23  O   UNL     1      18.349  50.732  49.271  1.00  0.00    -0.355 OA
HETATM   24  C   UNL     1      18.573  52.094  49.616  1.00  0.00     0.210 C 
ENDBRANCH  20  23
BRANCH  21  25
HETATM   25  C   UNL     1      17.881  48.006  49.611  1.00  0.00     0.217 C 
BRANCH  25  26
HETATM   26  O   UNL     1      17.479  46.998  48.675  1.00  0.00    -0.347 OA
BRANCH  26  27
HETATM   27  C   UNL     1      16.711  47.436  47.630  1.00  0.00     0.069 A 
HETATM   28  C   UNL     1      15.767  48.413  47.947  1.00  0.00     0.039 A 
HETATM   29  C   UNL     1      14.928  48.941  46.959  1.00  0.00     0.032 A 
HETATM   30  C   UNL     1      15.010  48.488  45.637  1.00  0.00     0.034 A 
HETATM   31  C   UNL     1      15.944  47.499  45.328  1.00  0.00     0.032 A 
HETATM   32  C   UNL     1      16.789  46.976  46.317  1.00  0.00     0.039 A 
BRANCH  30  33
HETATM   33  N   UNL     1      14.136  49.067  44.695  1.00  0.00    -0.328 N 
HETATM   34  C   UNL     1      14.432  50.054  43.770  1.00  0.00     0.218 C 
HETATM   35  C   UNL     1      13.229  50.432  42.942  1.00  0.00     0.117 C 
HETATM   36  O   UNL     1      15.513  50.605  43.600  1.00  0.00    -0.274 OA
HETATM   37  H   UNL     1      13.183  48.725  44.701  1.00  0.00     0.169 HD
ENDBRANCH  30  33
ENDBRANCH  26  27
ENDBRANCH  25  26
ENDBRANCH  21  25
ENDBRANCH   1  17
BRANCH  15  38
HETATM   38  O   UNL     1      26.416  44.164  53.832  1.00  0.00    -0.347 OA
BRANCH  38  39
HETATM   39  C   UNL     1      27.606  43.438  53.510  1.00  0.00     0.214 C 
BRANCH  39  40
HETATM   40  C   UNL     1      28.699  43.802  54.486  1.00  0.00    -0.034 A 
HETATM   41  C   UNL     1      29.780  42.933  54.703  1.00  0.00     0.009 A 
HETATM   42  C   UNL     1      30.819  43.292  55.564  1.00  0.00     0.001 A 
HETATM   43  C   UNL     1      30.793  44.526  56.209  1.00  0.00     0.000 A 
HETATM   44  C   UNL     1      29.732  45.402  55.994  1.00  0.00     0.001 A 
HETATM   45  C   UNL     1      28.690  45.045  55.135  1.00  0.00     0.009 A 
ENDBRANCH  39  40
ENDBRANCH  38  39
ENDBRANCH  15  38
TORSDOF 9
ENDMDL
MODEL 10
REMARK VINA RESULT:      -9.5      3.026     11.050
REMARK  9 active torsions:
REMARK  status: ('A' for Active; 'I' for Inactive)
REMARK       I    between atoms: C_2  and  N_3 
REMARK    1  A    between atoms: N_3  and  C_4 
REMARK    2  A    between atoms: C_7  and  O_8 
REMARK    3  A    between atoms: O_8  and  C_9 
REMARK    4  A    between atoms: C_9  and  C_10 
REMARK    5  A    between atoms: C_11  and  O_12 
REMARK    6  A    between atoms: C_16  and  C_17 
REMARK    7  A    between atoms: C_31  and  O_32 
REMARK    8  A    between atoms: O_32  and  C_33 
REMARK    9  A    between atoms: C_33  and  C_34 
ROOT
HETATM    1  C   UNL     1      23.571  42.311  49.625  1.00  0.00     0.269 C 
HETATM    2  N   UNL     1      22.503  41.648  48.786  1.00  0.00    -0.061 N 
HETATM    3  H   UNL     1      21.614  41.755  49.284  1.00  0.00     0.278 HD
HETATM    4  H   UNL     1      22.709  40.645  48.735  1.00  0.00     0.278 HD
HETATM    5  C   UNL     1      22.348  42.211  47.392  1.00  0.00     0.238 C 
HETATM    6  C   UNL     1      21.941  43.695  47.433  1.00  0.00     0.069 C 
HETATM    7  C   UNL     1      22.750  44.434  48.444  1.00  0.00    -0.019 A 
HETATM    8  C   UNL     1      23.465  43.784  49.434  1.00  0.00     0.052 A 
HETATM    9  N   UNL     1      24.081  44.735  50.207  1.00  0.00    -0.356 N 
HETATM   10  H   UNL     1      24.692  44.570  50.998  1.00  0.00     0.166 HD
HETATM   11  C   UNL     1      23.779  45.989  49.723  1.00  0.00     0.043 A 
HETATM   12  C   UNL     1      22.958  45.829  48.605  1.00  0.00     0.002 A 
HETATM   13  C   UNL     1      24.175  47.245  50.191  1.00  0.00     0.033 A 
HETATM   14  C   UNL     1      23.742  48.365  49.475  1.00  0.00     0.039 A 
HETATM   15  C   UNL     1      22.954  48.238  48.331  1.00  0.00     0.070 A 
HETATM   16  C   UNL     1      22.528  46.975  47.904  1.00  0.00     0.051 A 
ENDROOT
BRANCH   1  17
HETATM   17  C   UNL     1      24.935  41.713  49.336  1.00  0.00    -0.021 A 
HETATM   18  C   UNL     1      25.168  41.099  48.095  1.00  0.00     0.012 A 
HETATM   19  C   UNL     1      26.436  40.609  47.761  1.00  0.00     0.038 A 
HETATM   20  C   UNL     1      27.502  40.721  48.656  1.00  0.00     0.076 A 
HETATM   21  C   UNL     1      27.290  41.311  49.914  1.00  0.00    -0.000 A 
HETATM   22  C   UNL     1      26.012  41.814  50.233  1.00  0.00     0.021 A 
BRANCH  20  23
HETATM   23  O   UNL     1      28.781  40.313  48.393  1.00  0.00    -0.355 OA
HETATM   24  C   UNL     1      29.043  38.915  48.364  1.00  0.00     0.210 C 
ENDBRANCH  20  23
BRANCH  21  25
HETATM   25  C   UNL     1      28.434  41.482  50.899  1.00  0.00     0.217 C 
BRANCH  25  26
HETATM   26  O   UNL     1      27.936  41.382  52.239  1.00  0.00    -0.347 OA
BRANCH  26  27
HETATM   27  C   UNL     1      28.480  42.259  53.139  1.00  0.00     0.069 A 
HETATM   28  C   UNL     1      27.568  43.087  53.794  1.00  0.00     0.039 A 
HETATM   29  C   UNL     1      28.007  44.021  54.740  1.00  0.00     0.032 A 
HETATM   30  C   UNL     1      29.369  44.153  55.034  1.00  0.00     0.034 A 
HETATM   31  C   UNL     1      30.278  43.334  54.363  1.00  0.00     0.032 A 
HETATM   32  C   UNL     1      29.838  42.394  53.421  1.00  0.00     0.039 A 
BRANCH  30  33
HETATM   33  N   UNL     1      29.737  45.112  55.999  1.00  0.00    -0.328 N 
HETATM   34  C   UNL     1      30.549  44.923  57.104  1.00  0.00     0.218 C 
HETATM   35  C   UNL     1      30.699  46.184  57.919  1.00  0.00     0.117 C 
HETATM   36  O   UNL     1      31.100  43.883  57.445  1.00  0.00    -0.274 OA
HETATM   37  H   UNL     1      29.359  46.042  55.871  1.00  0.00     0.169 HD
ENDBRANCH  30  33
ENDBRANCH  26  27
ENDBRANCH  25  26
ENDBRANCH  21  25
ENDBRANCH   1  17
BRANCH  15  38
HETATM   38  O   UNL     1      22.640  49.419  47.714  1.00  0.00    -0.347 OA
BRANCH  38  39
HETATM   39  C   UNL     1      22.587  50.573  48.558  1.00  0.00     0.214 C 
BRANCH  39  40
HETATM   40  C   UNL     1      21.158  50.833  48.970  1.00  0.00    -0.034 A 
HETATM   41  C   UNL     1      20.392  51.807  48.312  1.00  0.00     0.009 A 
HETATM   42  C   UNL     1      19.055  52.011  48.655  1.00  0.00     0.001 A 
HETATM   43  C   UNL     1      18.466  51.237  49.652  1.00  0.00     0.000 A 
HETATM   44  C   UNL     1      19.212  50.259  50.306  1.00  0.00     0.001 A 
HETATM   45  C   UNL     1      20.551  50.054  49.966  1.00  0.00     0.009 A 
ENDBRANCH  39  40
ENDBRANCH  38  39
ENDBRANCH  15  38
TORSDOF 9
ENDMDL
