MODEL 1
REMARK VINA RESULT:      -8.1      0.000      0.000
REMARK  9 active torsions:
REMARK  status: ('A' for Active; 'I' for Inactive)
REMARK    1  A    between atoms: C_2  and  N_3 
REMARK    2  A    between atoms: N_3  and  C_5 
REMARK    3  A    between atoms: N_3  and  C_29 
REMARK    4  A    between atoms: C_5  and  C_6 
REMARK    5  A    between atoms: N_7  and  C_8 
REMARK    6  A    between atoms: C_12  and  N_13 
REMARK    7  A    between atoms: C_16  and  C_17 
REMARK       I    between atoms: C_17  and  N_18 
REMARK    8  A    between atoms: N_18  and  N_19 
REMARK    9  A    between atoms: C_20  and  C_21 
ROOT
HETATM    1  C   UNL     1      26.577  44.975  51.513  1.00  0.00     0.096 A 
HETATM    2  N   UNL     1      27.286  43.865  51.061  1.00  0.00    -0.215 N 
HETATM    3  N   UNL     1      27.271  43.862  49.702  1.00  0.00     0.012 NA
HETATM    4  N   UNL     1      26.674  44.961  49.268  1.00  0.00    -0.152 NA
HETATM    5  C   UNL     1      26.245  45.665  50.355  1.00  0.00     0.170 A 
ENDROOT
BRANCH   5   6
HETATM    6  C   UNL     1      25.552  46.944  50.274  1.00  0.00     0.293 C 
HETATM    7  N   UNL     1      24.309  46.878  49.675  1.00  0.00    -0.242 N 
HETATM    8  H   UNL     1      23.945  45.993  49.334  1.00  0.00     0.192 HD
HETATM    9  O   UNL     1      26.093  47.962  50.699  1.00  0.00    -0.264 OA
BRANCH   7  10
HETATM   10  N   UNL     1      23.557  48.010  49.585  1.00  0.00    -0.184 NA
HETATM   11  C   UNL     1      22.550  47.970  48.774  1.00  0.00     0.150 C 
BRANCH  11  12
HETATM   12  C   UNL     1      21.650  49.130  48.618  1.00  0.00    -0.016 A 
HETATM   13  C   UNL     1      20.701  49.160  47.590  1.00  0.00     0.031 A 
HETATM   14  C   UNL     1      19.871  50.272  47.455  1.00  0.00     0.007 A 
HETATM   15  I   UNL     1      18.467  50.329  45.922  1.00  0.00    -0.045 I 
HETATM   16  C   UNL     1      19.979  51.347  48.337  1.00  0.00     0.018 A 
HETATM   17  C   UNL     1      20.926  51.310  49.364  1.00  0.00     0.002 A 
HETATM   18  C   UNL     1      21.766  50.203  49.506  1.00  0.00     0.013 A 
ENDBRANCH  11  12
ENDBRANCH   7  10
ENDBRANCH   5   6
BRANCH   1  19
HETATM   19  C   UNL     1      26.199  45.248  52.921  1.00  0.00     0.296 C 
BRANCH  19  20
HETATM   20  N   UNL     1      27.341  45.564  53.873  1.00  0.00    -0.066 N 
HETATM   21  H   UNL     1      28.212  45.416  53.343  1.00  0.00     0.280 HD
BRANCH  20  22
HETATM   22  C   UNL     1      27.353  44.594  55.048  1.00  0.00     0.231 C 
HETATM   23  C   UNL     1      26.200  43.610  54.965  1.00  0.00     0.034 C 
ENDBRANCH  20  22
BRANCH  20  24
HETATM   24  C   UNL     1      27.313  47.008  54.355  1.00  0.00     0.231 C 
HETATM   25  C   UNL     1      25.924  47.607  54.203  1.00  0.00     0.034 C 
ENDBRANCH  20  24
ENDBRANCH  19  20
ENDBRANCH   1  19
BRANCH   2  26
HETATM   26  C   UNL     1      27.981  42.894  51.818  1.00  0.00     0.225 A 
HETATM   27  N   UNL     1      29.153  43.203  52.382  1.00  0.00    -0.081 NA
HETATM   28  O   UNL     1      29.536  42.015  53.015  1.00  0.00    -0.103 OA
HETATM   29  N   UNL     1      28.608  41.009  52.798  1.00  0.00    -0.083 NA
HETATM   30  C   UNL     1      27.645  41.550  52.054  1.00  0.00     0.201 A 
BRANCH  30  31
HETATM   31  N   UNL     1      26.552  40.898  51.631  1.00  0.00    -0.379 N 
HETATM   32  H   UNL     1      26.383  40.769  50.636  1.00  0.00     0.158 HD
HETATM   33  H   UNL     1      25.766  40.654  52.231  1.00  0.00     0.158 HD
ENDBRANCH  30  31
ENDBRANCH   2  26
TORSDOF 9
ENDMDL
MODEL 2
REMARK VINA RESULT:      -8.0      2.813      4.990
REMARK  9 active torsions:
REMARK  status: ('A' for Active; 'I' for Inactive)
REMARK    1  A    between atoms: C_2  and  N_3 
REMARK    2  A    between atoms: N_3  and  C_5 
REMARK    3  A    between atoms: N_3  and  C_29 
REMARK    4  A    between atoms: C_5  and  C_6 
REMARK    5  A    between atoms: N_7  and  C_8 
REMARK    6  A    between atoms: C_12  and  N_13 
REMARK    7  A    between atoms: C_16  and  C_17 
REMARK       I    between atoms: C_17  and  N_18 
REMARK    8  A    between atoms: N_18  and  N_19 
REMARK    9  A    between atoms: C_20  and  C_21 
ROOT
HETATM    1  C   UNL     1      28.294  44.993  54.903  1.00  0.00     0.096 A 
HETATM    2  N   UNL     1      29.373  45.399  55.683  1.00  0.00    -0.215 N 
HETATM    3  N   UNL     1      29.321  46.749  55.830  1.00  0.00     0.012 NA
HETATM    4  N   UNL     1      28.215  47.209  55.266  1.00  0.00    -0.152 NA
HETATM    5  C   UNL     1      27.563  46.155  54.696  1.00  0.00     0.170 A 
ENDROOT
BRANCH   5   6
HETATM    6  C   UNL     1      26.292  46.269  53.992  1.00  0.00     0.293 C 
HETATM    7  N   UNL     1      26.353  47.014  52.830  1.00  0.00    -0.242 N 
HETATM    8  H   UNL     1      27.230  47.430  52.527  1.00  0.00     0.192 HD
HETATM    9  O   UNL     1      25.284  45.744  54.458  1.00  0.00    -0.264 OA
BRANCH   7  10
HETATM   10  N   UNL     1      25.231  47.149  52.072  1.00  0.00    -0.184 NA
HETATM   11  C   UNL     1      25.387  47.057  50.790  1.00  0.00     0.150 C 
BRANCH  11  12
HETATM   12  C   UNL     1      24.235  47.159  49.872  1.00  0.00    -0.016 A 
HETATM   13  C   UNL     1      23.690  48.408  49.554  1.00  0.00     0.031 A 
HETATM   14  C   UNL     1      22.594  48.479  48.695  1.00  0.00     0.007 A 
HETATM   15  I   UNL     1      21.770  50.330  48.227  1.00  0.00    -0.045 I 
HETATM   16  C   UNL     1      22.045  47.318  48.151  1.00  0.00     0.018 A 
HETATM   17  C   UNL     1      22.595  46.074  48.470  1.00  0.00     0.002 A 
HETATM   18  C   UNL     1      23.691  45.991  49.333  1.00  0.00     0.013 A 
ENDBRANCH  11  12
ENDBRANCH   7  10
ENDBRANCH   5   6
BRANCH   1  19
HETATM   19  C   UNL     1      28.084  43.630  54.354  1.00  0.00     0.296 C 
BRANCH  19  20
HETATM   20  N   UNL     1      28.338  43.461  52.865  1.00  0.00    -0.066 N 
HETATM   21  H   UNL     1      28.856  44.297  52.560  1.00  0.00     0.280 HD
BRANCH  20  22
HETATM   22  C   UNL     1      27.026  43.430  52.091  1.00  0.00     0.231 C 
HETATM   23  C   UNL     1      27.239  43.772  50.627  1.00  0.00     0.034 C 
ENDBRANCH  20  22
BRANCH  20  24
HETATM   24  C   UNL     1      29.184  42.233  52.556  1.00  0.00     0.231 C 
HETATM   25  C   UNL     1      28.590  40.987  53.192  1.00  0.00     0.034 C 
ENDBRANCH  20  24
ENDBRANCH  19  20
ENDBRANCH   1  19
BRANCH   2  26
HETATM   26  C   UNL     1      30.363  44.602  56.303  1.00  0.00     0.225 A 
HETATM   27  N   UNL     1      30.882  43.558  55.650  1.00  0.00    -0.081 NA
HETATM   28  O   UNL     1      31.790  43.016  56.566  1.00  0.00    -0.103 OA
HETATM   29  N   UNL     1      31.782  43.723  57.759  1.00  0.00    -0.083 NA
HETATM   30  C   UNL     1      30.895  44.704  57.599  1.00  0.00     0.201 A 
BRANCH  30  31
HETATM   31  N   UNL     1      30.597  45.620  58.533  1.00  0.00    -0.379 N 
HETATM   32  H   UNL     1      31.320  45.980  59.150  1.00  0.00     0.158 HD
HETATM   33  H   UNL     1      29.647  45.876  58.796  1.00  0.00     0.158 HD
ENDBRANCH  30  31
ENDBRANCH   2  26
TORSDOF 9
ENDMDL
MODEL 3
REMARK VINA RESULT:      -7.6      4.110      9.199
REMARK  9 active torsions:
REMARK  status: ('A' for Active; 'I' for Inactive)
REMARK    1  A    between atoms: C_2  and  N_3 
REMARK    2  A    between atoms: N_3  and  C_5 
REMARK    3  A    between atoms: N_3  and  C_29 
REMARK    4  A    between atoms: C_5  and  C_6 
REMARK    5  A    between atoms: N_7  and  C_8 
REMARK    6  A    between atoms: C_12  and  N_13 
REMARK    7  A    between atoms: C_16  and  C_17 
REMARK       I    between atoms: C_17  and  N_18 
REMARK    8  A    between atoms: N_18  and  N_19 
REMARK    9  A    between atoms: C_20  and  C_21 
ROOT
HETATM    1  C   UNL     1      23.565  47.160  49.302  1.00  0.00     0.096 A 
HETATM    2  N   UNL     1      22.356  46.753  48.744  1.00  0.00    -0.215 N 
HETATM    3  N   UNL     1      22.359  45.398  48.638  1.00  0.00     0.012 NA
HETATM    4  N   UNL     1      23.463  44.918  49.187  1.00  0.00    -0.152 NA
HETATM    5  C   UNL     1      24.218  45.973  49.609  1.00  0.00     0.170 A 
ENDROOT
BRANCH   5   6
HETATM    6  C   UNL     1      25.504  45.838  50.279  1.00  0.00     0.293 C 
HETATM    7  N   UNL     1      25.422  45.793  51.658  1.00  0.00    -0.242 N 
HETATM    8  H   UNL     1      24.522  45.851  52.125  1.00  0.00     0.192 HD
HETATM    9  O   UNL     1      26.539  45.798  49.618  1.00  0.00    -0.264 OA
BRANCH   7  10
HETATM   10  N   UNL     1      26.562  45.625  52.382  1.00  0.00    -0.184 NA
HETATM   11  C   UNL     1      26.908  44.404  52.639  1.00  0.00     0.150 C 
BRANCH  11  12
HETATM   12  C   UNL     1      28.141  44.103  53.394  1.00  0.00    -0.016 A 
HETATM   13  C   UNL     1      28.444  44.803  54.566  1.00  0.00     0.031 A 
HETATM   14  C   UNL     1      29.621  44.511  55.255  1.00  0.00     0.007 A 
HETATM   15  I   UNL     1      30.085  45.555  56.992  1.00  0.00    -0.045 I 
HETATM   16  C   UNL     1      30.490  43.526  54.784  1.00  0.00     0.018 A 
HETATM   17  C   UNL     1      30.180  42.828  53.614  1.00  0.00     0.002 A 
HETATM   18  C   UNL     1      29.007  43.116  52.914  1.00  0.00     0.013 A 
ENDBRANCH  11  12
ENDBRANCH   7  10
ENDBRANCH   5   6
BRANCH   1  19
HETATM   19  C   UNL     1      24.039  48.561  49.417  1.00  0.00     0.296 C 
BRANCH  19  20
HETATM   20  N   UNL     1      24.386  49.260  48.113  1.00  0.00    -0.066 N 
HETATM   21  H   UNL     1      24.477  48.522  47.401  1.00  0.00     0.280 HD
BRANCH  20  22
HETATM   22  C   UNL     1      25.734  49.964  48.216  1.00  0.00     0.231 C 
HETATM   23  C   UNL     1      26.758  49.096  48.925  1.00  0.00     0.034 C 
ENDBRANCH  20  22
BRANCH  20  24
HETATM   24  C   UNL     1      23.297  50.227  47.665  1.00  0.00     0.231 C 
HETATM   25  C   UNL     1      22.924  51.185  48.784  1.00  0.00     0.034 C 
ENDBRANCH  20  24
ENDBRANCH  19  20
ENDBRANCH   1  19
BRANCH   2  26
HETATM   26  C   UNL     1      21.243  47.544  48.377  1.00  0.00     0.225 A 
HETATM   27  N   UNL     1      20.713  48.397  49.260  1.00  0.00    -0.081 NA
HETATM   28  O   UNL     1      19.645  48.972  48.561  1.00  0.00    -0.103 OA
HETATM   29  N   UNL     1      19.534  48.437  47.286  1.00  0.00    -0.083 NA
HETATM   30  C   UNL     1      20.521  47.549  47.172  1.00  0.00     0.201 A 
BRANCH  30  31
HETATM   31  N   UNL     1      20.760  46.814  46.076  1.00  0.00    -0.379 N 
HETATM   32  H   UNL     1      21.274  47.211  45.293  1.00  0.00     0.158 HD
HETATM   33  H   UNL     1      20.318  45.917  45.884  1.00  0.00     0.158 HD
ENDBRANCH  30  31
ENDBRANCH   2  26
TORSDOF 9
ENDMDL
MODEL 4
REMARK VINA RESULT:      -7.5     12.459     15.004
REMARK  9 active torsions:
REMARK  status: ('A' for Active; 'I' for Inactive)
REMARK    1  A    between atoms: C_2  and  N_3 
REMARK    2  A    between atoms: N_3  and  C_5 
REMARK    3  A    between atoms: N_3  and  C_29 
REMARK    4  A    between atoms: C_5  and  C_6 
REMARK    5  A    between atoms: N_7  and  C_8 
REMARK    6  A    between atoms: C_12  and  N_13 
REMARK    7  A    between atoms: C_16  and  C_17 
REMARK       I    between atoms: C_17  and  N_18 
REMARK    8  A    between atoms: N_18  and  N_19 
REMARK    9  A    between atoms: C_20  and  C_21 
ROOT
HETATM    1  C   UNL     1      29.669  51.090  40.266  1.00  0.00     0.096 A 
HETATM    2  N   UNL     1      28.284  51.181  40.162  1.00  0.00    -0.215 N 
HETATM    3  N   UNL     1      27.848  52.163  40.995  1.00  0.00     0.012 NA
HETATM    4  N   UNL     1      28.890  52.762  41.548  1.00  0.00    -0.152 NA
HETATM    5  C   UNL     1      30.019  52.132  41.115  1.00  0.00     0.170 A 
ENDROOT
BRANCH   5   6
HETATM    6  C   UNL     1      31.369  52.522  41.500  1.00  0.00     0.293 C 
HETATM    7  N   UNL     1      31.907  51.767  42.525  1.00  0.00    -0.242 N 
HETATM    8  H   UNL     1      31.373  51.011  42.945  1.00  0.00     0.192 HD
HETATM    9  O   UNL     1      31.917  53.468  40.940  1.00  0.00    -0.264 OA
BRANCH   7  10
HETATM   10  N   UNL     1      33.180  52.020  42.935  1.00  0.00    -0.184 NA
HETATM   11  C   UNL     1      34.093  51.202  42.520  1.00  0.00     0.150 C 
BRANCH  11  12
HETATM   12  C   UNL     1      35.512  51.396  42.880  1.00  0.00    -0.016 A 
HETATM   13  C   UNL     1      35.891  52.436  43.736  1.00  0.00     0.031 A 
HETATM   14  C   UNL     1      37.238  52.607  44.051  1.00  0.00     0.007 A 
HETATM   15  I   UNL     1      37.812  54.157  45.313  1.00  0.00    -0.045 I 
HETATM   16  C   UNL     1      38.203  51.749  43.523  1.00  0.00     0.018 A 
HETATM   17  C   UNL     1      37.818  50.711  42.671  1.00  0.00     0.002 A 
HETATM   18  C   UNL     1      36.472  50.532  42.345  1.00  0.00     0.013 A 
ENDBRANCH  11  12
ENDBRANCH   7  10
ENDBRANCH   5   6
BRANCH   1  19
HETATM   19  C   UNL     1      30.516  50.029  39.667  1.00  0.00     0.296 C 
BRANCH  19  20
HETATM   20  N   UNL     1      30.354  48.634  40.248  1.00  0.00    -0.066 N 
HETATM   21  H   UNL     1      29.366  48.547  40.525  1.00  0.00     0.280 HD
BRANCH  20  22
HETATM   22  C   UNL     1      31.196  48.469  41.507  1.00  0.00     0.231 C 
HETATM   23  C   UNL     1      32.579  47.932  41.181  1.00  0.00     0.034 C 
ENDBRANCH  20  22
BRANCH  20  24
HETATM   24  C   UNL     1      30.666  47.542  39.233  1.00  0.00     0.231 C 
HETATM   25  C   UNL     1      29.448  47.227  38.380  1.00  0.00     0.034 C 
ENDBRANCH  20  24
ENDBRANCH  19  20
ENDBRANCH   1  19
BRANCH   2  26
HETATM   26  C   UNL     1      27.413  50.456  39.317  1.00  0.00     0.225 A 
HETATM   27  N   UNL     1      27.334  50.765  38.020  1.00  0.00    -0.081 NA
HETATM   28  O   UNL     1      26.380  49.868  37.525  1.00  0.00    -0.103 OA
HETATM   29  N   UNL     1      25.883  49.058  38.535  1.00  0.00    -0.083 NA
HETATM   30  C   UNL     1      26.519  49.423  39.647  1.00  0.00     0.201 A 
BRANCH  30  31
HETATM   31  N   UNL     1      26.323  48.869  40.853  1.00  0.00    -0.379 N 
HETATM   32  H   UNL     1      27.108  48.711  41.480  1.00  0.00     0.158 HD
HETATM   33  H   UNL     1      25.452  48.428  41.142  1.00  0.00     0.158 HD
ENDBRANCH  30  31
ENDBRANCH   2  26
TORSDOF 9
ENDMDL
MODEL 5
REMARK VINA RESULT:      -7.4      2.799      4.649
REMARK  9 active torsions:
REMARK  status: ('A' for Active; 'I' for Inactive)
REMARK    1  A    between atoms: C_2  and  N_3 
REMARK    2  A    between atoms: N_3  and  C_5 
REMARK    3  A    between atoms: N_3  and  C_29 
REMARK    4  A    between atoms: C_5  and  C_6 
REMARK    5  A    between atoms: N_7  and  C_8 
REMARK    6  A    between atoms: C_12  and  N_13 
REMARK    7  A    between atoms: C_16  and  C_17 
REMARK       I    between atoms: C_17  and  N_18 
REMARK    8  A    between atoms: N_18  and  N_19 
REMARK    9  A    between atoms: C_20  and  C_21 
ROOT
HETATM    1  C   UNL     1      24.255  46.452  49.411  1.00  0.00     0.096 A 
HETATM    2  N   UNL     1      25.453  46.620  50.100  1.00  0.00    -0.215 N 
HETATM    3  N   UNL     1      25.697  47.951  50.233  1.00  0.00     0.012 NA
HETATM    4  N   UNL     1      24.672  48.634  49.750  1.00  0.00    -0.152 NA
HETATM    5  C   UNL     1      23.770  47.743  49.246  1.00  0.00     0.170 A 
ENDROOT
BRANCH   5   6
HETATM    6  C   UNL     1      22.501  48.123  48.641  1.00  0.00     0.293 C 
HETATM    7  N   UNL     1      21.519  48.465  49.551  1.00  0.00    -0.242 N 
HETATM    8  H   UNL     1      21.707  48.442  50.549  1.00  0.00     0.192 HD
HETATM    9  O   UNL     1      22.372  48.096  47.420  1.00  0.00    -0.264 OA
BRANCH   7  10
HETATM   10  N   UNL     1      20.306  48.877  49.091  1.00  0.00    -0.184 NA
HETATM   11  C   UNL     1      19.660  49.714  49.838  1.00  0.00     0.150 C 
BRANCH  11  12
HETATM   12  C   UNL     1      18.347  50.249  49.425  1.00  0.00    -0.016 A 
HETATM   13  C   UNL     1      17.567  49.568  48.484  1.00  0.00     0.031 A 
HETATM   14  C   UNL     1      16.337  50.099  48.100  1.00  0.00     0.007 A 
HETATM   15  I   UNL     1      15.176  49.100  46.694  1.00  0.00    -0.045 I 
HETATM   16  C   UNL     1      15.881  51.298  48.649  1.00  0.00     0.018 A 
HETATM   17  C   UNL     1      16.663  51.973  49.590  1.00  0.00     0.002 A 
HETATM   18  C   UNL     1      17.899  51.452  49.979  1.00  0.00     0.013 A 
ENDBRANCH  11  12
ENDBRANCH   7  10
ENDBRANCH   5   6
BRANCH   1  19
HETATM   19  C   UNL     1      23.722  45.166  48.899  1.00  0.00     0.296 C 
BRANCH  19  20
HETATM   20  N   UNL     1      22.530  44.589  49.645  1.00  0.00    -0.066 N 
HETATM   21  H   UNL     1      22.423  45.151  50.501  1.00  0.00     0.280 HD
BRANCH  20  22
HETATM   22  C   UNL     1      22.801  43.152  50.074  1.00  0.00     0.231 C 
HETATM   23  C   UNL     1      24.170  42.686  49.612  1.00  0.00     0.034 C 
ENDBRANCH  20  22
BRANCH  20  24
HETATM   24  C   UNL     1      21.240  44.687  48.842  1.00  0.00     0.231 C 
HETATM   25  C   UNL     1      21.499  44.453  47.363  1.00  0.00     0.034 C 
ENDBRANCH  20  24
ENDBRANCH  19  20
ENDBRANCH   1  19
BRANCH   2  26
HETATM   26  C   UNL     1      26.300  45.631  50.653  1.00  0.00     0.225 A 
HETATM   27  N   UNL     1      27.310  45.140  49.928  1.00  0.00    -0.081 NA
HETATM   28  O   UNL     1      27.895  44.195  50.779  1.00  0.00    -0.103 OA
HETATM   29  N   UNL     1      27.213  44.115  51.984  1.00  0.00    -0.083 NA
HETATM   30  C   UNL     1      26.222  45.001  51.906  1.00  0.00     0.201 A 
BRANCH  30  31
HETATM   31  N   UNL     1      25.330  45.234  52.881  1.00  0.00    -0.379 N 
HETATM   32  H   UNL     1      25.609  45.179  53.857  1.00  0.00     0.158 HD
HETATM   33  H   UNL     1      24.326  45.303  52.729  1.00  0.00     0.158 HD
ENDBRANCH  30  31
ENDBRANCH   2  26
TORSDOF 9
ENDMDL
MODEL 6
REMARK VINA RESULT:      -7.4     12.649     15.302
REMARK  9 active torsions:
REMARK  status: ('A' for Active; 'I' for Inactive)
REMARK    1  A    between atoms: C_2  and  N_3 
REMARK    2  A    between atoms: N_3  and  C_5 
REMARK    3  A    between atoms: N_3  and  C_29 
REMARK    4  A    between atoms: C_5  and  C_6 
REMARK    5  A    between atoms: N_7  and  C_8 
REMARK    6  A    between atoms: C_12  and  N_13 
REMARK    7  A    between atoms: C_16  and  C_17 
REMARK       I    between atoms: C_17  and  N_18 
REMARK    8  A    between atoms: N_18  and  N_19 
REMARK    9  A    between atoms: C_20  and  C_21 
ROOT
HETATM    1  C   UNL     1      30.681  50.972  41.585  1.00  0.00     0.096 A 
HETATM    2  N   UNL     1      29.897  51.702  40.695  1.00  0.00    -0.215 N 
HETATM    3  N   UNL     1      30.186  53.022  40.840  1.00  0.00     0.012 NA
HETATM    4  N   UNL     1      31.179  53.160  41.705  1.00  0.00    -0.152 NA
HETATM    5  C   UNL     1      31.507  51.922  42.172  1.00  0.00     0.170 A 
ENDROOT
BRANCH   5   6
HETATM    6  C   UNL     1      32.572  51.671  43.135  1.00  0.00     0.293 C 
HETATM    7  N   UNL     1      33.834  52.007  42.685  1.00  0.00    -0.242 N 
HETATM    8  H   UNL     1      33.966  52.395  41.755  1.00  0.00     0.192 HD
HETATM    9  O   UNL     1      32.305  51.177  44.228  1.00  0.00    -0.264 OA
BRANCH   7  10
HETATM   10  N   UNL     1      34.897  51.852  43.521  1.00  0.00    -0.184 NA
HETATM   11  C   UNL     1      36.044  52.252  43.075  1.00  0.00     0.150 C 
BRANCH  11  12
HETATM   12  C   UNL     1      37.261  52.159  43.907  1.00  0.00    -0.016 A 
HETATM   13  C   UNL     1      37.381  52.918  45.075  1.00  0.00     0.031 A 
HETATM   14  C   UNL     1      38.545  52.823  45.837  1.00  0.00     0.007 A 
HETATM   15  I   UNL     1      38.738  53.957  47.569  1.00  0.00    -0.045 I 
HETATM   16  C   UNL     1      39.581  51.976  45.444  1.00  0.00     0.018 A 
HETATM   17  C   UNL     1      39.454  51.218  44.278  1.00  0.00     0.002 A 
HETATM   18  C   UNL     1      38.294  51.308  43.504  1.00  0.00     0.013 A 
ENDBRANCH  11  12
ENDBRANCH   7  10
ENDBRANCH   5   6
BRANCH   1  19
HETATM   19  C   UNL     1      30.544  49.524  41.876  1.00  0.00     0.296 C 
BRANCH  19  20
HETATM   20  N   UNL     1      30.490  48.600  40.670  1.00  0.00    -0.066 N 
HETATM   21  H   UNL     1      30.432  49.207  39.840  1.00  0.00     0.280 HD
BRANCH  20  22
HETATM   22  C   UNL     1      29.229  47.745  40.698  1.00  0.00     0.231 C 
HETATM   23  C   UNL     1      28.830  47.302  39.301  1.00  0.00     0.034 C 
ENDBRANCH  20  22
BRANCH  20  24
HETATM   24  C   UNL     1      31.736  47.734  40.546  1.00  0.00     0.231 C 
HETATM   25  C   UNL     1      32.860  48.266  41.420  1.00  0.00     0.034 C 
ENDBRANCH  20  24
ENDBRANCH  19  20
ENDBRANCH   1  19
BRANCH   2  26
HETATM   26  C   UNL     1      28.978  51.224  39.732  1.00  0.00     0.225 A 
HETATM   27  N   UNL     1      29.410  50.875  38.516  1.00  0.00    -0.081 NA
HETATM   28  O   UNL     1      28.241  50.481  37.854  1.00  0.00    -0.103 OA
HETATM   29  N   UNL     1      27.129  50.626  38.669  1.00  0.00    -0.083 NA
HETATM   30  C   UNL     1      27.583  51.090  39.833  1.00  0.00     0.201 A 
BRANCH  30  31
HETATM   31  N   UNL     1      26.813  51.359  40.898  1.00  0.00    -0.379 N 
HETATM   32  H   UNL     1      26.059  50.729  41.159  1.00  0.00     0.158 HD
HETATM   33  H   UNL     1      26.813  52.251  41.389  1.00  0.00     0.158 HD
ENDBRANCH  30  31
ENDBRANCH   2  26
TORSDOF 9
ENDMDL
MODEL 7
REMARK VINA RESULT:      -7.4     12.712     15.151
REMARK  9 active torsions:
REMARK  status: ('A' for Active; 'I' for Inactive)
REMARK    1  A    between atoms: C_2  and  N_3 
REMARK    2  A    between atoms: N_3  and  C_5 
REMARK    3  A    between atoms: N_3  and  C_29 
REMARK    4  A    between atoms: C_5  and  C_6 
REMARK    5  A    between atoms: N_7  and  C_8 
REMARK    6  A    between atoms: C_12  and  N_13 
REMARK    7  A    between atoms: C_16  and  C_17 
REMARK       I    between atoms: C_17  and  N_18 
REMARK    8  A    between atoms: N_18  and  N_19 
REMARK    9  A    between atoms: C_20  and  C_21 
ROOT
HETATM    1  C   UNL     1      30.794  50.960  42.134  1.00  0.00     0.096 A 
HETATM    2  N   UNL     1      30.130  49.799  41.746  1.00  0.00    -0.215 N 
HETATM    3  N   UNL     1      30.719  48.736  42.354  1.00  0.00     0.012 NA
HETATM    4  N   UNL     1      31.658  49.169  43.181  1.00  0.00    -0.152 NA
HETATM    5  C   UNL     1      31.722  50.527  43.072  1.00  0.00     0.170 A 
ENDROOT
BRANCH   5   6
HETATM    6  C   UNL     1      32.632  51.364  43.843  1.00  0.00     0.293 C 
HETATM    7  N   UNL     1      33.863  51.561  43.246  1.00  0.00    -0.242 N 
HETATM    8  H   UNL     1      34.074  51.141  42.345  1.00  0.00     0.192 HD
HETATM    9  O   UNL     1      32.284  51.804  44.935  1.00  0.00    -0.264 OA
BRANCH   7  10
HETATM   10  N   UNL     1      34.775  52.361  43.862  1.00  0.00    -0.184 NA
HETATM   11  C   UNL     1      35.958  52.397  43.337  1.00  0.00     0.150 C 
BRANCH  11  12
HETATM   12  C   UNL     1      37.019  53.253  43.905  1.00  0.00    -0.016 A 
HETATM   13  C   UNL     1      37.394  53.122  45.246  1.00  0.00     0.031 A 
HETATM   14  C   UNL     1      38.390  53.950  45.763  1.00  0.00     0.007 A 
HETATM   15  I   UNL     1      38.946  53.770  47.759  1.00  0.00    -0.045 I 
HETATM   16  C   UNL     1      39.011  54.900  44.953  1.00  0.00     0.018 A 
HETATM   17  C   UNL     1      38.634  55.025  43.614  1.00  0.00     0.002 A 
HETATM   18  C   UNL     1      37.635  54.204  43.086  1.00  0.00     0.013 A 
ENDBRANCH  11  12
ENDBRANCH   7  10
ENDBRANCH   5   6
BRANCH   1  19
HETATM   19  C   UNL     1      30.587  52.311  41.558  1.00  0.00     0.296 C 
BRANCH  19  20
HETATM   20  N   UNL     1      31.200  52.558  40.189  1.00  0.00    -0.066 N 
HETATM   21  H   UNL     1      31.525  53.535  40.186  1.00  0.00     0.280 HD
BRANCH  20  22
HETATM   22  C   UNL     1      30.150  52.423  39.092  1.00  0.00     0.231 C 
HETATM   23  C   UNL     1      28.850  53.102  39.484  1.00  0.00     0.034 C 
ENDBRANCH  20  22
BRANCH  20  24
HETATM   24  C   UNL     1      32.395  51.654  39.916  1.00  0.00     0.231 C 
HETATM   25  C   UNL     1      32.357  51.113  38.496  1.00  0.00     0.034 C 
ENDBRANCH  20  24
ENDBRANCH  19  20
ENDBRANCH   1  19
BRANCH   2  26
HETATM   26  C   UNL     1      28.995  49.668  40.913  1.00  0.00     0.225 A 
HETATM   27  N   UNL     1      27.806  50.112  41.335  1.00  0.00    -0.081 NA
HETATM   28  O   UNL     1      26.945  49.799  40.276  1.00  0.00    -0.103 OA
HETATM   29  N   UNL     1      27.621  49.151  39.254  1.00  0.00    -0.083 NA
HETATM   30  C   UNL     1      28.891  49.066  39.648  1.00  0.00     0.201 A 
BRANCH  30  31
HETATM   31  N   UNL     1      29.875  48.505  38.930  1.00  0.00    -0.379 N 
HETATM   32  H   UNL     1      30.715  48.163  39.389  1.00  0.00     0.158 HD
HETATM   33  H   UNL     1      29.929  48.540  37.914  1.00  0.00     0.158 HD
ENDBRANCH  30  31
ENDBRANCH   2  26
TORSDOF 9
ENDMDL
MODEL 8
REMARK VINA RESULT:      -7.3      2.668      4.347
REMARK  9 active torsions:
REMARK  status: ('A' for Active; 'I' for Inactive)
REMARK    1  A    between atoms: C_2  and  N_3 
REMARK    2  A    between atoms: N_3  and  C_5 
REMARK    3  A    between atoms: N_3  and  C_29 
REMARK    4  A    between atoms: C_5  and  C_6 
REMARK    5  A    between atoms: N_7  and  C_8 
REMARK    6  A    between atoms: C_12  and  N_13 
REMARK    7  A    between atoms: C_16  and  C_17 
REMARK       I    between atoms: C_17  and  N_18 
REMARK    8  A    between atoms: N_18  and  N_19 
REMARK    9  A    between atoms: C_20  and  C_21 
ROOT
HETATM    1  C   UNL     1      23.842  46.190  49.382  1.00  0.00     0.096 A 
HETATM    2  N   UNL     1      24.433  44.941  49.551  1.00  0.00    -0.215 N 
HETATM    3  N   UNL     1      23.587  43.990  49.073  1.00  0.00     0.012 NA
HETATM    4  N   UNL     1      22.535  44.577  48.524  1.00  0.00    -0.152 NA
HETATM    5  C   UNL     1      22.668  45.924  48.691  1.00  0.00     0.170 A 
ENDROOT
BRANCH   5   6
HETATM    6  C   UNL     1      21.706  46.903  48.202  1.00  0.00     0.293 C 
HETATM    7  N   UNL     1      20.657  47.148  49.067  1.00  0.00    -0.242 N 
HETATM    8  H   UNL     1      20.599  46.667  49.960  1.00  0.00     0.192 HD
HETATM    9  O   UNL     1      21.859  47.412  47.095  1.00  0.00    -0.264 OA
BRANCH   7  10
HETATM   10  N   UNL     1      19.723  48.078  48.727  1.00  0.00    -0.184 NA
HETATM   11  C   UNL     1      19.702  49.161  49.437  1.00  0.00     0.150 C 
BRANCH  11  12
HETATM   12  C   UNL     1      18.749  50.249  49.140  1.00  0.00    -0.016 A 
HETATM   13  C   UNL     1      17.822  50.116  48.101  1.00  0.00     0.031 A 
HETATM   14  C   UNL     1      16.940  51.162  47.831  1.00  0.00     0.007 A 
HETATM   15  I   UNL     1      15.566  50.978  46.282  1.00  0.00    -0.045 I 
HETATM   16  C   UNL     1      16.977  52.332  48.590  1.00  0.00     0.018 A 
HETATM   17  C   UNL     1      17.904  52.458  49.628  1.00  0.00     0.002 A 
HETATM   18  C   UNL     1      18.794  51.418  49.905  1.00  0.00     0.013 A 
ENDBRANCH  11  12
ENDBRANCH   7  10
ENDBRANCH   5   6
BRANCH   1  19
HETATM   19  C   UNL     1      24.348  47.471  49.934  1.00  0.00     0.296 C 
BRANCH  19  20
HETATM   20  N   UNL     1      25.379  48.203  49.091  1.00  0.00    -0.066 N 
HETATM   21  H   UNL     1      25.572  47.601  48.278  1.00  0.00     0.280 HD
BRANCH  20  22
HETATM   22  C   UNL     1      26.687  48.370  49.855  1.00  0.00     0.231 C 
HETATM   23  C   UNL     1      27.681  49.210  49.074  1.00  0.00     0.034 C 
ENDBRANCH  20  22
BRANCH  20  24
HETATM   24  C   UNL     1      24.868  49.545  48.583  1.00  0.00     0.231 C 
HETATM   25  C   UNL     1      23.488  49.850  49.144  1.00  0.00     0.034 C 
ENDBRANCH  20  24
ENDBRANCH  19  20
ENDBRANCH   1  19
BRANCH   2  26
HETATM   26  C   UNL     1      25.712  44.633  50.068  1.00  0.00     0.225 A 
HETATM   27  N   UNL     1      26.807  45.065  49.434  1.00  0.00    -0.081 NA
HETATM   28  O   UNL     1      27.857  44.560  50.211  1.00  0.00    -0.103 OA
HETATM   29  N   UNL     1      27.378  43.813  51.277  1.00  0.00    -0.083 NA
HETATM   30  C   UNL     1      26.049  43.854  51.188  1.00  0.00     0.201 A 
BRANCH  30  31
HETATM   31  N   UNL     1      25.210  43.253  52.044  1.00  0.00    -0.379 N 
HETATM   32  H   UNL     1      24.448  43.776  52.469  1.00  0.00     0.158 HD
HETATM   33  H   UNL     1      25.370  42.332  52.447  1.00  0.00     0.158 HD
ENDBRANCH  30  31
ENDBRANCH   2  26
TORSDOF 9
ENDMDL
MODEL 9
REMARK VINA RESULT:      -7.2      4.224      9.304
REMARK  9 active torsions:
REMARK  status: ('A' for Active; 'I' for Inactive)
REMARK    1  A    between atoms: C_2  and  N_3 
REMARK    2  A    between atoms: N_3  and  C_5 
REMARK    3  A    between atoms: N_3  and  C_29 
REMARK    4  A    between atoms: C_5  and  C_6 
REMARK    5  A    between atoms: N_7  and  C_8 
REMARK    6  A    between atoms: C_12  and  N_13 
REMARK    7  A    between atoms: C_16  and  C_17 
REMARK       I    between atoms: C_17  and  N_18 
REMARK    8  A    between atoms: N_18  and  N_19 
REMARK    9  A    between atoms: C_20  and  C_21 
ROOT
HETATM    1  C   UNL     1      21.568  47.920  48.542  1.00  0.00     0.096 A 
HETATM    2  N   UNL     1      20.737  47.550  47.488  1.00  0.00    -0.215 N 
HETATM    3  N   UNL     1      21.403  46.665  46.699  1.00  0.00     0.012 NA
HETATM    4  N   UNL     1      22.573  46.383  47.248  1.00  0.00    -0.152 NA
HETATM    5  C   UNL     1      22.699  47.131  48.382  1.00  0.00     0.170 A 
ENDROOT
BRANCH   5   6
HETATM    6  C   UNL     1      23.855  47.080  49.267  1.00  0.00     0.293 C 
HETATM    7  N   UNL     1      23.921  45.941  50.047  1.00  0.00    -0.242 N 
HETATM    8  H   UNL     1      23.204  45.224  49.978  1.00  0.00     0.192 HD
HETATM    9  O   UNL     1      24.652  48.013  49.288  1.00  0.00    -0.264 OA
BRANCH   7  10
HETATM   10  N   UNL     1      24.984  45.771  50.880  1.00  0.00    -0.184 NA
HETATM   11  C   UNL     1      24.956  46.432  51.993  1.00  0.00     0.150 C 
BRANCH  11  12
HETATM   12  C   UNL     1      26.042  46.303  52.985  1.00  0.00    -0.016 A 
HETATM   13  C   UNL     1      26.826  45.146  53.031  1.00  0.00     0.031 A 
HETATM   14  C   UNL     1      27.838  45.041  53.984  1.00  0.00     0.007 A 
HETATM   15  I   UNL     1      29.001  43.319  54.069  1.00  0.00    -0.045 I 
HETATM   16  C   UNL     1      28.073  46.081  54.884  1.00  0.00     0.018 A 
HETATM   17  C   UNL     1      27.288  47.236  54.831  1.00  0.00     0.002 A 
HETATM   18  C   UNL     1      26.269  47.349  53.883  1.00  0.00     0.013 A 
ENDBRANCH  11  12
ENDBRANCH   7  10
ENDBRANCH   5   6
BRANCH   1  19
HETATM   19  C   UNL     1      21.296  49.001  49.521  1.00  0.00     0.296 C 
BRANCH  19  20
HETATM   20  N   UNL     1      21.342  50.421  48.983  1.00  0.00    -0.066 N 
HETATM   21  H   UNL     1      21.168  50.355  47.970  1.00  0.00     0.280 HD
BRANCH  20  22
HETATM   22  C   UNL     1      22.729  51.027  49.167  1.00  0.00     0.231 C 
HETATM   23  C   UNL     1      23.550  50.928  47.895  1.00  0.00     0.034 C 
ENDBRANCH  20  22
BRANCH  20  24
HETATM   24  C   UNL     1      20.270  51.311  49.596  1.00  0.00     0.231 C 
HETATM   25  C   UNL     1      19.519  52.081  48.522  1.00  0.00     0.034 C 
ENDBRANCH  20  24
ENDBRANCH  19  20
ENDBRANCH   1  19
BRANCH   2  26
HETATM   26  C   UNL     1      19.399  47.935  47.241  1.00  0.00     0.225 A 
HETATM   27  N   UNL     1      19.142  48.958  46.419  1.00  0.00    -0.081 NA
HETATM   28  O   UNL     1      17.745  49.051  46.439  1.00  0.00    -0.103 OA
HETATM   29  N   UNL     1      17.191  48.107  47.290  1.00  0.00    -0.083 NA
HETATM   30  C   UNL     1      18.215  47.416  47.790  1.00  0.00     0.201 A 
BRANCH  30  31
HETATM   31  N   UNL     1      18.096  46.400  48.658  1.00  0.00    -0.379 N 
HETATM   32  H   UNL     1      18.706  45.590  48.587  1.00  0.00     0.158 HD
HETATM   33  H   UNL     1      17.315  46.290  49.302  1.00  0.00     0.158 HD
ENDBRANCH  30  31
ENDBRANCH   2  26
TORSDOF 9
ENDMDL
MODEL 10
REMARK VINA RESULT:      -7.2      2.989      4.852
REMARK  9 active torsions:
REMARK  status: ('A' for Active; 'I' for Inactive)
REMARK    1  A    between atoms: C_2  and  N_3 
REMARK    2  A    between atoms: N_3  and  C_5 
REMARK    3  A    between atoms: N_3  and  C_29 
REMARK    4  A    between atoms: C_5  and  C_6 
REMARK    5  A    between atoms: N_7  and  C_8 
REMARK    6  A    between atoms: C_12  and  N_13 
REMARK    7  A    between atoms: C_16  and  C_17 
REMARK       I    between atoms: C_17  and  N_18 
REMARK    8  A    between atoms: N_18  and  N_19 
REMARK    9  A    between atoms: C_20  and  C_21 
ROOT
HETATM    1  C   UNL     1      24.314  46.391  49.792  1.00  0.00     0.096 A 
HETATM    2  N   UNL     1      25.533  46.598  50.433  1.00  0.00    -0.215 N 
HETATM    3  N   UNL     1      25.867  47.911  50.318  1.00  0.00     0.012 NA
HETATM    4  N   UNL     1      24.882  48.564  49.723  1.00  0.00    -0.152 NA
HETATM    5  C   UNL     1      23.914  47.660  49.396  1.00  0.00     0.170 A 
ENDROOT
BRANCH   5   6
HETATM    6  C   UNL     1      22.662  48.010  48.738  1.00  0.00     0.293 C 
HETATM    7  N   UNL     1      21.784  48.723  49.532  1.00  0.00    -0.242 N 
HETATM    8  H   UNL     1      22.030  48.963  50.488  1.00  0.00     0.192 HD
HETATM    9  O   UNL     1      22.456  47.650  47.582  1.00  0.00    -0.264 OA
BRANCH   7  10
HETATM   10  N   UNL     1      20.601  49.138  49.002  1.00  0.00    -0.184 NA
HETATM   11  C   UNL     1      19.610  49.255  49.826  1.00  0.00     0.150 C 
BRANCH  11  12
HETATM   12  C   UNL     1      18.287  49.724  49.366  1.00  0.00    -0.016 A 
HETATM   13  C   UNL     1      17.804  50.978  49.757  1.00  0.00     0.031 A 
HETATM   14  C   UNL     1      16.547  51.394  49.320  1.00  0.00     0.007 A 
HETATM   15  I   UNL     1      15.815  53.250  49.906  1.00  0.00    -0.045 I 
HETATM   16  C   UNL     1      15.775  50.572  48.498  1.00  0.00     0.018 A 
HETATM   17  C   UNL     1      16.265  49.323  48.109  1.00  0.00     0.002 A 
HETATM   18  C   UNL     1      17.521  48.894  48.544  1.00  0.00     0.013 A 
ENDBRANCH  11  12
ENDBRANCH   7  10
ENDBRANCH   5   6
BRANCH   1  19
HETATM   19  C   UNL     1      23.687  45.072  49.527  1.00  0.00     0.296 C 
BRANCH  19  20
HETATM   20  N   UNL     1      24.256  44.282  48.360  1.00  0.00    -0.066 N 
HETATM   21  H   UNL     1      25.061  44.820  48.008  1.00  0.00     0.280 HD
BRANCH  20  22
HETATM   22  C   UNL     1      23.243  44.184  47.225  1.00  0.00     0.231 C 
HETATM   23  C   UNL     1      23.423  42.902  46.433  1.00  0.00     0.034 C 
ENDBRANCH  20  22
BRANCH  20  24
HETATM   24  C   UNL     1      24.746  42.902  48.776  1.00  0.00     0.231 C 
HETATM   25  C   UNL     1      24.382  42.607  50.223  1.00  0.00     0.034 C 
ENDBRANCH  20  24
ENDBRANCH  19  20
ENDBRANCH   1  19
BRANCH   2  26
HETATM   26  C   UNL     1      26.321  45.671  51.152  1.00  0.00     0.225 A 
HETATM   27  N   UNL     1      27.186  44.887  50.502  1.00  0.00    -0.081 NA
HETATM   28  O   UNL     1      27.753  44.110  51.519  1.00  0.00    -0.103 OA
HETATM   29  N   UNL     1      27.202  44.418  52.753  1.00  0.00    -0.083 NA
HETATM   30  C   UNL     1      26.311  45.383  52.528  1.00  0.00     0.201 A 
BRANCH  30  31
HETATM   31  N   UNL     1      25.561  45.963  53.476  1.00  0.00    -0.379 N 
HETATM   32  H   UNL     1      25.910  46.771  53.985  1.00  0.00     0.158 HD
HETATM   33  H   UNL     1      24.710  45.554  53.859  1.00  0.00     0.158 HD
ENDBRANCH  30  31
ENDBRANCH   2  26
TORSDOF 9
ENDMDL
