MODEL 1
REMARK VINA RESULT:      -9.1      0.000      0.000
REMARK  5 active torsions:
REMARK  status: ('A' for Active; 'I' for Inactive)
REMARK    1  A    between atoms: C_2  and  N_3 
REMARK       I    between atoms: N_3  and  C_4 
REMARK    2  A    between atoms: C_4  and  C_5 
REMARK    3  A    between atoms: N_8  and  C_10 
REMARK    4  A    between atoms: C_10  and  C_11 
REMARK    5  A    between atoms: C_12  and  C_13 
ROOT
HETATM    1  C   UNL     1      24.356  45.804  50.276  1.00  0.00     0.081 C 
HETATM    2  C   UNL     1      24.518  45.183  51.662  1.00  0.00     0.042 C 
HETATM    3  C   UNL     1      25.986  44.975  52.026  1.00  0.00     0.236 C 
HETATM    4  N   UNL     1      26.656  44.104  50.990  1.00  0.00    -0.067 N 
HETATM    5  H   UNL     1      26.175  43.199  51.005  1.00  0.00     0.280 HD
HETATM    6  C   UNL     1      26.553  44.673  49.593  1.00  0.00     0.236 C 
HETATM    7  C   UNL     1      25.102  44.967  49.231  1.00  0.00     0.042 C 
ENDROOT
BRANCH   4   8
HETATM    8  C   UNL     1      28.119  43.826  51.321  1.00  0.00     0.277 C 
BRANCH   8   9
HETATM    9  C   UNL     1      28.353  42.546  52.038  1.00  0.00     0.016 A 
HETATM   10  C   UNL     1      28.887  42.323  53.352  1.00  0.00     0.096 A 
HETATM   11  N   UNL     1      28.900  41.013  53.632  1.00  0.00    -0.174 NA
HETATM   12  N   UNL     1      28.346  40.412  52.579  1.00  0.00    -0.288 N 
HETATM   13  H   UNL     1      28.224  39.402  52.608  1.00  0.00     0.188 HD
HETATM   14  C   UNL     1      28.004  41.283  51.591  1.00  0.00     0.120 A 
BRANCH  10  15
HETATM   15  C   UNL     1      29.351  43.279  54.365  1.00  0.00    -0.003 A 
HETATM   16  C   UNL     1      30.419  42.994  55.221  1.00  0.00     0.037 A 
HETATM   17  C   UNL     1      30.839  43.936  56.164  1.00  0.00     0.035 A 
HETATM   18 CL   UNL     1      32.175  43.562  57.181  1.00  0.00    -0.084 Cl
HETATM   19  C   UNL     1      30.193  45.162  56.283  1.00  0.00     0.024 A 
HETATM   20  C   UNL     1      29.113  45.450  55.453  1.00  0.00     0.003 A 
HETATM   21  C   UNL     1      28.696  44.515  54.501  1.00  0.00     0.014 A 
ENDBRANCH  10  15
ENDBRANCH   8   9
ENDBRANCH   4   8
BRANCH   1  22
HETATM   22  C   UNL     1      24.856  47.242  50.317  1.00  0.00     0.222 C 
HETATM   23  N   UNL     1      24.835  47.884  49.105  1.00  0.00    -0.357 N 
HETATM   24  H   UNL     1      24.533  47.393  48.272  1.00  0.00     0.162 HD
HETATM   25  O   UNL     1      25.140  47.788  51.377  1.00  0.00    -0.273 OA
BRANCH  23  26
HETATM   26  C   UNL     1      25.117  49.311  48.978  1.00  0.00     0.076 C 
HETATM   27  C   UNL     1      24.153  49.947  47.980  1.00  0.00     0.032 C 
HETATM   28  C   UNL     1      26.564  49.528  48.550  1.00  0.00     0.032 C 
ENDBRANCH  23  26
ENDBRANCH   1  22
TORSDOF 5
ENDMDL
MODEL 2
REMARK VINA RESULT:      -8.4      2.859      4.936
REMARK  5 active torsions:
REMARK  status: ('A' for Active; 'I' for Inactive)
REMARK    1  A    between atoms: C_2  and  N_3 
REMARK       I    between atoms: N_3  and  C_4 
REMARK    2  A    between atoms: C_4  and  C_5 
REMARK    3  A    between atoms: N_8  and  C_10 
REMARK    4  A    between atoms: C_10  and  C_11 
REMARK    5  A    between atoms: C_12  and  C_13 
ROOT
HETATM    1  C   UNL     1      25.475  44.397  49.228  1.00  0.00     0.081 C 
HETATM    2  C   UNL     1      26.736  45.051  49.792  1.00  0.00     0.042 C 
HETATM    3  C   UNL     1      26.906  44.770  51.282  1.00  0.00     0.236 C 
HETATM    4  N   UNL     1      25.692  45.251  52.041  1.00  0.00    -0.067 N 
HETATM    5  H   UNL     1      25.632  46.264  51.895  1.00  0.00     0.280 HD
HETATM    6  C   UNL     1      24.408  44.625  51.547  1.00  0.00     0.236 C 
HETATM    7  C   UNL     1      24.250  44.820  50.044  1.00  0.00     0.042 C 
ENDROOT
BRANCH   4   8
HETATM    8  C   UNL     1      25.822  45.034  53.545  1.00  0.00     0.277 C 
BRANCH   8   9
HETATM    9  C   UNL     1      26.516  46.132  54.266  1.00  0.00     0.016 A 
HETATM   10  C   UNL     1      27.810  46.137  54.888  1.00  0.00     0.096 A 
HETATM   11  N   UNL     1      28.074  47.346  55.401  1.00  0.00    -0.174 NA
HETATM   12  N   UNL     1      27.031  48.112  55.078  1.00  0.00    -0.288 N 
HETATM   13  H   UNL     1      27.053  49.094  55.345  1.00  0.00     0.188 HD
HETATM   14  C   UNL     1      26.065  47.434  54.401  1.00  0.00     0.120 A 
BRANCH  10  15
HETATM   15  C   UNL     1      28.818  45.075  54.994  1.00  0.00    -0.003 A 
HETATM   16  C   UNL     1      29.758  45.044  56.029  1.00  0.00     0.037 A 
HETATM   17  C   UNL     1      30.694  44.009  56.101  1.00  0.00     0.035 A 
HETATM   18 CL   UNL     1      31.816  43.987  57.404  1.00  0.00    -0.084 Cl
HETATM   19  C   UNL     1      30.723  43.004  55.139  1.00  0.00     0.024 A 
HETATM   20  C   UNL     1      29.808  43.037  54.090  1.00  0.00     0.003 A 
HETATM   21  C   UNL     1      28.863  44.064  54.020  1.00  0.00     0.014 A 
ENDBRANCH  10  15
ENDBRANCH   8   9
ENDBRANCH   4   8
BRANCH   1  22
HETATM   22  C   UNL     1      25.663  42.886  49.223  1.00  0.00     0.222 C 
HETATM   23  N   UNL     1      26.875  42.467  48.732  1.00  0.00    -0.357 N 
HETATM   24  H   UNL     1      27.545  43.142  48.384  1.00  0.00     0.162 HD
HETATM   25  O   UNL     1      24.833  42.138  49.726  1.00  0.00    -0.273 OA
BRANCH  23  26
HETATM   26  C   UNL     1      27.301  41.073  48.804  1.00  0.00     0.076 C 
HETATM   27  C   UNL     1      28.004  40.810  50.134  1.00  0.00     0.032 C 
HETATM   28  C   UNL     1      28.214  40.737  47.631  1.00  0.00     0.032 C 
ENDBRANCH  23  26
ENDBRANCH   1  22
TORSDOF 5
ENDMDL
MODEL 3
REMARK VINA RESULT:      -8.3      3.304      5.967
REMARK  5 active torsions:
REMARK  status: ('A' for Active; 'I' for Inactive)
REMARK    1  A    between atoms: C_2  and  N_3 
REMARK       I    between atoms: N_3  and  C_4 
REMARK    2  A    between atoms: C_4  and  C_5 
REMARK    3  A    between atoms: N_8  and  C_10 
REMARK    4  A    between atoms: C_10  and  C_11 
REMARK    5  A    between atoms: C_12  and  C_13 
ROOT
HETATM    1  C   UNL     1      26.165  40.951  49.258  1.00  0.00     0.081 C 
HETATM    2  C   UNL     1      25.912  42.439  49.016  1.00  0.00     0.042 C 
HETATM    3  C   UNL     1      26.921  43.316  49.751  1.00  0.00     0.236 C 
HETATM    4  N   UNL     1      26.881  43.021  51.232  1.00  0.00    -0.067 N 
HETATM    5  H   UNL     1      25.937  43.251  51.556  1.00  0.00     0.280 HD
HETATM    6  C   UNL     1      27.148  41.566  51.544  1.00  0.00     0.236 C 
HETATM    7  C   UNL     1      26.206  40.659  50.761  1.00  0.00     0.042 C 
ENDROOT
BRANCH   4   8
HETATM    8  C   UNL     1      27.842  43.898  52.026  1.00  0.00     0.277 C 
BRANCH   8   9
HETATM    9  C   UNL     1      27.179  44.859  52.946  1.00  0.00     0.016 A 
HETATM   10  C   UNL     1      27.585  45.298  54.251  1.00  0.00     0.096 A 
HETATM   11  N   UNL     1      26.718  46.202  54.727  1.00  0.00    -0.174 NA
HETATM   12  N   UNL     1      25.822  46.390  53.758  1.00  0.00    -0.288 N 
HETATM   13  H   UNL     1      25.087  47.078  53.908  1.00  0.00     0.188 HD
HETATM   14  C   UNL     1      26.047  45.606  52.669  1.00  0.00     0.120 A 
BRANCH  10  15
HETATM   15  C   UNL     1      28.761  44.938  55.053  1.00  0.00    -0.003 A 
HETATM   16  C   UNL     1      29.176  45.702  56.147  1.00  0.00     0.037 A 
HETATM   17  C   UNL     1      30.294  45.318  56.892  1.00  0.00     0.035 A 
HETATM   18 CL   UNL     1      30.759  46.268  58.249  1.00  0.00    -0.084 Cl
HETATM   19  C   UNL     1      31.024  44.184  56.551  1.00  0.00     0.024 A 
HETATM   20  C   UNL     1      30.634  43.426  55.450  1.00  0.00     0.003 A 
HETATM   21  C   UNL     1      29.511  43.801  54.708  1.00  0.00     0.014 A 
ENDBRANCH  10  15
ENDBRANCH   8   9
ENDBRANCH   4   8
BRANCH   1  22
HETATM   22  C   UNL     1      27.462  40.553  48.565  1.00  0.00     0.222 C 
HETATM   23  N   UNL     1      28.006  39.376  49.014  1.00  0.00    -0.357 N 
HETATM   24  H   UNL     1      27.564  38.864  49.767  1.00  0.00     0.162 HD
HETATM   25  O   UNL     1      27.899  41.190  47.613  1.00  0.00    -0.273 OA
BRANCH  23  26
HETATM   26  C   UNL     1      29.151  38.751  48.359  1.00  0.00     0.076 C 
HETATM   27  C   UNL     1      28.670  37.719  47.341  1.00  0.00     0.032 C 
HETATM   28  C   UNL     1      30.068  38.109  49.393  1.00  0.00     0.032 C 
ENDBRANCH  23  26
ENDBRANCH   1  22
TORSDOF 5
ENDMDL
MODEL 4
REMARK VINA RESULT:      -8.1      1.565      2.135
REMARK  5 active torsions:
REMARK  status: ('A' for Active; 'I' for Inactive)
REMARK    1  A    between atoms: C_2  and  N_3 
REMARK       I    between atoms: N_3  and  C_4 
REMARK    2  A    between atoms: C_4  and  C_5 
REMARK    3  A    between atoms: N_8  and  C_10 
REMARK    4  A    between atoms: C_10  and  C_11 
REMARK    5  A    between atoms: C_12  and  C_13 
ROOT
HETATM    1  C   UNL     1      25.597  46.932  50.021  1.00  0.00     0.081 C 
HETATM    2  C   UNL     1      26.464  45.751  49.587  1.00  0.00     0.042 C 
HETATM    3  C   UNL     1      26.235  44.523  50.463  1.00  0.00     0.236 C 
HETATM    4  N   UNL     1      26.511  44.860  51.909  1.00  0.00    -0.067 N 
HETATM    5  H   UNL     1      27.496  45.136  51.968  1.00  0.00     0.280 HD
HETATM    6  C   UNL     1      25.667  46.010  52.412  1.00  0.00     0.236 C 
HETATM    7  C   UNL     1      25.813  47.228  51.509  1.00  0.00     0.042 C 
ENDROOT
BRANCH   4   8
HETATM    8  C   UNL     1      26.337  43.658  52.831  1.00  0.00     0.277 C 
BRANCH   8   9
HETATM    9  C   UNL     1      27.411  42.637  52.716  1.00  0.00     0.016 A 
HETATM   10  C   UNL     1      28.672  42.562  53.398  1.00  0.00     0.096 A 
HETATM   11  N   UNL     1      29.334  41.456  53.030  1.00  0.00    -0.174 NA
HETATM   12  N   UNL     1      28.521  40.809  52.195  1.00  0.00    -0.288 N 
HETATM   13  H   UNL     1      28.825  39.910  51.826  1.00  0.00     0.188 HD
HETATM   14  C   UNL     1      27.356  41.474  51.966  1.00  0.00     0.120 A 
BRANCH  10  15
HETATM   15  C   UNL     1      29.267  43.455  54.399  1.00  0.00    -0.003 A 
HETATM   16  C   UNL     1      30.311  43.046  55.234  1.00  0.00     0.037 A 
HETATM   17  C   UNL     1      30.858  43.932  56.166  1.00  0.00     0.035 A 
HETATM   18 CL   UNL     1      32.161  43.402  57.157  1.00  0.00    -0.084 Cl
HETATM   19  C   UNL     1      30.365  45.227  56.295  1.00  0.00     0.024 A 
HETATM   20  C   UNL     1      29.310  45.640  55.486  1.00  0.00     0.003 A 
HETATM   21  C   UNL     1      28.766  44.760  54.545  1.00  0.00     0.014 A 
ENDBRANCH  10  15
ENDBRANCH   8   9
ENDBRANCH   4   8
BRANCH   1  22
HETATM   22  C   UNL     1      24.140  46.615  49.709  1.00  0.00     0.222 C 
HETATM   23  N   UNL     1      23.365  47.716  49.445  1.00  0.00    -0.357 N 
HETATM   24  H   UNL     1      23.764  48.646  49.495  1.00  0.00     0.162 HD
HETATM   25  O   UNL     1      23.748  45.459  49.600  1.00  0.00    -0.273 OA
BRANCH  23  26
HETATM   26  C   UNL     1      21.991  47.600  48.964  1.00  0.00     0.076 C 
HETATM   27  C   UNL     1      21.987  47.186  47.494  1.00  0.00     0.032 C 
HETATM   28  C   UNL     1      21.249  48.916  49.160  1.00  0.00     0.032 C 
ENDBRANCH  23  26
ENDBRANCH   1  22
TORSDOF 5
ENDMDL
MODEL 5
REMARK VINA RESULT:      -7.9      4.501      7.592
REMARK  5 active torsions:
REMARK  status: ('A' for Active; 'I' for Inactive)
REMARK    1  A    between atoms: C_2  and  N_3 
REMARK       I    between atoms: N_3  and  C_4 
REMARK    2  A    between atoms: C_4  and  C_5 
REMARK    3  A    between atoms: N_8  and  C_10 
REMARK    4  A    between atoms: C_10  and  C_11 
REMARK    5  A    between atoms: C_12  and  C_13 
ROOT
HETATM    1  C   UNL     1      19.867  50.802  48.165  1.00  0.00     0.081 C 
HETATM    2  C   UNL     1      20.576  49.928  47.131  1.00  0.00     0.042 C 
HETATM    3  C   UNL     1      21.506  48.911  47.785  1.00  0.00     0.236 C 
HETATM    4  N   UNL     1      22.525  49.621  48.645  1.00  0.00    -0.067 N 
HETATM    5  H   UNL     1      23.072  50.224  48.022  1.00  0.00     0.280 HD
HETATM    6  C   UNL     1      21.890  50.489  49.708  1.00  0.00     0.236 C 
HETATM    7  C   UNL     1      20.893  51.462  49.091  1.00  0.00     0.042 C 
ENDROOT
BRANCH   4   8
HETATM    8  C   UNL     1      23.512  48.656  49.295  1.00  0.00     0.277 C 
BRANCH   8   9
HETATM    9  C   UNL     1      24.939  48.954  49.011  1.00  0.00     0.016 A 
HETATM   10  C   UNL     1      26.119  48.276  49.468  1.00  0.00     0.096 A 
HETATM   11  N   UNL     1      27.214  48.847  48.948  1.00  0.00    -0.174 NA
HETATM   12  N   UNL     1      26.771  49.813  48.142  1.00  0.00    -0.288 N 
HETATM   13  H   UNL     1      27.454  50.350  47.612  1.00  0.00     0.188 HD
HETATM   14  C   UNL     1      25.415  49.925  48.146  1.00  0.00     0.120 A 
BRANCH  10  15
HETATM   15  C   UNL     1      26.265  47.103  50.338  1.00  0.00    -0.003 A 
HETATM   16  C   UNL     1      26.012  47.160  51.712  1.00  0.00     0.037 A 
HETATM   17  C   UNL     1      26.151  46.017  52.503  1.00  0.00     0.035 A 
HETATM   18 CL   UNL     1      25.804  46.119  54.185  1.00  0.00    -0.084 Cl
HETATM   19  C   UNL     1      26.561  44.810  51.947  1.00  0.00     0.024 A 
HETATM   20  C   UNL     1      26.838  44.744  50.585  1.00  0.00     0.003 A 
HETATM   21  C   UNL     1      26.690  45.882  49.787  1.00  0.00     0.014 A 
ENDBRANCH  10  15
ENDBRANCH   8   9
ENDBRANCH   4   8
BRANCH   1  22
HETATM   22  C   UNL     1      18.872  49.945  48.936  1.00  0.00     0.222 C 
HETATM   23  N   UNL     1      17.982  49.261  48.146  1.00  0.00    -0.357 N 
HETATM   24  H   UNL     1      18.003  49.372  47.139  1.00  0.00     0.162 HD
HETATM   25  O   UNL     1      18.954  49.808  50.151  1.00  0.00    -0.273 OA
BRANCH  23  26
HETATM   26  C   UNL     1      17.066  48.264  48.693  1.00  0.00     0.076 C 
HETATM   27  C   UNL     1      17.609  46.860  48.435  1.00  0.00     0.032 C 
HETATM   28  C   UNL     1      15.679  48.430  48.085  1.00  0.00     0.032 C 
ENDBRANCH  23  26
ENDBRANCH   1  22
TORSDOF 5
ENDMDL
MODEL 6
REMARK VINA RESULT:      -7.9     12.222     14.060
REMARK  5 active torsions:
REMARK  status: ('A' for Active; 'I' for Inactive)
REMARK    1  A    between atoms: C_2  and  N_3 
REMARK       I    between atoms: N_3  and  C_4 
REMARK    2  A    between atoms: C_4  and  C_5 
REMARK    3  A    between atoms: N_8  and  C_10 
REMARK    4  A    between atoms: C_10  and  C_11 
REMARK    5  A    between atoms: C_12  and  C_13 
ROOT
HETATM    1  C   UNL     1      28.655  52.700  38.742  1.00  0.00     0.081 C 
HETATM    2  C   UNL     1      29.632  52.129  37.715  1.00  0.00     0.042 C 
HETATM    3  C   UNL     1      30.716  51.279  38.370  1.00  0.00     0.236 C 
HETATM    4  N   UNL     1      31.466  52.098  39.394  1.00  0.00    -0.067 N 
HETATM    5  H   UNL     1      31.906  52.875  38.891  1.00  0.00     0.280 HD
HETATM    6  C   UNL     1      30.560  52.676  40.457  1.00  0.00     0.236 C 
HETATM    7  C   UNL     1      29.417  53.465  39.829  1.00  0.00     0.042 C 
ENDROOT
BRANCH   4   8
HETATM    8  C   UNL     1      32.593  51.312  40.056  1.00  0.00     0.277 C 
BRANCH   8   9
HETATM    9  C   UNL     1      32.314  50.901  41.456  1.00  0.00     0.016 A 
HETATM   10  C   UNL     1      31.544  49.791  41.942  1.00  0.00     0.096 A 
HETATM   11  N   UNL     1      31.571  49.758  43.282  1.00  0.00    -0.174 NA
HETATM   12  N   UNL     1      32.370  50.759  43.653  1.00  0.00    -0.288 N 
HETATM   13  H   UNL     1      32.557  50.884  44.645  1.00  0.00     0.188 HD
HETATM   14  C   UNL     1      32.839  51.481  42.598  1.00  0.00     0.120 A 
BRANCH  10  15
HETATM   15  C   UNL     1      30.814  48.747  41.213  1.00  0.00    -0.003 A 
HETATM   16  C   UNL     1      29.490  48.417  41.514  1.00  0.00     0.037 A 
HETATM   17  C   UNL     1      28.827  47.425  40.786  1.00  0.00     0.035 A 
HETATM   18 CL   UNL     1      27.188  47.065  41.167  1.00  0.00    -0.084 Cl
HETATM   19  C   UNL     1      29.474  46.734  39.767  1.00  0.00     0.024 A 
HETATM   20  C   UNL     1      30.801  47.037  39.472  1.00  0.00     0.003 A 
HETATM   21  C   UNL     1      31.464  48.036  40.189  1.00  0.00     0.014 A 
ENDBRANCH  10  15
ENDBRANCH   8   9
ENDBRANCH   4   8
BRANCH   1  22
HETATM   22  C   UNL     1      27.827  51.561  39.322  1.00  0.00     0.222 C 
HETATM   23  N   UNL     1      27.125  50.838  38.389  1.00  0.00    -0.357 N 
HETATM   24  H   UNL     1      27.161  51.098  37.411  1.00  0.00     0.162 HD
HETATM   25  O   UNL     1      27.890  51.266  40.510  1.00  0.00    -0.273 OA
BRANCH  23  26
HETATM   26  C   UNL     1      26.412  49.612  38.734  1.00  0.00     0.076 C 
HETATM   27  C   UNL     1      26.827  48.485  37.790  1.00  0.00     0.032 C 
HETATM   28  C   UNL     1      24.907  49.842  38.679  1.00  0.00     0.032 C 
ENDBRANCH  23  26
ENDBRANCH   1  22
TORSDOF 5
ENDMDL
MODEL 7
REMARK VINA RESULT:      -7.9      2.789      4.801
REMARK  5 active torsions:
REMARK  status: ('A' for Active; 'I' for Inactive)
REMARK    1  A    between atoms: C_2  and  N_3 
REMARK       I    between atoms: N_3  and  C_4 
REMARK    2  A    between atoms: C_4  and  C_5 
REMARK    3  A    between atoms: N_8  and  C_10 
REMARK    4  A    between atoms: C_10  and  C_11 
REMARK    5  A    between atoms: C_12  and  C_13 
ROOT
HETATM    1  C   UNL     1      22.859  49.777  48.033  1.00  0.00     0.081 C 
HETATM    2  C   UNL     1      22.349  48.348  47.853  1.00  0.00     0.042 C 
HETATM    3  C   UNL     1      22.765  47.444  49.009  1.00  0.00     0.236 C 
HETATM    4  N   UNL     1      24.269  47.441  49.148  1.00  0.00    -0.067 N 
HETATM    5  H   UNL     1      24.648  47.063  48.273  1.00  0.00     0.280 HD
HETATM    6  C   UNL     1      24.840  48.826  49.352  1.00  0.00     0.236 C 
HETATM    7  C   UNL     1      24.375  49.774  48.254  1.00  0.00     0.042 C 
ENDROOT
BRANCH   4   8
HETATM    8  C   UNL     1      24.749  46.520  50.265  1.00  0.00     0.277 C 
BRANCH   8   9
HETATM    9  C   UNL     1      25.112  45.150  49.818  1.00  0.00     0.016 A 
HETATM   10  C   UNL     1      26.001  44.201  50.425  1.00  0.00     0.096 A 
HETATM   11  N   UNL     1      26.021  43.064  49.716  1.00  0.00    -0.174 NA
HETATM   12  N   UNL     1      25.142  43.238  48.728  1.00  0.00    -0.288 N 
HETATM   13  H   UNL     1      24.976  42.464  48.089  1.00  0.00     0.188 HD
HETATM   14  C   UNL     1      24.572  44.473  48.738  1.00  0.00     0.120 A 
BRANCH  10  15
HETATM   15  C   UNL     1      26.803  44.297  51.651  1.00  0.00    -0.003 A 
HETATM   16  C   UNL     1      28.025  43.633  51.793  1.00  0.00     0.037 A 
HETATM   17  C   UNL     1      28.764  43.761  52.972  1.00  0.00     0.035 A 
HETATM   18 CL   UNL     1      30.277  42.952  53.101  1.00  0.00    -0.084 Cl
HETATM   19  C   UNL     1      28.292  44.531  54.031  1.00  0.00     0.024 A 
HETATM   20  C   UNL     1      27.066  45.179  53.911  1.00  0.00     0.003 A 
HETATM   21  C   UNL     1      26.328  45.063  52.729  1.00  0.00     0.014 A 
ENDBRANCH  10  15
ENDBRANCH   8   9
ENDBRANCH   4   8
BRANCH   1  22
HETATM   22  C   UNL     1      22.116  50.423  49.195  1.00  0.00     0.222 C 
HETATM   23  N   UNL     1      20.752  50.272  49.149  1.00  0.00    -0.357 N 
HETATM   24  H   UNL     1      20.318  49.791  48.371  1.00  0.00     0.162 HD
HETATM   25  O   UNL     1      22.717  50.930  50.135  1.00  0.00    -0.273 OA
BRANCH  23  26
HETATM   26  C   UNL     1      19.889  50.676  50.255  1.00  0.00     0.076 C 
HETATM   27  C   UNL     1      19.028  49.497  50.701  1.00  0.00     0.032 C 
HETATM   28  C   UNL     1      19.021  51.859  49.844  1.00  0.00     0.032 C 
ENDBRANCH  23  26
ENDBRANCH   1  22
TORSDOF 5
ENDMDL
MODEL 8
REMARK VINA RESULT:      -7.8      2.272      3.984
REMARK  5 active torsions:
REMARK  status: ('A' for Active; 'I' for Inactive)
REMARK    1  A    between atoms: C_2  and  N_3 
REMARK       I    between atoms: N_3  and  C_4 
REMARK    2  A    between atoms: C_4  and  C_5 
REMARK    3  A    between atoms: N_8  and  C_10 
REMARK    4  A    between atoms: C_10  and  C_11 
REMARK    5  A    between atoms: C_12  and  C_13 
ROOT
HETATM    1  C   UNL     1      27.147  42.990  50.522  1.00  0.00     0.081 C 
HETATM    2  C   UNL     1      25.965  42.381  51.274  1.00  0.00     0.042 C 
HETATM    3  C   UNL     1      25.593  43.197  52.509  1.00  0.00     0.236 C 
HETATM    4  N   UNL     1      26.785  43.314  53.429  1.00  0.00    -0.067 N 
HETATM    5  H   UNL     1      27.033  42.362  53.718  1.00  0.00     0.280 HD
HETATM    6  C   UNL     1      27.988  43.931  52.752  1.00  0.00     0.236 C 
HETATM    7  C   UNL     1      28.334  43.184  51.470  1.00  0.00     0.042 C 
ENDROOT
BRANCH   4   8
HETATM    8  C   UNL     1      26.463  44.087  54.704  1.00  0.00     0.277 C 
BRANCH   8   9
HETATM    9  C   UNL     1      26.813  45.530  54.651  1.00  0.00     0.016 A 
HETATM   10  C   UNL     1      27.870  46.235  55.318  1.00  0.00     0.096 A 
HETATM   11  N   UNL     1      27.858  47.529  54.969  1.00  0.00    -0.174 NA
HETATM   12  N   UNL     1      26.879  47.653  54.072  1.00  0.00    -0.288 N 
HETATM   13  H   UNL     1      26.727  48.565  53.646  1.00  0.00     0.188 HD
HETATM   14  C   UNL     1      26.216  46.486  53.847  1.00  0.00     0.120 A 
BRANCH  10  15
HETATM   15  C   UNL     1      28.907  45.749  56.236  1.00  0.00    -0.003 A 
HETATM   16  C   UNL     1      29.870  44.814  55.842  1.00  0.00     0.037 A 
HETATM   17  C   UNL     1      30.848  44.386  56.743  1.00  0.00     0.035 A 
HETATM   18 CL   UNL     1      32.033  43.257  56.214  1.00  0.00    -0.084 Cl
HETATM   19  C   UNL     1      30.873  44.863  58.049  1.00  0.00     0.024 A 
HETATM   20  C   UNL     1      29.906  45.777  58.461  1.00  0.00     0.003 A 
HETATM   21  C   UNL     1      28.932  46.216  57.561  1.00  0.00     0.014 A 
ENDBRANCH  10  15
ENDBRANCH   8   9
ENDBRANCH   4   8
BRANCH   1  22
HETATM   22  C   UNL     1      26.705  44.301  49.886  1.00  0.00     0.222 C 
HETATM   23  N   UNL     1      25.347  44.424  49.728  1.00  0.00    -0.357 N 
HETATM   24  H   UNL     1      24.731  43.667  49.997  1.00  0.00     0.162 HD
HETATM   25  O   UNL     1      27.506  45.198  49.650  1.00  0.00    -0.273 OA
BRANCH  23  26
HETATM   26  C   UNL     1      24.727  45.672  49.293  1.00  0.00     0.076 C 
HETATM   27  C   UNL     1      24.556  46.612  50.484  1.00  0.00     0.032 C 
HETATM   28  C   UNL     1      23.386  45.392  48.625  1.00  0.00     0.032 C 
ENDBRANCH  23  26
ENDBRANCH   1  22
TORSDOF 5
ENDMDL
MODEL 9
REMARK VINA RESULT:      -7.8      3.895      8.403
REMARK  5 active torsions:
REMARK  status: ('A' for Active; 'I' for Inactive)
REMARK    1  A    between atoms: C_2  and  N_3 
REMARK       I    between atoms: N_3  and  C_4 
REMARK    2  A    between atoms: C_4  and  C_5 
REMARK    3  A    between atoms: N_8  and  C_10 
REMARK    4  A    between atoms: C_10  and  C_11 
REMARK    5  A    between atoms: C_12  and  C_13 
ROOT
HETATM    1  C   UNL     1      26.238  45.525  54.588  1.00  0.00     0.081 C 
HETATM    2  C   UNL     1      25.479  44.457  53.801  1.00  0.00     0.042 C 
HETATM    3  C   UNL     1      25.644  44.633  52.294  1.00  0.00     0.236 C 
HETATM    4  N   UNL     1      25.174  46.008  51.881  1.00  0.00    -0.067 N 
HETATM    5  H   UNL     1      24.179  46.067  52.119  1.00  0.00     0.280 HD
HETATM    6  C   UNL     1      25.902  47.117  52.607  1.00  0.00     0.236 C 
HETATM    7  C   UNL     1      25.824  46.923  54.116  1.00  0.00     0.042 C 
ENDROOT
BRANCH   4   8
HETATM    8  C   UNL     1      25.277  46.230  50.375  1.00  0.00     0.277 C 
BRANCH   8   9
HETATM    9  C   UNL     1      24.038  45.903  49.622  1.00  0.00     0.016 A 
HETATM   10  C   UNL     1      23.091  46.786  49.002  1.00  0.00     0.096 A 
HETATM   11  N   UNL     1      22.129  46.080  48.392  1.00  0.00    -0.174 NA
HETATM   12  N   UNL     1      22.463  44.799  48.551  1.00  0.00    -0.288 N 
HETATM   13  H   UNL     1      21.874  44.089  48.122  1.00  0.00     0.188 HD
HETATM   14  C   UNL     1      23.597  44.635  49.286  1.00  0.00     0.120 A 
BRANCH  10  15
HETATM   15  C   UNL     1      23.063  48.251  48.928  1.00  0.00    -0.003 A 
HETATM   16  C   UNL     1      21.905  48.987  49.194  1.00  0.00     0.037 A 
HETATM   17  C   UNL     1      21.924  50.383  49.125  1.00  0.00     0.035 A 
HETATM   18 CL   UNL     1      20.487  51.256  49.487  1.00  0.00    -0.084 Cl
HETATM   19  C   UNL     1      23.084  51.064  48.771  1.00  0.00     0.024 A 
HETATM   20  C   UNL     1      24.238  50.342  48.480  1.00  0.00     0.003 A 
HETATM   21  C   UNL     1      24.227  48.947  48.559  1.00  0.00     0.014 A 
ENDBRANCH  10  15
ENDBRANCH   8   9
ENDBRANCH   4   8
BRANCH   1  22
HETATM   22  C   UNL     1      27.734  45.289  54.424  1.00  0.00     0.222 C 
HETATM   23  N   UNL     1      28.077  43.984  54.172  1.00  0.00    -0.357 N 
HETATM   24  H   UNL     1      27.363  43.266  54.137  1.00  0.00     0.162 HD
HETATM   25  O   UNL     1      28.530  46.220  54.411  1.00  0.00    -0.273 OA
BRANCH  23  26
HETATM   26  C   UNL     1      29.439  43.593  53.822  1.00  0.00     0.076 C 
HETATM   27  C   UNL     1      29.411  42.450  52.810  1.00  0.00     0.032 C 
HETATM   28  C   UNL     1      30.213  43.194  55.073  1.00  0.00     0.032 C 
ENDBRANCH  23  26
ENDBRANCH   1  22
TORSDOF 5
ENDMDL
MODEL 10
REMARK VINA RESULT:      -7.7     12.455     13.764
REMARK  5 active torsions:
REMARK  status: ('A' for Active; 'I' for Inactive)
REMARK    1  A    between atoms: C_2  and  N_3 
REMARK       I    between atoms: N_3  and  C_4 
REMARK    2  A    between atoms: C_4  and  C_5 
REMARK    3  A    between atoms: N_8  and  C_10 
REMARK    4  A    between atoms: C_10  and  C_11 
REMARK    5  A    between atoms: C_12  and  C_13 
ROOT
HETATM    1  C   UNL     1      28.640  52.996  39.292  1.00  0.00     0.081 C 
HETATM    2  C   UNL     1      29.194  52.488  37.962  1.00  0.00     0.042 C 
HETATM    3  C   UNL     1      30.248  51.403  38.160  1.00  0.00     0.236 C 
HETATM    4  N   UNL     1      31.374  51.927  39.020  1.00  0.00    -0.067 N 
HETATM    5  H   UNL     1      31.793  52.714  38.515  1.00  0.00     0.280 HD
HETATM    6  C   UNL     1      30.897  52.427  40.365  1.00  0.00     0.236 C 
HETATM    7  C   UNL     1      29.785  53.455  40.201  1.00  0.00     0.042 C 
ENDROOT
BRANCH   4   8
HETATM    8  C   UNL     1      32.481  50.897  39.221  1.00  0.00     0.277 C 
BRANCH   8   9
HETATM    9  C   UNL     1      32.128  49.789  40.146  1.00  0.00     0.016 A 
HETATM   10  C   UNL     1      32.431  49.637  41.541  1.00  0.00     0.096 A 
HETATM   11  N   UNL     1      31.895  48.502  42.011  1.00  0.00    -0.174 NA
HETATM   12  N   UNL     1      31.223  47.969  40.991  1.00  0.00    -0.288 N 
HETATM   13  H   UNL     1      30.704  47.109  41.152  1.00  0.00     0.188 HD
HETATM   14  C   UNL     1      31.333  48.696  39.846  1.00  0.00     0.120 A 
BRANCH  10  15
HETATM   15  C   UNL     1      33.166  50.518  42.457  1.00  0.00    -0.003 A 
HETATM   16  C   UNL     1      34.520  50.814  42.275  1.00  0.00     0.037 A 
HETATM   17  C   UNL     1      35.181  51.668  43.163  1.00  0.00     0.035 A 
HETATM   18 CL   UNL     1      36.840  52.032  42.892  1.00  0.00    -0.084 Cl
HETATM   19  C   UNL     1      34.514  52.221  44.251  1.00  0.00     0.024 A 
HETATM   20  C   UNL     1      33.171  51.915  44.457  1.00  0.00     0.003 A 
HETATM   21  C   UNL     1      32.503  51.071  43.565  1.00  0.00     0.014 A 
ENDBRANCH  10  15
ENDBRANCH   8   9
ENDBRANCH   4   8
BRANCH   1  22
HETATM   22  C   UNL     1      27.810  51.893  39.935  1.00  0.00     0.222 C 
HETATM   23  N   UNL     1      27.211  51.041  39.041  1.00  0.00    -0.357 N 
HETATM   24  H   UNL     1      27.314  51.191  38.044  1.00  0.00     0.162 HD
HETATM   25  O   UNL     1      27.789  51.735  41.150  1.00  0.00    -0.273 OA
BRANCH  23  26
HETATM   26  C   UNL     1      26.517  49.830  39.469  1.00  0.00     0.076 C 
HETATM   27  C   UNL     1      27.398  48.608  39.219  1.00  0.00     0.032 C 
HETATM   28  C   UNL     1      25.185  49.698  38.741  1.00  0.00     0.032 C 
ENDBRANCH  23  26
ENDBRANCH   1  22
TORSDOF 5
ENDMDL
