MODEL 1
REMARK VINA RESULT:     -10.2      0.000      0.000
REMARK  3 active torsions:
REMARK  status: ('A' for Active; 'I' for Inactive)
REMARK    1  A    between atoms: N_4  and  C_5 
REMARK    2  A    between atoms: C_15  and  C_16 
REMARK       I    between atoms: C_16  and  N_17 
REMARK    3  A    between atoms: N_17  and  C_18 
ROOT
HETATM    1  C   UNL     1      23.283  43.535  49.477  1.00  0.00     0.073 C 
HETATM    2  C   UNL     1      23.731  44.903  49.834  1.00  0.00     0.069 A 
HETATM    3  N   UNL     1      23.468  45.937  49.023  1.00  0.00    -0.170 NA
HETATM    4  N   UNL     1      23.971  47.039  49.661  1.00  0.00    -0.216 N 
HETATM    5  C   UNL     1      24.668  46.654  50.796  1.00  0.00     0.145 A 
HETATM    6  C   UNL     1      24.486  45.299  50.952  1.00  0.00     0.087 A 
HETATM    7  N   UNL     1      25.458  47.380  51.624  1.00  0.00    -0.349 N 
HETATM    8  C   UNL     1      26.113  46.717  52.649  1.00  0.00     0.111 A 
HETATM    9  C   UNL     1      25.981  45.400  52.929  1.00  0.00     0.098 A 
HETATM   10  C   UNL     1      25.074  44.574  52.058  1.00  0.00     0.205 A 
HETATM   11  O   UNL     1      24.871  43.382  52.272  1.00  0.00    -0.286 OA
HETATM   12  H   UNL     1      25.807  48.311  51.395  1.00  0.00     0.167 HD
ENDROOT
BRANCH   9  13
HETATM   13  C   UNL     1      26.778  44.838  54.065  1.00  0.00     0.261 C 
HETATM   14  N   UNL     1      28.114  45.184  54.057  1.00  0.00    -0.323 N 
HETATM   15  H   UNL     1      28.437  45.753  53.272  1.00  0.00     0.169 HD
HETATM   16  O   UNL     1      26.231  44.126  54.902  1.00  0.00    -0.267 OA
BRANCH  14  17
HETATM   17  C   UNL     1      29.098  44.858  55.013  1.00  0.00     0.037 A 
HETATM   18  C   UNL     1      29.415  45.653  56.114  1.00  0.00     0.071 A 
HETATM   19  C   UNL     1      30.420  45.250  56.991  1.00  0.00     0.118 A 
HETATM   20  F   UNL     1      30.727  46.023  58.040  1.00  0.00    -0.206 F 
HETATM   21  C   UNL     1      31.115  44.062  56.798  1.00  0.00     0.042 A 
HETATM   22  C   UNL     1      30.804  43.260  55.705  1.00  0.00     0.005 A 
HETATM   23  C   UNL     1      29.802  43.660  54.815  1.00  0.00     0.029 A 
ENDBRANCH  14  17
ENDBRANCH   9  13
BRANCH   4  24
HETATM   24  C   UNL     1      23.729  48.339  49.133  1.00  0.00     0.060 A 
HETATM   25  C   UNL     1      24.764  49.135  48.628  1.00  0.00     0.031 A 
HETATM   26  C   UNL     1      24.485  50.407  48.117  1.00  0.00     0.002 A 
HETATM   27  C   UNL     1      23.179  50.893  48.114  1.00  0.00     0.000 A 
HETATM   28  C   UNL     1      22.148  50.117  48.637  1.00  0.00     0.002 A 
HETATM   29  C   UNL     1      22.420  48.849  49.154  1.00  0.00     0.031 A 
ENDBRANCH   4  24
TORSDOF 3
ENDMDL
MODEL 2
REMARK VINA RESULT:     -10.0      3.750      8.913
REMARK  3 active torsions:
REMARK  status: ('A' for Active; 'I' for Inactive)
REMARK    1  A    between atoms: N_4  and  C_5 
REMARK    2  A    between atoms: C_15  and  C_16 
REMARK       I    between atoms: C_16  and  N_17 
REMARK    3  A    between atoms: N_17  and  C_18 
ROOT
HETATM    1  C   UNL     1      23.658  42.683  50.145  1.00  0.00     0.073 C 
HETATM    2  C   UNL     1      24.686  43.566  50.747  1.00  0.00     0.069 A 
HETATM    3  N   UNL     1      25.593  43.070  51.599  1.00  0.00    -0.170 NA
HETATM    4  N   UNL     1      26.405  44.124  51.924  1.00  0.00    -0.216 N 
HETATM    5  C   UNL     1      25.903  45.296  51.379  1.00  0.00     0.145 A 
HETATM    6  C   UNL     1      24.834  44.955  50.584  1.00  0.00     0.087 A 
HETATM    7  N   UNL     1      26.280  46.582  51.578  1.00  0.00    -0.349 N 
HETATM    8  C   UNL     1      25.540  47.580  50.965  1.00  0.00     0.111 A 
HETATM    9  C   UNL     1      24.498  47.371  50.129  1.00  0.00     0.098 A 
HETATM   10  C   UNL     1      24.084  45.951  49.848  1.00  0.00     0.205 A 
HETATM   11  O   UNL     1      23.174  45.678  49.071  1.00  0.00    -0.286 OA
HETATM   12  H   UNL     1      26.890  46.878  52.339  1.00  0.00     0.167 HD
ENDROOT
BRANCH   9  13
HETATM   13  C   UNL     1      23.795  48.566  49.565  1.00  0.00     0.261 C 
HETATM   14  N   UNL     1      22.418  48.470  49.552  1.00  0.00    -0.323 N 
HETATM   15  H   UNL     1      22.015  47.594  49.890  1.00  0.00     0.169 HD
HETATM   16  O   UNL     1      24.447  49.523  49.156  1.00  0.00    -0.267 OA
BRANCH  14  17
HETATM   17  C   UNL     1      21.487  49.445  49.138  1.00  0.00     0.037 A 
HETATM   18  C   UNL     1      20.861  50.347  49.998  1.00  0.00     0.071 A 
HETATM   19  C   UNL     1      19.939  51.260  49.490  1.00  0.00     0.118 A 
HETATM   20  F   UNL     1      19.334  52.117  50.324  1.00  0.00    -0.206 F 
HETATM   21  C   UNL     1      19.629  51.299  48.136  1.00  0.00     0.042 A 
HETATM   22  C   UNL     1      20.250  50.405  47.269  1.00  0.00     0.005 A 
HETATM   23  C   UNL     1      21.172  49.481  47.770  1.00  0.00     0.029 A 
ENDBRANCH  14  17
ENDBRANCH   9  13
BRANCH   4  24
HETATM   24  C   UNL     1      27.573  43.906  52.708  1.00  0.00     0.060 A 
HETATM   25  C   UNL     1      27.701  44.422  54.003  1.00  0.00     0.031 A 
HETATM   26  C   UNL     1      28.865  44.186  54.741  1.00  0.00     0.002 A 
HETATM   27  C   UNL     1      29.908  43.442  54.191  1.00  0.00     0.000 A 
HETATM   28  C   UNL     1      29.799  42.947  52.894  1.00  0.00     0.002 A 
HETATM   29  C   UNL     1      28.642  43.184  52.150  1.00  0.00     0.031 A 
ENDBRANCH   4  24
TORSDOF 3
ENDMDL
MODEL 3
REMARK VINA RESULT:      -9.9      4.028      9.029
REMARK  3 active torsions:
REMARK  status: ('A' for Active; 'I' for Inactive)
REMARK    1  A    between atoms: N_4  and  C_5 
REMARK    2  A    between atoms: C_15  and  C_16 
REMARK       I    between atoms: C_16  and  N_17 
REMARK    3  A    between atoms: N_17  and  C_18 
ROOT
HETATM    1  C   UNL     1      23.674  42.663  50.087  1.00  0.00     0.073 C 
HETATM    2  C   UNL     1      24.705  43.543  50.690  1.00  0.00     0.069 A 
HETATM    3  N   UNL     1      25.613  43.042  51.539  1.00  0.00    -0.170 NA
HETATM    4  N   UNL     1      26.427  44.093  51.866  1.00  0.00    -0.216 N 
HETATM    5  C   UNL     1      25.926  45.268  51.325  1.00  0.00     0.145 A 
HETATM    6  C   UNL     1      24.855  44.932  50.531  1.00  0.00     0.087 A 
HETATM    7  N   UNL     1      26.306  46.553  51.527  1.00  0.00    -0.349 N 
HETATM    8  C   UNL     1      25.567  47.555  50.919  1.00  0.00     0.111 A 
HETATM    9  C   UNL     1      24.522  47.349  50.084  1.00  0.00     0.098 A 
HETATM   10  C   UNL     1      24.105  45.932  49.800  1.00  0.00     0.205 A 
HETATM   11  O   UNL     1      23.193  45.662  49.023  1.00  0.00    -0.286 OA
HETATM   12  H   UNL     1      26.918  46.846  52.288  1.00  0.00     0.167 HD
ENDROOT
BRANCH   9  13
HETATM   13  C   UNL     1      23.820  48.548  49.525  1.00  0.00     0.261 C 
HETATM   14  N   UNL     1      22.446  48.438  49.478  1.00  0.00    -0.323 N 
HETATM   15  H   UNL     1      22.043  47.553  49.791  1.00  0.00     0.169 HD
HETATM   16  O   UNL     1      24.472  49.518  49.149  1.00  0.00    -0.267 OA
BRANCH  14  17
HETATM   17  C   UNL     1      21.514  49.411  49.060  1.00  0.00     0.037 A 
HETATM   18  C   UNL     1      20.997  49.497  47.767  1.00  0.00     0.071 A 
HETATM   19  C   UNL     1      20.095  50.510  47.450  1.00  0.00     0.118 A 
HETATM   20  F   UNL     1      19.609  50.592  46.204  1.00  0.00    -0.206 F 
HETATM   21  C   UNL     1      19.689  51.441  48.398  1.00  0.00     0.042 A 
HETATM   22  C   UNL     1      20.197  51.363  49.691  1.00  0.00     0.005 A 
HETATM   23  C   UNL     1      21.108  50.355  50.017  1.00  0.00     0.029 A 
ENDBRANCH  14  17
ENDBRANCH   9  13
BRANCH   4  24
HETATM   24  C   UNL     1      27.597  43.871  52.646  1.00  0.00     0.060 A 
HETATM   25  C   UNL     1      28.688  43.147  52.150  1.00  0.00     0.031 A 
HETATM   26  C   UNL     1      29.821  42.951  52.947  1.00  0.00     0.002 A 
HETATM   27  C   UNL     1      29.867  43.466  54.241  1.00  0.00     0.000 A 
HETATM   28  C   UNL     1      28.776  44.165  54.751  1.00  0.00     0.002 A 
HETATM   29  C   UNL     1      27.640  44.360  53.962  1.00  0.00     0.031 A 
ENDBRANCH   4  24
TORSDOF 3
ENDMDL
MODEL 4
REMARK VINA RESULT:      -9.4      2.559      3.967
REMARK  3 active torsions:
REMARK  status: ('A' for Active; 'I' for Inactive)
REMARK    1  A    between atoms: N_4  and  C_5 
REMARK    2  A    between atoms: C_15  and  C_16 
REMARK       I    between atoms: C_16  and  N_17 
REMARK    3  A    between atoms: N_17  and  C_18 
ROOT
HETATM    1  C   UNL     1      26.838  50.293  48.440  1.00  0.00     0.073 C 
HETATM    2  C   UNL     1      25.623  49.534  48.824  1.00  0.00     0.069 A 
HETATM    3  N   UNL     1      24.429  50.141  48.869  1.00  0.00    -0.170 NA
HETATM    4  N   UNL     1      23.534  49.163  49.207  1.00  0.00    -0.216 N 
HETATM    5  C   UNL     1      24.206  47.987  49.509  1.00  0.00     0.145 A 
HETATM    6  C   UNL     1      25.536  48.189  49.224  1.00  0.00     0.087 A 
HETATM    7  N   UNL     1      23.744  46.832  50.044  1.00  0.00    -0.349 N 
HETATM    8  C   UNL     1      24.661  45.832  50.326  1.00  0.00     0.111 A 
HETATM    9  C   UNL     1      25.985  45.894  50.053  1.00  0.00     0.098 A 
HETATM   10  C   UNL     1      26.522  47.146  49.413  1.00  0.00     0.205 A 
HETATM   11  O   UNL     1      27.703  47.264  49.099  1.00  0.00    -0.286 OA
HETATM   12  H   UNL     1      22.832  46.743  50.491  1.00  0.00     0.167 HD
ENDROOT
BRANCH   9  13
HETATM   13  C   UNL     1      26.841  44.729  50.441  1.00  0.00     0.261 C 
HETATM   14  N   UNL     1      27.083  44.619  51.794  1.00  0.00    -0.323 N 
HETATM   15  H   UNL     1      26.692  45.350  52.393  1.00  0.00     0.169 HD
HETATM   16  O   UNL     1      27.268  43.969  49.575  1.00  0.00    -0.267 OA
BRANCH  14  17
HETATM   17  C   UNL     1      27.800  43.607  52.466  1.00  0.00     0.037 A 
HETATM   18  C   UNL     1      28.911  43.839  53.276  1.00  0.00     0.071 A 
HETATM   19  C   UNL     1      29.562  42.766  53.880  1.00  0.00     0.118 A 
HETATM   20  F   UNL     1      30.635  42.995  54.649  1.00  0.00    -0.206 F 
HETATM   21  C   UNL     1      29.125  41.459  53.699  1.00  0.00     0.042 A 
HETATM   22  C   UNL     1      28.016  41.217  52.895  1.00  0.00     0.005 A 
HETATM   23  C   UNL     1      27.360  42.287  52.278  1.00  0.00     0.029 A 
ENDBRANCH  14  17
ENDBRANCH   9  13
BRANCH   4  24
HETATM   24  C   UNL     1      22.138  49.442  49.199  1.00  0.00     0.060 A 
HETATM   25  C   UNL     1      21.218  48.588  48.580  1.00  0.00     0.031 A 
HETATM   26  C   UNL     1      19.853  48.897  48.594  1.00  0.00     0.002 A 
HETATM   27  C   UNL     1      19.402  50.060  49.215  1.00  0.00     0.000 A 
HETATM   28  C   UNL     1      20.314  50.928  49.810  1.00  0.00     0.002 A 
HETATM   29  C   UNL     1      21.677  50.628  49.796  1.00  0.00     0.031 A 
ENDBRANCH   4  24
TORSDOF 3
ENDMDL
MODEL 5
REMARK VINA RESULT:      -9.4      4.977      8.971
REMARK  3 active torsions:
REMARK  status: ('A' for Active; 'I' for Inactive)
REMARK    1  A    between atoms: N_4  and  C_5 
REMARK    2  A    between atoms: C_15  and  C_16 
REMARK       I    between atoms: C_16  and  N_17 
REMARK    3  A    between atoms: N_17  and  C_18 
ROOT
HETATM    1  C   UNL     1      26.336  46.281  53.188  1.00  0.00     0.073 C 
HETATM    2  C   UNL     1      27.357  45.337  53.702  1.00  0.00     0.069 A 
HETATM    3  N   UNL     1      28.205  45.714  54.670  1.00  0.00    -0.170 NA
HETATM    4  N   UNL     1      28.969  44.610  54.937  1.00  0.00    -0.216 N 
HETATM    5  C   UNL     1      28.681  43.602  54.030  1.00  0.00     0.145 A 
HETATM    6  C   UNL     1      27.621  44.027  53.264  1.00  0.00     0.087 A 
HETATM    7  N   UNL     1      29.303  42.417  53.815  1.00  0.00    -0.349 N 
HETATM    8  C   UNL     1      28.855  41.625  52.771  1.00  0.00     0.111 A 
HETATM    9  C   UNL     1      27.798  41.914  51.977  1.00  0.00     0.098 A 
HETATM   10  C   UNL     1      27.055  43.199  52.220  1.00  0.00     0.205 A 
HETATM   11  O   UNL     1      26.063  43.513  51.569  1.00  0.00    -0.286 OA
HETATM   12  H   UNL     1      30.225  42.190  54.187  1.00  0.00     0.167 HD
ENDROOT
BRANCH   9  13
HETATM   13  C   UNL     1      27.458  40.954  50.879  1.00  0.00     0.261 C 
HETATM   14  N   UNL     1      28.412  40.854  49.888  1.00  0.00    -0.323 N 
HETATM   15  H   UNL     1      29.231  41.458  49.974  1.00  0.00     0.169 HD
HETATM   16  O   UNL     1      26.395  40.339  50.912  1.00  0.00    -0.267 OA
BRANCH  14  17
HETATM   17  C   UNL     1      28.404  40.003  48.763  1.00  0.00     0.037 A 
HETATM   18  C   UNL     1      27.936  40.374  47.502  1.00  0.00     0.071 A 
HETATM   19  C   UNL     1      27.954  39.451  46.459  1.00  0.00     0.118 A 
HETATM   20  F   UNL     1      27.493  39.811  45.254  1.00  0.00    -0.206 F 
HETATM   21  C   UNL     1      28.436  38.161  46.642  1.00  0.00     0.042 A 
HETATM   22  C   UNL     1      28.907  37.781  47.895  1.00  0.00     0.005 A 
HETATM   23  C   UNL     1      28.887  38.698  48.950  1.00  0.00     0.029 A 
ENDBRANCH  14  17
ENDBRANCH   9  13
BRANCH   4  24
HETATM   24  C   UNL     1      29.883  44.625  56.029  1.00  0.00     0.060 A 
HETATM   25  C   UNL     1      30.875  43.649  56.175  1.00  0.00     0.031 A 
HETATM   26  C   UNL     1      31.754  43.698  57.261  1.00  0.00     0.002 A 
HETATM   27  C   UNL     1      31.644  44.714  58.209  1.00  0.00     0.000 A 
HETATM   28  C   UNL     1      30.644  45.675  58.084  1.00  0.00     0.002 A 
HETATM   29  C   UNL     1      29.760  45.628  57.005  1.00  0.00     0.031 A 
ENDBRANCH   4  24
TORSDOF 3
ENDMDL
MODEL 6
REMARK VINA RESULT:      -9.3      3.397      8.740
REMARK  3 active torsions:
REMARK  status: ('A' for Active; 'I' for Inactive)
REMARK    1  A    between atoms: N_4  and  C_5 
REMARK    2  A    between atoms: C_15  and  C_16 
REMARK       I    between atoms: C_16  and  N_17 
REMARK    3  A    between atoms: N_17  and  C_18 
ROOT
HETATM    1  C   UNL     1      27.698  41.332  50.536  1.00  0.00     0.073 C 
HETATM    2  C   UNL     1      27.745  42.503  51.446  1.00  0.00     0.069 A 
HETATM    3  N   UNL     1      28.462  42.455  52.577  1.00  0.00    -0.170 NA
HETATM    4  N   UNL     1      28.328  43.693  53.147  1.00  0.00    -0.216 N 
HETATM    5  C   UNL     1      27.411  44.448  52.432  1.00  0.00     0.145 A 
HETATM    6  C   UNL     1      27.063  43.725  51.315  1.00  0.00     0.087 A 
HETATM    7  N   UNL     1      26.852  45.648  52.724  1.00  0.00    -0.349 N 
HETATM    8  C   UNL     1      25.885  46.143  51.865  1.00  0.00     0.111 A 
HETATM    9  C   UNL     1      25.489  45.547  50.716  1.00  0.00     0.098 A 
HETATM   10  C   UNL     1      26.125  44.237  50.338  1.00  0.00     0.205 A 
HETATM   11  O   UNL     1      25.850  43.655  49.293  1.00  0.00    -0.286 OA
HETATM   12  H   UNL     1      26.898  46.080  53.646  1.00  0.00     0.167 HD
ENDROOT
BRANCH   9  13
HETATM   13  C   UNL     1      24.415  46.210  49.912  1.00  0.00     0.261 C 
HETATM   14  N   UNL     1      24.460  47.589  49.918  1.00  0.00    -0.323 N 
HETATM   15  H   UNL     1      25.188  48.023  50.489  1.00  0.00     0.169 HD
HETATM   16  O   UNL     1      23.584  45.526  49.320  1.00  0.00    -0.267 OA
BRANCH  14  17
HETATM   17  C   UNL     1      23.626  48.485  49.218  1.00  0.00     0.037 A 
HETATM   18  C   UNL     1      22.247  48.328  49.080  1.00  0.00     0.071 A 
HETATM   19  C   UNL     1      21.514  49.261  48.350  1.00  0.00     0.118 A 
HETATM   20  F   UNL     1      20.192  49.098  48.213  1.00  0.00    -0.206 F 
HETATM   21  C   UNL     1      22.127  50.359  47.756  1.00  0.00     0.042 A 
HETATM   22  C   UNL     1      23.501  50.526  47.891  1.00  0.00     0.005 A 
HETATM   23  C   UNL     1      24.246  49.591  48.615  1.00  0.00     0.029 A 
ENDBRANCH  14  17
ENDBRANCH   9  13
BRANCH   4  24
HETATM   24  C   UNL     1      29.091  44.030  54.301  1.00  0.00     0.060 A 
HETATM   25  C   UNL     1      28.848  45.200  55.030  1.00  0.00     0.031 A 
HETATM   26  C   UNL     1      29.618  45.497  56.159  1.00  0.00     0.002 A 
HETATM   27  C   UNL     1      30.637  44.635  56.561  1.00  0.00     0.000 A 
HETATM   28  C   UNL     1      30.901  43.482  55.826  1.00  0.00     0.002 A 
HETATM   29  C   UNL     1      30.139  43.183  54.695  1.00  0.00     0.031 A 
ENDBRANCH   4  24
TORSDOF 3
ENDMDL
MODEL 7
REMARK VINA RESULT:      -9.2      3.026      8.795
REMARK  3 active torsions:
REMARK  status: ('A' for Active; 'I' for Inactive)
REMARK    1  A    between atoms: N_4  and  C_5 
REMARK    2  A    between atoms: C_15  and  C_16 
REMARK       I    between atoms: C_16  and  N_17 
REMARK    3  A    between atoms: N_17  and  C_18 
ROOT
HETATM    1  C   UNL     1      28.778  41.312  51.909  1.00  0.00     0.073 C 
HETATM    2  C   UNL     1      28.754  42.482  52.819  1.00  0.00     0.069 A 
HETATM    3  N   UNL     1      29.434  42.459  53.974  1.00  0.00    -0.170 NA
HETATM    4  N   UNL     1      29.239  43.690  54.539  1.00  0.00    -0.216 N 
HETATM    5  C   UNL     1      28.321  44.414  53.793  1.00  0.00     0.145 A 
HETATM    6  C   UNL     1      28.036  43.681  52.665  1.00  0.00     0.087 A 
HETATM    7  N   UNL     1      27.712  45.594  54.066  1.00  0.00    -0.349 N 
HETATM    8  C   UNL     1      26.757  46.056  53.175  1.00  0.00     0.111 A 
HETATM    9  C   UNL     1      26.421  45.448  52.013  1.00  0.00     0.098 A 
HETATM   10  C   UNL     1      27.114  44.161  51.657  1.00  0.00     0.205 A 
HETATM   11  O   UNL     1      26.894  43.570  50.604  1.00  0.00    -0.286 OA
HETATM   12  H   UNL     1      27.712  46.027  54.989  1.00  0.00     0.167 HD
ENDROOT
BRANCH   9  13
HETATM   13  C   UNL     1      25.352  46.074  51.173  1.00  0.00     0.261 C 
HETATM   14  N   UNL     1      25.706  47.275  50.594  1.00  0.00    -0.323 N 
HETATM   15  H   UNL     1      26.635  47.637  50.816  1.00  0.00     0.169 HD
HETATM   16  O   UNL     1      24.265  45.517  51.052  1.00  0.00    -0.267 OA
BRANCH  14  17
HETATM   17  C   UNL     1      24.943  48.070  49.714  1.00  0.00     0.037 A 
HETATM   18  C   UNL     1      25.458  49.125  48.961  1.00  0.00     0.071 A 
HETATM   19  C   UNL     1      24.614  49.862  48.134  1.00  0.00     0.118 A 
HETATM   20  F   UNL     1      25.114  50.880  47.422  1.00  0.00    -0.206 F 
HETATM   21  C   UNL     1      23.259  49.566  48.035  1.00  0.00     0.042 A 
HETATM   22  C   UNL     1      22.735  48.514  48.779  1.00  0.00     0.005 A 
HETATM   23  C   UNL     1      23.573  47.773  49.617  1.00  0.00     0.029 A 
ENDBRANCH  14  17
ENDBRANCH   9  13
BRANCH   4  24
HETATM   24  C   UNL     1      29.950  44.053  55.717  1.00  0.00     0.060 A 
HETATM   25  C   UNL     1      29.671  45.235  56.414  1.00  0.00     0.031 A 
HETATM   26  C   UNL     1      30.392  45.556  57.569  1.00  0.00     0.002 A 
HETATM   27  C   UNL     1      31.397  44.708  58.029  1.00  0.00     0.000 A 
HETATM   28  C   UNL     1      31.697  43.543  57.328  1.00  0.00     0.002 A 
HETATM   29  C   UNL     1      30.985  43.219  56.171  1.00  0.00     0.031 A 
ENDBRANCH   4  24
TORSDOF 3
ENDMDL
MODEL 8
REMARK VINA RESULT:      -9.1      2.717      3.551
REMARK  3 active torsions:
REMARK  status: ('A' for Active; 'I' for Inactive)
REMARK    1  A    between atoms: N_4  and  C_5 
REMARK    2  A    between atoms: C_15  and  C_16 
REMARK       I    between atoms: C_16  and  N_17 
REMARK    3  A    between atoms: N_17  and  C_18 
ROOT
HETATM    1  C   UNL     1      21.764  44.445  47.133  1.00  0.00     0.073 C 
HETATM    2  C   UNL     1      22.064  45.664  47.923  1.00  0.00     0.069 A 
HETATM    3  N   UNL     1      21.306  46.762  47.793  1.00  0.00    -0.170 NA
HETATM    4  N   UNL     1      21.819  47.668  48.681  1.00  0.00    -0.216 N 
HETATM    5  C   UNL     1      22.981  47.169  49.251  1.00  0.00     0.145 A 
HETATM    6  C   UNL     1      23.128  45.872  48.817  1.00  0.00     0.087 A 
HETATM    7  N   UNL     1      23.896  47.779  50.042  1.00  0.00    -0.349 N 
HETATM    8  C   UNL     1      25.025  47.063  50.406  1.00  0.00     0.111 A 
HETATM    9  C   UNL     1      25.262  45.772  50.079  1.00  0.00     0.098 A 
HETATM   10  C   UNL     1      24.242  45.050  49.241  1.00  0.00     0.205 A 
HETATM   11  O   UNL     1      24.365  43.867  48.936  1.00  0.00    -0.286 OA
HETATM   12  H   UNL     1      23.944  48.790  50.171  1.00  0.00     0.167 HD
ENDROOT
BRANCH   9  13
HETATM   13  C   UNL     1      26.545  45.152  50.539  1.00  0.00     0.261 C 
HETATM   14  N   UNL     1      26.495  44.595  51.800  1.00  0.00    -0.323 N 
HETATM   15  H   UNL     1      25.613  44.686  52.309  1.00  0.00     0.169 HD
HETATM   16  O   UNL     1      27.531  45.175  49.808  1.00  0.00    -0.267 OA
BRANCH  14  17
HETATM   17  C   UNL     1      27.515  43.898  52.479  1.00  0.00     0.037 A 
HETATM   18  C   UNL     1      27.942  42.612  52.146  1.00  0.00     0.071 A 
HETATM   19  C   UNL     1      28.946  42.002  52.894  1.00  0.00     0.118 A 
HETATM   20  F   UNL     1      29.344  40.763  52.575  1.00  0.00    -0.206 F 
HETATM   21  C   UNL     1      29.543  42.650  53.969  1.00  0.00     0.042 A 
HETATM   22  C   UNL     1      29.127  43.933  54.308  1.00  0.00     0.005 A 
HETATM   23  C   UNL     1      28.114  44.551  53.568  1.00  0.00     0.029 A 
ENDBRANCH  14  17
ENDBRANCH   9  13
BRANCH   4  24
HETATM   24  C   UNL     1      21.149  48.904  48.903  1.00  0.00     0.060 A 
HETATM   25  C   UNL     1      21.632  50.110  48.380  1.00  0.00     0.031 A 
HETATM   26  C   UNL     1      20.944  51.305  48.620  1.00  0.00     0.002 A 
HETATM   27  C   UNL     1      19.780  51.304  49.385  1.00  0.00     0.000 A 
HETATM   28  C   UNL     1      19.307  50.113  49.929  1.00  0.00     0.002 A 
HETATM   29  C   UNL     1      19.991  48.918  49.698  1.00  0.00     0.031 A 
ENDBRANCH   4  24
TORSDOF 3
ENDMDL
MODEL 9
REMARK VINA RESULT:      -8.7      5.624      8.611
REMARK  3 active torsions:
REMARK  status: ('A' for Active; 'I' for Inactive)
REMARK    1  A    between atoms: N_4  and  C_5 
REMARK    2  A    between atoms: C_15  and  C_16 
REMARK       I    between atoms: C_16  and  N_17 
REMARK    3  A    between atoms: N_17  and  C_18 
ROOT
HETATM    1  C   UNL     1      17.656  47.310  47.437  1.00  0.00     0.073 C 
HETATM    2  C   UNL     1      17.695  48.779  47.637  1.00  0.00     0.069 A 
HETATM    3  N   UNL     1      16.677  49.549  47.229  1.00  0.00    -0.170 NA
HETATM    4  N   UNL     1      17.009  50.823  47.601  1.00  0.00    -0.216 N 
HETATM    5  C   UNL     1      18.299  50.849  48.110  1.00  0.00     0.145 A 
HETATM    6  C   UNL     1      18.737  49.548  48.187  1.00  0.00     0.087 A 
HETATM    7  N   UNL     1      19.086  51.902  48.437  1.00  0.00    -0.349 N 
HETATM    8  C   UNL     1      20.384  51.642  48.847  1.00  0.00     0.111 A 
HETATM    9  C   UNL     1      20.916  50.408  49.004  1.00  0.00     0.098 A 
HETATM   10  C   UNL     1      20.051  49.216  48.694  1.00  0.00     0.205 A 
HETATM   11  O   UNL     1      20.448  48.064  48.849  1.00  0.00    -0.286 OA
HETATM   12  H   UNL     1      18.887  52.862  48.160  1.00  0.00     0.167 HD
ENDROOT
BRANCH   9  13
HETATM   13  C   UNL     1      22.345  50.306  49.437  1.00  0.00     0.261 C 
HETATM   14  N   UNL     1      23.073  49.328  48.791  1.00  0.00    -0.323 N 
HETATM   15  H   UNL     1      22.570  48.752  48.114  1.00  0.00     0.169 HD
HETATM   16  O   UNL     1      22.775  51.057  50.308  1.00  0.00    -0.267 OA
BRANCH  14  17
HETATM   17  C   UNL     1      24.443  49.029  48.940  1.00  0.00     0.037 A 
HETATM   18  C   UNL     1      24.933  47.928  49.643  1.00  0.00     0.071 A 
HETATM   19  C   UNL     1      26.308  47.732  49.748  1.00  0.00     0.118 A 
HETATM   20  F   UNL     1      26.772  46.678  50.433  1.00  0.00    -0.206 F 
HETATM   21  C   UNL     1      27.212  48.610  49.161  1.00  0.00     0.042 A 
HETATM   22  C   UNL     1      26.734  49.709  48.456  1.00  0.00     0.005 A 
HETATM   23  C   UNL     1      25.355  49.919  48.351  1.00  0.00     0.029 A 
ENDBRANCH  14  17
ENDBRANCH   9  13
BRANCH   4  24
HETATM   24  C   UNL     1      16.065  51.878  47.445  1.00  0.00     0.060 A 
HETATM   25  C   UNL     1      15.650  52.316  46.182  1.00  0.00     0.031 A 
HETATM   26  C   UNL     1      14.721  53.356  46.069  1.00  0.00     0.002 A 
HETATM   27  C   UNL     1      14.208  53.967  47.212  1.00  0.00     0.000 A 
HETATM   28  C   UNL     1      14.635  53.554  48.471  1.00  0.00     0.002 A 
HETATM   29  C   UNL     1      15.567  52.521  48.590  1.00  0.00     0.031 A 
ENDBRANCH   4  24
TORSDOF 3
ENDMDL
MODEL 10
REMARK VINA RESULT:      -8.7      4.373      9.171
REMARK  3 active torsions:
REMARK  status: ('A' for Active; 'I' for Inactive)
REMARK    1  A    between atoms: N_4  and  C_5 
REMARK    2  A    between atoms: C_15  and  C_16 
REMARK       I    between atoms: C_16  and  N_17 
REMARK    3  A    between atoms: N_17  and  C_18 
ROOT
HETATM    1  C   UNL     1      27.018  45.665  54.115  1.00  0.00     0.073 C 
HETATM    2  C   UNL     1      26.675  44.968  52.851  1.00  0.00     0.069 A 
HETATM    3  N   UNL     1      27.151  43.741  52.601  1.00  0.00    -0.170 NA
HETATM    4  N   UNL     1      26.614  43.379  51.395  1.00  0.00    -0.216 N 
HETATM    5  C   UNL     1      25.923  44.448  50.843  1.00  0.00     0.145 A 
HETATM    6  C   UNL     1      25.909  45.456  51.778  1.00  0.00     0.087 A 
HETATM    7  N   UNL     1      25.385  44.594  49.608  1.00  0.00    -0.349 N 
HETATM    8  C   UNL     1      24.818  45.816  49.285  1.00  0.00     0.111 A 
HETATM    9  C   UNL     1      24.705  46.867  50.130  1.00  0.00     0.098 A 
HETATM   10  C   UNL     1      25.250  46.720  51.525  1.00  0.00     0.205 A 
HETATM   11  O   UNL     1      25.150  47.612  52.362  1.00  0.00    -0.286 OA
HETATM   12  H   UNL     1      25.595  43.976  48.825  1.00  0.00     0.167 HD
ENDROOT
BRANCH   9  13
HETATM   13  C   UNL     1      24.079  48.124  49.612  1.00  0.00     0.261 C 
HETATM   14  N   UNL     1      22.712  48.058  49.441  1.00  0.00    -0.323 N 
HETATM   15  H   UNL     1      22.265  47.163  49.646  1.00  0.00     0.169 HD
HETATM   16  O   UNL     1      24.782  49.102  49.372  1.00  0.00    -0.267 OA
BRANCH  14  17
HETATM   17  C   UNL     1      21.841  49.087  49.026  1.00  0.00     0.037 A 
HETATM   18  C   UNL     1      21.139  49.081  47.821  1.00  0.00     0.071 A 
HETATM   19  C   UNL     1      20.318  50.157  47.494  1.00  0.00     0.118 A 
HETATM   20  F   UNL     1      19.654  50.149  46.330  1.00  0.00    -0.206 F 
HETATM   21  C   UNL     1      20.174  51.244  48.348  1.00  0.00     0.042 A 
HETATM   22  C   UNL     1      20.868  51.259  49.554  1.00  0.00     0.005 A 
HETATM   23  C   UNL     1      21.700  50.186  49.888  1.00  0.00     0.029 A 
ENDBRANCH  14  17
ENDBRANCH   9  13
BRANCH   4  24
HETATM   24  C   UNL     1      26.804  42.058  50.899  1.00  0.00     0.060 A 
HETATM   25  C   UNL     1      25.756  41.326  50.329  1.00  0.00     0.031 A 
HETATM   26  C   UNL     1      25.983  40.030  49.853  1.00  0.00     0.002 A 
HETATM   27  C   UNL     1      27.250  39.458  49.949  1.00  0.00     0.000 A 
HETATM   28  C   UNL     1      28.291  40.170  50.537  1.00  0.00     0.002 A 
HETATM   29  C   UNL     1      28.070  41.462  51.019  1.00  0.00     0.031 A 
ENDBRANCH   4  24
TORSDOF 3
ENDMDL
