MODEL 1
REMARK VINA RESULT:      -8.1      0.000      0.000
REMARK  6 active torsions:
REMARK  status: ('A' for Active; 'I' for Inactive)
REMARK    1  A    between atoms: C_2  and  C_3 
REMARK    2  A    between atoms: C_13  and  C_14 
REMARK       I    between atoms: C_14  and  N_15 
REMARK    3  A    between atoms: N_15  and  C_16 
REMARK    4  A    between atoms: C_16  and  C_17 
REMARK    5  A    between atoms: C_17  and  C_18 
REMARK    6  A    between atoms: C_18  and  C_19 
ROOT
HETATM    1  C   UNL     1      26.235  48.397  49.449  1.00  0.00     0.251 C 
HETATM    2  N   UNL     1      24.949  48.772  49.118  1.00  0.00    -0.357 N 
HETATM    3  O   UNL     1      27.227  49.033  49.114  1.00  0.00    -0.268 OA
HETATM    4  H   UNL     1      24.181  48.137  49.272  1.00  0.00     0.162 HD
ENDROOT
BRANCH   1   5
HETATM    5  C   UNL     1      26.395  47.130  50.220  1.00  0.00     0.032 A 
HETATM    6  C   UNL     1      26.915  45.957  49.663  1.00  0.00     0.017 A 
HETATM    7  C   UNL     1      27.065  44.801  50.445  1.00  0.00     0.008 A 
HETATM    8  C   UNL     1      26.679  44.783  51.792  1.00  0.00    -0.052 A 
HETATM    9  C   UNL     1      26.143  45.965  52.335  1.00  0.00     0.008 A 
HETATM   10  C   UNL     1      26.001  47.120  51.560  1.00  0.00     0.017 A 
BRANCH   8  11
HETATM   11  C   UNL     1      26.819  43.571  52.704  1.00  0.00     0.044 C 
HETATM   12  C   UNL     1      27.752  42.477  52.158  1.00  0.00     0.241 C 
HETATM   13  N   UNL     1      29.186  42.722  52.512  1.00  0.00    -0.074 N 
HETATM   14  H   UNL     1      29.547  43.517  51.972  1.00  0.00     0.277 HD
HETATM   15  H   UNL     1      29.740  41.915  52.194  1.00  0.00     0.277 HD
HETATM   16  C   UNL     1      29.436  42.928  53.968  1.00  0.00     0.232 C 
HETATM   17  C   UNL     1      28.623  44.111  54.461  1.00  0.00     0.028 C 
HETATM   18  C   UNL     1      27.134  43.944  54.164  1.00  0.00     0.013 C 
ENDBRANCH   8  11
ENDBRANCH   1   5
BRANCH   2  19
HETATM   19  C   UNL     1      24.690  49.918  48.265  1.00  0.00     0.123 C 
BRANCH  19  20
HETATM   20  C   UNL     1      23.221  50.025  47.856  1.00  0.00     0.026 C 
BRANCH  20  21
HETATM   21  C   UNL     1      22.445  50.989  48.755  1.00  0.00     0.061 C 
BRANCH  21  22
HETATM   22  C   UNL     1      21.188  50.404  49.308  1.00  0.00     0.044 A 
HETATM   23  N   UNL     1      21.001  49.035  49.202  1.00  0.00    -0.229 NA
HETATM   24  C   UNL     1      19.838  48.692  49.698  1.00  0.00     0.164 A 
HETATM   25  N   UNL     1      19.396  47.425  49.723  1.00  0.00    -0.378 N 
HETATM   26  S   UNL     1      18.904  49.981  50.339  1.00  0.00    -0.062 SA
HETATM   27  H   UNL     1      20.105  46.712  49.594  1.00  0.00     0.158 HD
HETATM   28  H   UNL     1      18.687  47.187  50.405  1.00  0.00     0.158 HD
HETATM   29  C   UNL     1      20.139  51.083  49.898  1.00  0.00     0.080 A 
ENDBRANCH  21  22
ENDBRANCH  20  21
ENDBRANCH  19  20
ENDBRANCH   2  19
TORSDOF 6
ENDMDL
MODEL 2
REMARK VINA RESULT:      -7.8      3.972      5.945
REMARK  6 active torsions:
REMARK  status: ('A' for Active; 'I' for Inactive)
REMARK    1  A    between atoms: C_2  and  C_3 
REMARK    2  A    between atoms: C_13  and  C_14 
REMARK       I    between atoms: C_14  and  N_15 
REMARK    3  A    between atoms: N_15  and  C_16 
REMARK    4  A    between atoms: C_16  and  C_17 
REMARK    5  A    between atoms: C_17  and  C_18 
REMARK    6  A    between atoms: C_18  and  C_19 
ROOT
HETATM    1  C   UNL     1      25.666  43.701  52.856  1.00  0.00     0.251 C 
HETATM    2  N   UNL     1      25.729  42.846  51.775  1.00  0.00    -0.357 N 
HETATM    3  O   UNL     1      24.630  44.239  53.227  1.00  0.00    -0.268 OA
HETATM    4  H   UNL     1      26.623  42.559  51.408  1.00  0.00     0.162 HD
ENDROOT
BRANCH   1   5
HETATM    5  C   UNL     1      26.946  43.997  53.562  1.00  0.00     0.032 A 
HETATM    6  C   UNL     1      27.966  43.054  53.724  1.00  0.00     0.017 A 
HETATM    7  C   UNL     1      29.161  43.399  54.376  1.00  0.00     0.008 A 
HETATM    8  C   UNL     1      29.353  44.684  54.901  1.00  0.00    -0.052 A 
HETATM    9  C   UNL     1      28.313  45.618  54.744  1.00  0.00     0.008 A 
HETATM   10  C   UNL     1      27.127  45.279  54.087  1.00  0.00     0.017 A 
BRANCH   8  11
HETATM   11  C   UNL     1      30.623  45.133  55.614  1.00  0.00     0.044 C 
HETATM   12  C   UNL     1      30.390  46.191  56.706  1.00  0.00     0.241 C 
HETATM   13  N   UNL     1      30.043  45.580  58.028  1.00  0.00    -0.074 N 
HETATM   14  H   UNL     1      29.095  45.186  57.990  1.00  0.00     0.277 HD
HETATM   15  H   UNL     1      29.986  46.333  58.727  1.00  0.00     0.277 HD
HETATM   16  C   UNL     1      31.013  44.555  58.508  1.00  0.00     0.232 C 
HETATM   17  C   UNL     1      31.118  43.436  57.486  1.00  0.00     0.028 C 
HETATM   18  C   UNL     1      31.492  43.960  56.102  1.00  0.00     0.013 C 
ENDBRANCH   8  11
ENDBRANCH   1   5
BRANCH   2  19
HETATM   19  C   UNL     1      24.566  42.589  50.943  1.00  0.00     0.123 C 
BRANCH  19  20
HETATM   20  C   UNL     1      24.672  43.251  49.568  1.00  0.00     0.026 C 
BRANCH  20  21
HETATM   21  C   UNL     1      25.947  44.085  49.431  1.00  0.00     0.061 C 
BRANCH  21  22
HETATM   22  C   UNL     1      25.707  45.556  49.524  1.00  0.00     0.044 A 
HETATM   23  N   UNL     1      26.800  46.404  49.436  1.00  0.00    -0.229 NA
HETATM   24  C   UNL     1      26.423  47.650  49.574  1.00  0.00     0.164 A 
HETATM   25  N   UNL     1      27.277  48.684  49.534  1.00  0.00    -0.378 N 
HETATM   26  S   UNL     1      24.738  47.888  49.799  1.00  0.00    -0.062 SA
HETATM   27  H   UNL     1      28.183  48.486  49.122  1.00  0.00     0.158 HD
HETATM   28  H   UNL     1      26.905  49.596  49.299  1.00  0.00     0.158 HD
HETATM   29  C   UNL     1      24.499  46.194  49.729  1.00  0.00     0.080 A 
ENDBRANCH  21  22
ENDBRANCH  20  21
ENDBRANCH  19  20
ENDBRANCH   2  19
TORSDOF 6
ENDMDL
MODEL 3
REMARK VINA RESULT:      -7.8      1.340      1.864
REMARK  6 active torsions:
REMARK  status: ('A' for Active; 'I' for Inactive)
REMARK    1  A    between atoms: C_2  and  C_3 
REMARK    2  A    between atoms: C_13  and  C_14 
REMARK       I    between atoms: C_14  and  N_15 
REMARK    3  A    between atoms: N_15  and  C_16 
REMARK    4  A    between atoms: C_16  and  C_17 
REMARK    5  A    between atoms: C_17  and  C_18 
REMARK    6  A    between atoms: C_18  and  C_19 
ROOT
HETATM    1  C   UNL     1      26.044  48.195  49.534  1.00  0.00     0.251 C 
HETATM    2  N   UNL     1      24.722  48.482  49.268  1.00  0.00    -0.357 N 
HETATM    3  O   UNL     1      26.978  48.850  49.085  1.00  0.00    -0.268 OA
HETATM    4  H   UNL     1      24.000  47.824  49.520  1.00  0.00     0.162 HD
ENDROOT
BRANCH   1   5
HETATM    5  C   UNL     1      26.322  46.997  50.380  1.00  0.00     0.032 A 
HETATM    6  C   UNL     1      26.051  46.950  51.751  1.00  0.00     0.017 A 
HETATM    7  C   UNL     1      26.310  45.786  52.491  1.00  0.00     0.008 A 
HETATM    8  C   UNL     1      26.867  44.652  51.883  1.00  0.00    -0.052 A 
HETATM    9  C   UNL     1      27.148  44.718  50.507  1.00  0.00     0.008 A 
HETATM   10  C   UNL     1      26.882  45.874  49.767  1.00  0.00     0.017 A 
BRANCH   8  11
HETATM   11  C   UNL     1      27.168  43.351  52.618  1.00  0.00     0.044 C 
HETATM   12  C   UNL     1      28.268  42.499  51.962  1.00  0.00     0.241 C 
HETATM   13  N   UNL     1      29.640  42.895  52.408  1.00  0.00    -0.074 N 
HETATM   14  H   UNL     1      29.888  43.806  52.002  1.00  0.00     0.277 HD
HETATM   15  H   UNL     1      30.316  42.234  52.001  1.00  0.00     0.277 HD
HETATM   16  C   UNL     1      29.826  42.918  53.887  1.00  0.00     0.232 C 
HETATM   17  C   UNL     1      28.833  43.884  54.509  1.00  0.00     0.028 C 
HETATM   18  C   UNL     1      27.394  43.547  54.128  1.00  0.00     0.013 C 
ENDBRANCH   8  11
ENDBRANCH   1   5
BRANCH   2  19
HETATM   19  C   UNL     1      24.347  49.548  48.355  1.00  0.00     0.123 C 
BRANCH  19  20
HETATM   20  C   UNL     1      22.831  49.678  48.197  1.00  0.00     0.026 C 
BRANCH  20  21
HETATM   21  C   UNL     1      22.328  51.058  48.624  1.00  0.00     0.061 C 
BRANCH  21  22
HETATM   22  C   UNL     1      20.884  51.072  49.004  1.00  0.00     0.044 A 
HETATM   23  N   UNL     1      20.087  52.091  48.507  1.00  0.00    -0.229 NA
HETATM   24  C   UNL     1      18.865  51.979  48.965  1.00  0.00     0.164 A 
HETATM   25  N   UNL     1      17.881  52.835  48.647  1.00  0.00    -0.378 N 
HETATM   26  S   UNL     1      18.587  50.640  50.002  1.00  0.00    -0.062 SA
HETATM   27  H   UNL     1      18.049  53.409  47.828  1.00  0.00     0.158 HD
HETATM   28  H   UNL     1      16.926  52.511  48.737  1.00  0.00     0.158 HD
HETATM   29  C   UNL     1      20.232  50.190  49.844  1.00  0.00     0.080 A 
ENDBRANCH  21  22
ENDBRANCH  20  21
ENDBRANCH  19  20
ENDBRANCH   2  19
TORSDOF 6
ENDMDL
MODEL 4
REMARK VINA RESULT:      -7.8      3.142      9.335
REMARK  6 active torsions:
REMARK  status: ('A' for Active; 'I' for Inactive)
REMARK    1  A    between atoms: C_2  and  C_3 
REMARK    2  A    between atoms: C_13  and  C_14 
REMARK       I    between atoms: C_14  and  N_15 
REMARK    3  A    between atoms: N_15  and  C_16 
REMARK    4  A    between atoms: C_16  and  C_17 
REMARK    5  A    between atoms: C_17  and  C_18 
REMARK    6  A    between atoms: C_18  and  C_19 
ROOT
HETATM    1  C   UNL     1      24.469  48.567  49.361  1.00  0.00     0.251 C 
HETATM    2  N   UNL     1      24.428  47.304  49.914  1.00  0.00    -0.357 N 
HETATM    3  O   UNL     1      25.497  49.228  49.270  1.00  0.00    -0.268 OA
HETATM    4  H   UNL     1      23.541  46.869  50.118  1.00  0.00     0.162 HD
ENDROOT
BRANCH   1   5
HETATM    5  C   UNL     1      23.175  49.148  48.898  1.00  0.00     0.032 A 
HETATM    6  C   UNL     1      22.108  48.368  48.440  1.00  0.00     0.017 A 
HETATM    7  C   UNL     1      20.904  48.970  48.041  1.00  0.00     0.008 A 
HETATM    8  C   UNL     1      20.747  50.362  48.068  1.00  0.00    -0.052 A 
HETATM    9  C   UNL     1      21.834  51.135  48.516  1.00  0.00     0.008 A 
HETATM   10  C   UNL     1      23.030  50.536  48.923  1.00  0.00     0.017 A 
BRANCH   8  11
HETATM   11  C   UNL     1      19.470  51.086  47.657  1.00  0.00     0.044 C 
HETATM   12  C   UNL     1      18.229  50.180  47.586  1.00  0.00     0.241 C 
HETATM   13  N   UNL     1      17.547  50.041  48.911  1.00  0.00    -0.074 N 
HETATM   14  H   UNL     1      18.122  49.466  49.539  1.00  0.00     0.277 HD
HETATM   15  H   UNL     1      16.684  49.498  48.776  1.00  0.00     0.277 HD
HETATM   16  C   UNL     1      17.199  51.335  49.565  1.00  0.00     0.232 C 
HETATM   17  C   UNL     1      18.459  52.157  49.770  1.00  0.00     0.028 C 
HETATM   18  C   UNL     1      19.218  52.373  48.463  1.00  0.00     0.013 C 
ENDBRANCH   8  11
ENDBRANCH   1   5
BRANCH   2  19
HETATM   19  C   UNL     1      25.607  46.699  50.509  1.00  0.00     0.123 C 
BRANCH  19  20
HETATM   20  C   UNL     1      25.329  46.112  51.893  1.00  0.00     0.026 C 
BRANCH  20  21
HETATM   21  C   UNL     1      25.729  47.075  53.013  1.00  0.00     0.061 C 
BRANCH  21  22
HETATM   22  C   UNL     1      26.857  46.573  53.853  1.00  0.00     0.044 A 
HETATM   23  N   UNL     1      27.262  45.258  53.686  1.00  0.00    -0.229 NA
HETATM   24  C   UNL     1      28.229  44.968  54.520  1.00  0.00     0.164 A 
HETATM   25  N   UNL     1      28.811  43.761  54.579  1.00  0.00    -0.378 N 
HETATM   26  S   UNL     1      28.728  46.254  55.542  1.00  0.00    -0.062 SA
HETATM   27  H   UNL     1      28.662  43.165  53.772  1.00  0.00     0.158 HD
HETATM   28  H   UNL     1      29.743  43.704  54.971  1.00  0.00     0.158 HD
HETATM   29  C   UNL     1      27.545  47.267  54.830  1.00  0.00     0.080 A 
ENDBRANCH  21  22
ENDBRANCH  20  21
ENDBRANCH  19  20
ENDBRANCH   2  19
TORSDOF 6
ENDMDL
MODEL 5
REMARK VINA RESULT:      -7.5      6.258      7.955
REMARK  6 active torsions:
REMARK  status: ('A' for Active; 'I' for Inactive)
REMARK    1  A    between atoms: C_2  and  C_3 
REMARK    2  A    between atoms: C_13  and  C_14 
REMARK       I    between atoms: C_14  and  N_15 
REMARK    3  A    between atoms: N_15  and  C_16 
REMARK    4  A    between atoms: C_16  and  C_17 
REMARK    5  A    between atoms: C_17  and  C_18 
REMARK    6  A    between atoms: C_18  and  C_19 
ROOT
HETATM    1  C   UNL     1      25.740  43.793  52.685  1.00  0.00     0.251 C 
HETATM    2  N   UNL     1      25.797  42.807  51.722  1.00  0.00    -0.357 N 
HETATM    3  O   UNL     1      24.728  44.443  52.922  1.00  0.00    -0.268 OA
HETATM    4  H   UNL     1      26.686  42.416  51.450  1.00  0.00     0.162 HD
ENDROOT
BRANCH   1   5
HETATM    5  C   UNL     1      26.998  44.089  53.430  1.00  0.00     0.032 A 
HETATM    6  C   UNL     1      28.066  43.190  53.513  1.00  0.00     0.017 A 
HETATM    7  C   UNL     1      29.237  43.534  54.208  1.00  0.00     0.008 A 
HETATM    8  C   UNL     1      29.357  44.772  54.854  1.00  0.00    -0.052 A 
HETATM    9  C   UNL     1      28.269  45.660  54.774  1.00  0.00     0.008 A 
HETATM   10  C   UNL     1      27.106  45.322  54.075  1.00  0.00     0.017 A 
BRANCH   8  11
HETATM   11  C   UNL     1      30.597  45.218  55.619  1.00  0.00     0.044 C 
HETATM   12  C   UNL     1      30.313  46.241  56.733  1.00  0.00     0.241 C 
HETATM   13  N   UNL     1      29.934  45.587  58.025  1.00  0.00    -0.074 N 
HETATM   14  H   UNL     1      28.994  45.181  57.945  1.00  0.00     0.277 HD
HETATM   15  H   UNL     1      29.844  46.319  58.743  1.00  0.00     0.277 HD
HETATM   16  C   UNL     1      30.903  44.562  58.507  1.00  0.00     0.232 C 
HETATM   17  C   UNL     1      31.057  43.475  57.458  1.00  0.00     0.028 C 
HETATM   18  C   UNL     1      31.467  44.044  56.102  1.00  0.00     0.013 C 
ENDBRANCH   8  11
ENDBRANCH   1   5
BRANCH   2  19
HETATM   19  C   UNL     1      24.666  42.527  50.855  1.00  0.00     0.123 C 
BRANCH  19  20
HETATM   20  C   UNL     1      25.003  42.709  49.375  1.00  0.00     0.026 C 
BRANCH  20  21
HETATM   21  C   UNL     1      26.504  42.577  49.109  1.00  0.00     0.061 C 
BRANCH  21  22
HETATM   22  C   UNL     1      27.020  41.188  49.299  1.00  0.00     0.044 A 
HETATM   23  N   UNL     1      27.957  40.969  50.295  1.00  0.00    -0.229 NA
HETATM   24  C   UNL     1      28.332  39.714  50.302  1.00  0.00     0.164 A 
HETATM   25  N   UNL     1      29.235  39.222  51.164  1.00  0.00    -0.378 N 
HETATM   26  S   UNL     1      27.574  38.714  49.131  1.00  0.00    -0.062 SA
HETATM   27  H   UNL     1      29.412  39.793  51.983  1.00  0.00     0.158 HD
HETATM   28  H   UNL     1      29.219  38.226  51.348  1.00  0.00     0.158 HD
HETATM   29  C   UNL     1      26.696  40.068  48.557  1.00  0.00     0.080 A 
ENDBRANCH  21  22
ENDBRANCH  20  21
ENDBRANCH  19  20
ENDBRANCH   2  19
TORSDOF 6
ENDMDL
MODEL 6
REMARK VINA RESULT:      -7.5      1.807      2.319
REMARK  6 active torsions:
REMARK  status: ('A' for Active; 'I' for Inactive)
REMARK    1  A    between atoms: C_2  and  C_3 
REMARK    2  A    between atoms: C_13  and  C_14 
REMARK       I    between atoms: C_14  and  N_15 
REMARK    3  A    between atoms: N_15  and  C_16 
REMARK    4  A    between atoms: C_16  and  C_17 
REMARK    5  A    between atoms: C_17  and  C_18 
REMARK    6  A    between atoms: C_18  and  C_19 
ROOT
HETATM    1  C   UNL     1      24.836  47.492  50.144  1.00  0.00     0.251 C 
HETATM    2  N   UNL     1      23.684  46.931  49.633  1.00  0.00    -0.357 N 
HETATM    3  O   UNL     1      25.300  48.554  49.745  1.00  0.00    -0.268 OA
HETATM    4  H   UNL     1      23.431  45.985  49.874  1.00  0.00     0.162 HD
ENDROOT
BRANCH   1   5
HETATM    5  C   UNL     1      25.551  46.725  51.205  1.00  0.00     0.032 A 
HETATM    6  C   UNL     1      25.871  47.265  52.455  1.00  0.00     0.017 A 
HETATM    7  C   UNL     1      26.524  46.487  53.424  1.00  0.00     0.008 A 
HETATM    8  C   UNL     1      26.891  45.161  53.158  1.00  0.00    -0.052 A 
HETATM    9  C   UNL     1      26.577  44.635  51.891  1.00  0.00     0.008 A 
HETATM   10  C   UNL     1      25.919  45.407  50.929  1.00  0.00     0.017 A 
BRANCH   8  11
HETATM   11  C   UNL     1      27.594  44.253  54.160  1.00  0.00     0.044 C 
HETATM   12  C   UNL     1      26.909  42.890  54.362  1.00  0.00     0.241 C 
HETATM   13  N   UNL     1      27.352  41.874  53.357  1.00  0.00    -0.074 N 
HETATM   14  H   UNL     1      26.964  42.106  52.434  1.00  0.00     0.277 HD
HETATM   15  H   UNL     1      26.924  40.970  53.601  1.00  0.00     0.277 HD
HETATM   16  C   UNL     1      28.829  41.695  53.270  1.00  0.00     0.232 C 
HETATM   17  C   UNL     1      29.482  43.020  52.917  1.00  0.00     0.028 C 
HETATM   18  C   UNL     1      29.106  44.122  53.904  1.00  0.00     0.013 C 
ENDBRANCH   8  11
ENDBRANCH   1   5
BRANCH   2  19
HETATM   19  C   UNL     1      22.980  47.532  48.513  1.00  0.00     0.123 C 
BRANCH  19  20
HETATM   20  C   UNL     1      21.618  46.885  48.262  1.00  0.00     0.026 C 
BRANCH  20  21
HETATM   21  C   UNL     1      20.623  47.869  47.643  1.00  0.00     0.061 C 
BRANCH  21  22
HETATM   22  C   UNL     1      19.737  48.528  48.649  1.00  0.00     0.044 A 
HETATM   23  N   UNL     1      19.629  47.950  49.904  1.00  0.00    -0.229 NA
HETATM   24  C   UNL     1      18.789  48.626  50.648  1.00  0.00     0.164 A 
HETATM   25  N   UNL     1      18.492  48.288  51.912  1.00  0.00    -0.378 N 
HETATM   26  S   UNL     1      18.090  50.003  49.901  1.00  0.00    -0.062 SA
HETATM   27  H   UNL     1      19.144  47.653  52.359  1.00  0.00     0.158 HD
HETATM   28  H   UNL     1      18.132  49.011  52.522  1.00  0.00     0.158 HD
HETATM   29  C   UNL     1      18.960  49.656  48.467  1.00  0.00     0.080 A 
ENDBRANCH  21  22
ENDBRANCH  20  21
ENDBRANCH  19  20
ENDBRANCH   2  19
TORSDOF 6
ENDMDL
MODEL 7
REMARK VINA RESULT:      -7.4      4.232      9.452
REMARK  6 active torsions:
REMARK  status: ('A' for Active; 'I' for Inactive)
REMARK    1  A    between atoms: C_2  and  C_3 
REMARK    2  A    between atoms: C_13  and  C_14 
REMARK       I    between atoms: C_14  and  N_15 
REMARK    3  A    between atoms: N_15  and  C_16 
REMARK    4  A    between atoms: C_16  and  C_17 
REMARK    5  A    between atoms: C_17  and  C_18 
REMARK    6  A    between atoms: C_18  and  C_19 
ROOT
HETATM    1  C   UNL     1      25.403  44.395  52.039  1.00  0.00     0.251 C 
HETATM    2  N   UNL     1      26.729  44.073  51.837  1.00  0.00    -0.357 N 
HETATM    3  O   UNL     1      24.703  43.858  52.890  1.00  0.00    -0.268 OA
HETATM    4  H   UNL     1      27.216  44.418  51.024  1.00  0.00     0.162 HD
ENDROOT
BRANCH   1   5
HETATM    5  C   UNL     1      24.809  45.423  51.135  1.00  0.00     0.032 A 
HETATM    6  C   UNL     1      25.123  46.783  51.214  1.00  0.00     0.017 A 
HETATM    7  C   UNL     1      24.551  47.701  50.319  1.00  0.00     0.008 A 
HETATM    8  C   UNL     1      23.637  47.285  49.342  1.00  0.00    -0.052 A 
HETATM    9  C   UNL     1      23.318  45.915  49.284  1.00  0.00     0.008 A 
HETATM   10  C   UNL     1      23.894  44.999  50.169  1.00  0.00     0.017 A 
BRANCH   8  11
HETATM   11  C   UNL     1      22.981  48.219  48.332  1.00  0.00     0.044 C 
HETATM   12  C   UNL     1      21.466  48.394  48.528  1.00  0.00     0.241 C 
HETATM   13  N   UNL     1      21.138  49.471  49.514  1.00  0.00    -0.074 N 
HETATM   14  H   UNL     1      21.382  49.161  50.462  1.00  0.00     0.277 HD
HETATM   15  H   UNL     1      20.116  49.594  49.532  1.00  0.00     0.277 HD
HETATM   16  C   UNL     1      21.771  50.789  49.221  1.00  0.00     0.232 C 
HETATM   17  C   UNL     1      23.281  50.631  49.183  1.00  0.00     0.028 C 
HETATM   18  C   UNL     1      23.718  49.563  48.183  1.00  0.00     0.013 C 
ENDBRANCH   8  11
ENDBRANCH   1   5
BRANCH   2  19
HETATM   19  C   UNL     1      27.369  42.999  52.577  1.00  0.00     0.123 C 
BRANCH  19  20
HETATM   20  C   UNL     1      27.648  43.374  54.032  1.00  0.00     0.026 C 
BRANCH  20  21
HETATM   21  C   UNL     1      28.623  44.548  54.144  1.00  0.00     0.061 C 
BRANCH  21  22
HETATM   22  C   UNL     1      29.568  44.426  55.293  1.00  0.00     0.044 A 
HETATM   23  N   UNL     1      29.545  45.412  56.267  1.00  0.00    -0.229 NA
HETATM   24  C   UNL     1      30.456  45.178  57.177  1.00  0.00     0.164 A 
HETATM   25  N   UNL     1      30.657  45.975  58.238  1.00  0.00    -0.378 N 
HETATM   26  S   UNL     1      31.386  43.755  56.937  1.00  0.00    -0.062 SA
HETATM   27  H   UNL     1      29.899  46.614  58.453  1.00  0.00     0.158 HD
HETATM   28  H   UNL     1      31.106  45.574  59.052  1.00  0.00     0.158 HD
HETATM   29  C   UNL     1      30.518  43.443  55.494  1.00  0.00     0.080 A 
ENDBRANCH  21  22
ENDBRANCH  20  21
ENDBRANCH  19  20
ENDBRANCH   2  19
TORSDOF 6
ENDMDL
MODEL 8
REMARK VINA RESULT:      -7.3      3.891     10.305
REMARK  6 active torsions:
REMARK  status: ('A' for Active; 'I' for Inactive)
REMARK    1  A    between atoms: C_2  and  C_3 
REMARK    2  A    between atoms: C_13  and  C_14 
REMARK       I    between atoms: C_14  and  N_15 
REMARK    3  A    between atoms: N_15  and  C_16 
REMARK    4  A    between atoms: C_16  and  C_17 
REMARK    5  A    between atoms: C_17  and  C_18 
REMARK    6  A    between atoms: C_18  and  C_19 
ROOT
HETATM    1  C   UNL     1      21.969  50.677  49.649  1.00  0.00     0.251 C 
HETATM    2  N   UNL     1      22.615  49.928  48.688  1.00  0.00    -0.357 N 
HETATM    3  O   UNL     1      22.523  51.100  50.657  1.00  0.00    -0.268 OA
HETATM    4  H   UNL     1      22.085  49.465  47.966  1.00  0.00     0.162 HD
ENDROOT
BRANCH   1   5
HETATM    5  C   UNL     1      20.514  50.935  49.444  1.00  0.00     0.032 A 
HETATM    6  C   UNL     1      20.027  51.924  48.584  1.00  0.00     0.017 A 
HETATM    7  C   UNL     1      18.645  52.103  48.412  1.00  0.00     0.008 A 
HETATM    8  C   UNL     1      17.721  51.315  49.111  1.00  0.00    -0.052 A 
HETATM    9  C   UNL     1      18.225  50.334  49.984  1.00  0.00     0.008 A 
HETATM   10  C   UNL     1      19.601  50.148  50.149  1.00  0.00     0.017 A 
BRANCH   8  11
HETATM   11  C   UNL     1      16.209  51.446  48.971  1.00  0.00     0.044 C 
HETATM   12  C   UNL     1      15.734  52.851  48.564  1.00  0.00     0.241 C 
HETATM   13  N   UNL     1      15.739  53.049  47.081  1.00  0.00    -0.074 N 
HETATM   14  H   UNL     1      16.706  53.108  46.741  1.00  0.00     0.277 HD
HETATM   15  H   UNL     1      15.331  53.971  46.875  1.00  0.00     0.277 HD
HETATM   16  C   UNL     1      14.984  52.013  46.318  1.00  0.00     0.232 C 
HETATM   17  C   UNL     1      15.565  50.641  46.610  1.00  0.00     0.028 C 
HETATM   18  C   UNL     1      15.582  50.336  48.106  1.00  0.00     0.013 C 
ENDBRANCH   8  11
ENDBRANCH   1   5
BRANCH   2  19
HETATM   19  C   UNL     1      23.998  49.514  48.853  1.00  0.00     0.123 C 
BRANCH  19  20
HETATM   20  C   UNL     1      24.123  48.080  49.371  1.00  0.00     0.026 C 
BRANCH  20  21
HETATM   21  C   UNL     1      25.509  47.802  49.955  1.00  0.00     0.061 C 
BRANCH  21  22
HETATM   22  C   UNL     1      25.479  46.925  51.163  1.00  0.00     0.044 A 
HETATM   23  N   UNL     1      25.898  47.459  52.371  1.00  0.00    -0.229 NA
HETATM   24  C   UNL     1      25.846  46.552  53.315  1.00  0.00     0.164 A 
HETATM   25  N   UNL     1      26.198  46.795  54.586  1.00  0.00    -0.378 N 
HETATM   26  S   UNL     1      25.276  45.010  52.822  1.00  0.00    -0.062 SA
HETATM   27  H   UNL     1      26.246  47.774  54.847  1.00  0.00     0.158 HD
HETATM   28  H   UNL     1      25.818  46.193  55.305  1.00  0.00     0.158 HD
HETATM   29  C   UNL     1      25.107  45.595  51.221  1.00  0.00     0.080 A 
ENDBRANCH  21  22
ENDBRANCH  20  21
ENDBRANCH  19  20
ENDBRANCH   2  19
TORSDOF 6
ENDMDL
MODEL 9
REMARK VINA RESULT:      -7.2      2.942      3.627
REMARK  6 active torsions:
REMARK  status: ('A' for Active; 'I' for Inactive)
REMARK    1  A    between atoms: C_2  and  C_3 
REMARK    2  A    between atoms: C_13  and  C_14 
REMARK       I    between atoms: C_14  and  N_15 
REMARK    3  A    between atoms: N_15  and  C_16 
REMARK    4  A    between atoms: C_16  and  C_17 
REMARK    5  A    between atoms: C_17  and  C_18 
REMARK    6  A    between atoms: C_18  and  C_19 
ROOT
HETATM    1  C   UNL     1      25.220  47.583  50.150  1.00  0.00     0.251 C 
HETATM    2  N   UNL     1      23.846  47.710  50.136  1.00  0.00    -0.357 N 
HETATM    3  O   UNL     1      25.970  48.329  49.533  1.00  0.00    -0.268 OA
HETATM    4  H   UNL     1      23.266  46.980  50.520  1.00  0.00     0.162 HD
ENDROOT
BRANCH   1   5
HETATM    5  C   UNL     1      25.788  46.446  50.931  1.00  0.00     0.032 A 
HETATM    6  C   UNL     1      25.619  46.307  52.313  1.00  0.00     0.017 A 
HETATM    7  C   UNL     1      26.157  45.202  52.991  1.00  0.00     0.008 A 
HETATM    8  C   UNL     1      26.893  44.223  52.309  1.00  0.00    -0.052 A 
HETATM    9  C   UNL     1      27.068  44.383  50.922  1.00  0.00     0.008 A 
HETATM   10  C   UNL     1      26.525  45.479  50.244  1.00  0.00     0.017 A 
BRANCH   8  11
HETATM   11  C   UNL     1      27.499  42.993  52.974  1.00  0.00     0.044 C 
HETATM   12  C   UNL     1      28.656  42.358  52.184  1.00  0.00     0.241 C 
HETATM   13  N   UNL     1      29.976  42.992  52.495  1.00  0.00    -0.074 N 
HETATM   14  H   UNL     1      30.012  43.935  52.089  1.00  0.00     0.277 HD
HETATM   15  H   UNL     1      30.711  42.466  52.003  1.00  0.00     0.277 HD
HETATM   16  C   UNL     1      30.312  43.038  53.947  1.00  0.00     0.232 C 
HETATM   17  C   UNL     1      29.236  43.804  54.694  1.00  0.00     0.028 C 
HETATM   18  C   UNL     1      27.847  43.216  54.457  1.00  0.00     0.013 C 
ENDBRANCH   8  11
ENDBRANCH   1   5
BRANCH   2  19
HETATM   19  C   UNL     1      23.185  48.703  49.307  1.00  0.00     0.123 C 
BRANCH  19  20
HETATM   20  C   UNL     1      22.490  48.085  48.094  1.00  0.00     0.026 C 
BRANCH  20  21
HETATM   21  C   UNL     1      21.551  46.945  48.492  1.00  0.00     0.061 C 
BRANCH  21  22
HETATM   22  C   UNL     1      21.985  45.612  47.978  1.00  0.00     0.044 A 
HETATM   23  N   UNL     1      23.220  45.127  48.378  1.00  0.00    -0.229 NA
HETATM   24  C   UNL     1      23.464  43.972  47.811  1.00  0.00     0.164 A 
HETATM   25  N   UNL     1      24.592  43.276  48.018  1.00  0.00    -0.378 N 
HETATM   26  S   UNL     1      22.225  43.384  46.779  1.00  0.00    -0.062 SA
HETATM   27  H   UNL     1      25.126  43.544  48.837  1.00  0.00     0.158 HD
HETATM   28  H   UNL     1      24.570  42.278  47.845  1.00  0.00     0.158 HD
HETATM   29  C   UNL     1      21.304  44.793  47.098  1.00  0.00     0.080 A 
ENDBRANCH  21  22
ENDBRANCH  20  21
ENDBRANCH  19  20
ENDBRANCH   2  19
TORSDOF 6
ENDMDL
MODEL 10
REMARK VINA RESULT:      -7.1     11.712     13.888
REMARK  6 active torsions:
REMARK  status: ('A' for Active; 'I' for Inactive)
REMARK    1  A    between atoms: C_2  and  C_3 
REMARK    2  A    between atoms: C_13  and  C_14 
REMARK       I    between atoms: C_14  and  N_15 
REMARK    3  A    between atoms: N_15  and  C_16 
REMARK    4  A    between atoms: C_16  and  C_17 
REMARK    5  A    between atoms: C_17  and  C_18 
REMARK    6  A    between atoms: C_18  and  C_19 
ROOT
HETATM    1  C   UNL     1      30.886  50.278  42.147  1.00  0.00     0.251 C 
HETATM    2  N   UNL     1      30.632  48.925  42.061  1.00  0.00    -0.357 N 
HETATM    3  O   UNL     1      30.034  51.136  41.946  1.00  0.00    -0.268 OA
HETATM    4  H   UNL     1      31.394  48.266  42.071  1.00  0.00     0.162 HD
ENDROOT
BRANCH   1   5
HETATM    5  C   UNL     1      32.286  50.688  42.463  1.00  0.00     0.032 A 
HETATM    6  C   UNL     1      32.612  51.545  43.518  1.00  0.00     0.017 A 
HETATM    7  C   UNL     1      33.951  51.875  43.782  1.00  0.00     0.008 A 
HETATM    8  C   UNL     1      34.990  51.375  42.985  1.00  0.00    -0.052 A 
HETATM    9  C   UNL     1      34.645  50.526  41.918  1.00  0.00     0.008 A 
HETATM   10  C   UNL     1      33.313  50.189  41.659  1.00  0.00     0.017 A 
BRANCH   8  11
HETATM   11  C   UNL     1      36.465  51.681  43.215  1.00  0.00     0.044 C 
HETATM   12  C   UNL     1      37.420  50.581  42.722  1.00  0.00     0.241 C 
HETATM   13  N   UNL     1      37.767  50.733  41.274  1.00  0.00    -0.074 N 
HETATM   14  H   UNL     1      36.951  50.500  40.695  1.00  0.00     0.277 HD
HETATM   15  H   UNL     1      38.471  50.022  41.033  1.00  0.00     0.277 HD
HETATM   16  C   UNL     1      38.300  52.076  40.904  1.00  0.00     0.232 C 
HETATM   17  C   UNL     1      37.279  53.143  41.257  1.00  0.00     0.028 C 
HETATM   18  C   UNL     1      36.875  53.083  42.728  1.00  0.00     0.013 C 
ENDBRANCH   8  11
ENDBRANCH   1   5
BRANCH   2  19
HETATM   19  C   UNL     1      29.337  48.423  41.637  1.00  0.00     0.123 C 
BRANCH  19  20
HETATM   20  C   UNL     1      29.442  47.446  40.465  1.00  0.00     0.026 C 
BRANCH  20  21
HETATM   21  C   UNL     1      28.887  48.044  39.171  1.00  0.00     0.061 C 
BRANCH  21  22
HETATM   22  C   UNL     1      29.540  49.329  38.783  1.00  0.00     0.044 A 
HETATM   23  N   UNL     1      30.922  49.357  38.681  1.00  0.00    -0.229 NA
HETATM   24  C   UNL     1      31.334  50.561  38.373  1.00  0.00     0.164 A 
HETATM   25  N   UNL     1      32.628  50.875  38.213  1.00  0.00    -0.378 N 
HETATM   26  S   UNL     1      30.096  51.731  38.167  1.00  0.00    -0.062 SA
HETATM   27  H   UNL     1      33.254  50.090  38.071  1.00  0.00     0.158 HD
HETATM   28  H   UNL     1      32.851  51.689  37.653  1.00  0.00     0.158 HD
HETATM   29  C   UNL     1      28.922  50.541  38.541  1.00  0.00     0.080 A 
ENDBRANCH  21  22
ENDBRANCH  20  21
ENDBRANCH  19  20
ENDBRANCH   2  19
TORSDOF 6
ENDMDL
