MODEL 1
REMARK VINA RESULT:     -10.2      0.000      0.000
REMARK  6 active torsions:
REMARK  status: ('A' for Active; 'I' for Inactive)
REMARK    1  A    between atoms: C_2  and  C_3 
REMARK    2  A    between atoms: C_3  and  C_4 
REMARK    3  A    between atoms: N_7  and  C_9 
REMARK    4  A    between atoms: C_9  and  C_10 
REMARK    5  A    between atoms: N_23  and  C_24 
REMARK    6  A    between atoms: C_24  and  C_25 
ROOT
HETATM    1  C   UNL     1      26.743  42.782  51.618  1.00  0.00     0.119 A 
HETATM    2  N   UNL     1      25.602  43.102  52.442  1.00  0.00    -0.324 N 
HETATM    3  C   UNL     1      25.882  44.101  53.355  1.00  0.00     0.326 A 
HETATM    4  O   UNL     1      25.022  44.570  54.079  1.00  0.00    -0.247 OA
HETATM    5  N   UNL     1      27.177  44.479  53.210  1.00  0.00    -0.264 N 
HETATM    6  C   UNL     1      27.796  43.720  52.256  1.00  0.00     0.257 A 
HETATM    7  O   UNL     1      28.956  43.815  51.885  1.00  0.00    -0.270 OA
HETATM    8  H   UNL     1      24.826  42.487  52.657  1.00  0.00     0.165 HD
ENDROOT
BRANCH   1   9
HETATM    9  C   UNL     1      27.161  41.306  51.760  1.00  0.00     0.037 C 
HETATM   10  C   UNL     1      27.949  40.978  53.026  1.00  0.00     0.008 C 
ENDBRANCH   1   9
BRANCH   1  11
HETATM   11  C   UNL     1      26.535  43.214  50.117  1.00  0.00     0.026 C 
HETATM   12  C   UNL     1      27.223  44.530  49.695  1.00  0.00     0.035 C 
HETATM   13  C   UNL     1      26.538  45.796  50.193  1.00  0.00     0.235 C 
HETATM   14  N   UNL     1      25.074  45.813  49.831  1.00  0.00    -0.067 N 
HETATM   15  H   UNL     1      25.028  45.956  48.814  1.00  0.00     0.280 HD
HETATM   16  C   UNL     1      24.332  44.534  50.145  1.00  0.00     0.235 C 
HETATM   17  C   UNL     1      25.075  43.305  49.642  1.00  0.00     0.035 C 
BRANCH  14  18
HETATM   18  C   UNL     1      24.337  46.987  50.469  1.00  0.00     0.273 C 
BRANCH  18  19
HETATM   19  C   UNL     1      24.083  48.157  49.560  1.00  0.00    -0.027 A 
HETATM   20  C   UNL     1      25.140  48.863  48.970  1.00  0.00     0.051 A 
HETATM   21  C   UNL     1      24.873  49.953  48.140  1.00  0.00     0.119 A 
HETATM   22  F   UNL     1      25.900  50.612  47.587  1.00  0.00    -0.206 F 
HETATM   23  C   UNL     1      23.575  50.369  47.885  1.00  0.00     0.084 A 
HETATM   24  C   UNL     1      22.530  49.672  48.469  1.00  0.00     0.119 A 
HETATM   25  F   UNL     1      21.268  50.058  48.245  1.00  0.00    -0.206 F 
HETATM   26  C   UNL     1      22.767  48.579  49.299  1.00  0.00     0.051 A 
ENDBRANCH  18  19
ENDBRANCH  14  18
ENDBRANCH   1  11
BRANCH   5  27
HETATM   27  C   UNL     1      27.796  45.580  53.913  1.00  0.00     0.175 C 
BRANCH  27  28
HETATM   28  C   UNL     1      28.787  45.133  54.957  1.00  0.00    -0.037 A 
HETATM   29  C   UNL     1      29.002  45.921  56.101  1.00  0.00     0.048 A 
HETATM   30  C   UNL     1      29.956  45.507  57.006  1.00  0.00     0.105 A 
HETATM   31  C   UNL     1      30.674  44.351  56.822  1.00  0.00     0.105 A 
HETATM   32  O   UNL     1      30.307  46.165  58.143  1.00  0.00    -0.323 OA
HETATM   33  O   UNL     1      31.571  44.136  57.821  1.00  0.00    -0.323 OA
HETATM   34  C   UNL     1      30.474  43.539  55.727  1.00  0.00     0.040 A 
HETATM   35  C   UNL     1      31.361  45.309  58.635  1.00  0.00     0.352 A 
HETATM   36  C   UNL     1      29.518  43.936  54.786  1.00  0.00     0.012 A 
ENDBRANCH  27  28
ENDBRANCH   5  27
TORSDOF 6
ENDMDL
MODEL 2
REMARK VINA RESULT:     -10.1     12.138     13.911
REMARK  6 active torsions:
REMARK  status: ('A' for Active; 'I' for Inactive)
REMARK    1  A    between atoms: C_2  and  C_3 
REMARK    2  A    between atoms: C_3  and  C_4 
REMARK    3  A    between atoms: N_7  and  C_9 
REMARK    4  A    between atoms: C_9  and  C_10 
REMARK    5  A    between atoms: N_23  and  C_24 
REMARK    6  A    between atoms: C_24  and  C_25 
ROOT
HETATM    1  C   UNL     1      30.550  51.621  39.813  1.00  0.00     0.119 A 
HETATM    2  N   UNL     1      30.310  50.245  40.178  1.00  0.00    -0.324 N 
HETATM    3  C   UNL     1      30.898  49.915  41.383  1.00  0.00     0.326 A 
HETATM    4  O   UNL     1      30.735  48.825  41.901  1.00  0.00    -0.247 OA
HETATM    5  N   UNL     1      31.552  51.002  41.865  1.00  0.00    -0.264 N 
HETATM    6  C   UNL     1      31.465  52.046  40.986  1.00  0.00     0.257 A 
HETATM    7  O   UNL     1      31.938  53.163  41.128  1.00  0.00    -0.270 OA
HETATM    8  H   UNL     1      30.105  49.483  39.541  1.00  0.00     0.165 HD
ENDROOT
BRANCH   1   9
HETATM    9  C   UNL     1      31.288  51.740  38.466  1.00  0.00     0.037 C 
HETATM   10  C   UNL     1      32.722  51.216  38.468  1.00  0.00     0.008 C 
ENDBRANCH   1   9
BRANCH   1  11
HETATM   11  C   UNL     1      29.236  52.490  39.865  1.00  0.00     0.026 C 
HETATM   12  C   UNL     1      28.253  52.153  41.007  1.00  0.00     0.035 C 
HETATM   13  C   UNL     1      27.445  50.879  40.798  1.00  0.00     0.235 C 
HETATM   14  N   UNL     1      26.742  50.881  39.464  1.00  0.00    -0.067 N 
HETATM   15  H   UNL     1      25.989  51.576  39.533  1.00  0.00     0.280 HD
HETATM   16  C   UNL     1      27.615  51.268  38.292  1.00  0.00     0.235 C 
HETATM   17  C   UNL     1      28.411  52.536  38.567  1.00  0.00     0.035 C 
BRANCH  14  18
HETATM   18  C   UNL     1      26.072  49.542  39.164  1.00  0.00     0.273 C 
BRANCH  18  19
HETATM   19  C   UNL     1      26.881  48.325  39.520  1.00  0.00    -0.027 A 
HETATM   20  C   UNL     1      28.025  47.974  38.792  1.00  0.00     0.051 A 
HETATM   21  C   UNL     1      28.748  46.831  39.139  1.00  0.00     0.119 A 
HETATM   22  F   UNL     1      29.839  46.514  38.428  1.00  0.00    -0.206 F 
HETATM   23  C   UNL     1      28.358  46.019  40.193  1.00  0.00     0.084 A 
HETATM   24  C   UNL     1      27.226  46.365  40.912  1.00  0.00     0.119 A 
HETATM   25  F   UNL     1      26.824  45.594  41.929  1.00  0.00    -0.206 F 
HETATM   26  C   UNL     1      26.487  47.502  40.589  1.00  0.00     0.051 A 
ENDBRANCH  18  19
ENDBRANCH  14  18
ENDBRANCH   1  11
BRANCH   5  27
HETATM   27  C   UNL     1      32.189  51.071  43.161  1.00  0.00     0.175 C 
BRANCH  27  28
HETATM   28  C   UNL     1      33.687  51.210  43.078  1.00  0.00    -0.037 A 
HETATM   29  C   UNL     1      34.358  52.091  43.944  1.00  0.00     0.048 A 
HETATM   30  C   UNL     1      35.722  52.230  43.800  1.00  0.00     0.105 A 
HETATM   31  C   UNL     1      36.426  51.526  42.855  1.00  0.00     0.105 A 
HETATM   32  O   UNL     1      36.514  53.059  44.531  1.00  0.00    -0.323 OA
HETATM   33  O   UNL     1      37.753  51.822  42.871  1.00  0.00    -0.323 OA
HETATM   34  C   UNL     1      35.808  50.634  42.006  1.00  0.00     0.040 A 
HETATM   35  C   UNL     1      37.797  52.823  43.910  1.00  0.00     0.352 A 
HETATM   36  C   UNL     1      34.423  50.475  42.121  1.00  0.00     0.012 A 
ENDBRANCH  27  28
ENDBRANCH   5  27
TORSDOF 6
ENDMDL
MODEL 3
REMARK VINA RESULT:     -10.1      6.623     11.327
REMARK  6 active torsions:
REMARK  status: ('A' for Active; 'I' for Inactive)
REMARK    1  A    between atoms: C_2  and  C_3 
REMARK    2  A    between atoms: C_3  and  C_4 
REMARK    3  A    between atoms: N_7  and  C_9 
REMARK    4  A    between atoms: C_9  and  C_10 
REMARK    5  A    between atoms: N_23  and  C_24 
REMARK    6  A    between atoms: C_24  and  C_25 
ROOT
HETATM    1  C   UNL     1      18.503  51.135  48.971  1.00  0.00     0.119 A 
HETATM    2  N   UNL     1      18.841  50.234  50.046  1.00  0.00    -0.324 N 
HETATM    3  C   UNL     1      18.126  49.054  49.981  1.00  0.00     0.326 A 
HETATM    4  O   UNL     1      18.334  48.132  50.751  1.00  0.00    -0.247 OA
HETATM    5  N   UNL     1      17.292  49.103  48.912  1.00  0.00    -0.264 N 
HETATM    6  C   UNL     1      17.386  50.313  48.283  1.00  0.00     0.257 A 
HETATM    7  O   UNL     1      16.775  50.670  47.288  1.00  0.00    -0.270 OA
HETATM    8  H   UNL     1      19.219  50.494  50.950  1.00  0.00     0.165 HD
ENDROOT
BRANCH   1   9
HETATM    9  C   UNL     1      17.957  52.478  49.493  1.00  0.00     0.037 C 
HETATM   10  C   UNL     1      16.541  52.421  50.062  1.00  0.00     0.008 C 
ENDBRANCH   1   9
BRANCH   1  11
HETATM   11  C   UNL     1      19.689  51.317  47.949  1.00  0.00     0.026 C 
HETATM   12  C   UNL     1      19.936  50.133  46.989  1.00  0.00     0.035 C 
HETATM   13  C   UNL     1      20.619  48.929  47.624  1.00  0.00     0.235 C 
HETATM   14  N   UNL     1      21.890  49.323  48.333  1.00  0.00    -0.067 N 
HETATM   15  H   UNL     1      22.569  49.564  47.600  1.00  0.00     0.280 HD
HETATM   16  C   UNL     1      21.758  50.521  49.245  1.00  0.00     0.235 C 
HETATM   17  C   UNL     1      21.052  51.683  48.563  1.00  0.00     0.035 C 
BRANCH  14  18
HETATM   18  C   UNL     1      22.493  48.162  49.119  1.00  0.00     0.273 C 
BRANCH  18  19
HETATM   19  C   UNL     1      23.979  48.236  49.337  1.00  0.00    -0.027 A 
HETATM   20  C   UNL     1      24.773  49.151  48.632  1.00  0.00     0.051 A 
HETATM   21  C   UNL     1      26.152  49.188  48.846  1.00  0.00     0.119 A 
HETATM   22  F   UNL     1      26.890  50.071  48.161  1.00  0.00    -0.206 F 
HETATM   23  C   UNL     1      26.769  48.330  49.744  1.00  0.00     0.084 A 
HETATM   24  C   UNL     1      25.985  47.425  50.440  1.00  0.00     0.119 A 
HETATM   25  F   UNL     1      26.557  46.580  51.306  1.00  0.00    -0.206 F 
HETATM   26  C   UNL     1      24.606  47.368  50.248  1.00  0.00     0.051 A 
ENDBRANCH  18  19
ENDBRANCH  14  18
ENDBRANCH   1  11
BRANCH   5  27
HETATM   27  C   UNL     1      16.471  48.003  48.458  1.00  0.00     0.175 C 
BRANCH  27  28
HETATM   28  C   UNL     1      17.187  47.084  47.502  1.00  0.00    -0.037 A 
HETATM   29  C   UNL     1      17.714  45.866  47.964  1.00  0.00     0.048 A 
HETATM   30  C   UNL     1      18.410  45.079  47.071  1.00  0.00     0.105 A 
HETATM   31  C   UNL     1      18.580  45.448  45.760  1.00  0.00     0.105 A 
HETATM   32  O   UNL     1      19.007  43.892  47.361  1.00  0.00    -0.323 OA
HETATM   33  O   UNL     1      19.308  44.540  45.057  1.00  0.00    -0.323 OA
HETATM   34  C   UNL     1      18.056  46.622  45.264  1.00  0.00     0.040 A 
HETATM   35  C   UNL     1      19.608  43.574  46.087  1.00  0.00     0.352 A 
HETATM   36  C   UNL     1      17.352  47.448  46.146  1.00  0.00     0.012 A 
ENDBRANCH  27  28
ENDBRANCH   5  27
TORSDOF 6
ENDMDL
MODEL 4
REMARK VINA RESULT:     -10.1     12.270     14.869
REMARK  6 active torsions:
REMARK  status: ('A' for Active; 'I' for Inactive)
REMARK    1  A    between atoms: C_2  and  C_3 
REMARK    2  A    between atoms: C_3  and  C_4 
REMARK    3  A    between atoms: N_7  and  C_9 
REMARK    4  A    between atoms: C_9  and  C_10 
REMARK    5  A    between atoms: N_23  and  C_24 
REMARK    6  A    between atoms: C_24  and  C_25 
ROOT
HETATM    1  C   UNL     1      28.964  51.247  39.166  1.00  0.00     0.119 A 
HETATM    2  N   UNL     1      29.016  50.991  40.586  1.00  0.00    -0.324 N 
HETATM    3  C   UNL     1      27.966  50.202  41.013  1.00  0.00     0.326 A 
HETATM    4  O   UNL     1      27.885  49.805  42.162  1.00  0.00    -0.247 OA
HETATM    5  N   UNL     1      27.175  49.910  39.950  1.00  0.00    -0.264 N 
HETATM    6  C   UNL     1      27.636  50.530  38.822  1.00  0.00     0.257 A 
HETATM    7  O   UNL     1      27.154  50.463  37.701  1.00  0.00    -0.270 OA
HETATM    8  H   UNL     1      29.470  51.571  41.283  1.00  0.00     0.165 HD
ENDROOT
BRANCH   1   9
HETATM    9  C   UNL     1      28.875  52.752  38.854  1.00  0.00     0.037 C 
HETATM   10  C   UNL     1      29.315  53.674  39.990  1.00  0.00     0.008 C 
ENDBRANCH   1   9
BRANCH   1  11
HETATM   11  C   UNL     1      30.133  50.532  38.387  1.00  0.00     0.026 C 
HETATM   12  C   UNL     1      30.198  48.996  38.534  1.00  0.00     0.035 C 
HETATM   13  C   UNL     1      30.739  48.505  39.871  1.00  0.00     0.235 C 
HETATM   14  N   UNL     1      32.070  49.135  40.194  1.00  0.00    -0.067 N 
HETATM   15  H   UNL     1      32.753  48.721  39.547  1.00  0.00     0.280 HD
HETATM   16  C   UNL     1      32.120  50.635  40.011  1.00  0.00     0.235 C 
HETATM   17  C   UNL     1      31.549  51.065  38.668  1.00  0.00     0.035 C 
BRANCH  14  18
HETATM   18  C   UNL     1      32.543  48.789  41.604  1.00  0.00     0.273 C 
BRANCH  18  19
HETATM   19  C   UNL     1      33.046  49.951  42.416  1.00  0.00    -0.027 A 
HETATM   20  C   UNL     1      34.333  50.470  42.222  1.00  0.00     0.051 A 
HETATM   21  C   UNL     1      34.777  51.541  43.000  1.00  0.00     0.119 A 
HETATM   22  F   UNL     1      36.011  52.021  42.798  1.00  0.00    -0.206 F 
HETATM   23  C   UNL     1      33.973  52.110  43.976  1.00  0.00     0.084 A 
HETATM   24  C   UNL     1      32.701  51.596  44.169  1.00  0.00     0.119 A 
HETATM   25  F   UNL     1      31.908  52.122  45.110  1.00  0.00    -0.206 F 
HETATM   26  C   UNL     1      32.231  50.529  43.405  1.00  0.00     0.051 A 
ENDBRANCH  18  19
ENDBRANCH  14  18
ENDBRANCH   1  11
BRANCH   5  27
HETATM   27  C   UNL     1      26.044  49.010  39.988  1.00  0.00     0.175 C 
BRANCH  27  28
HETATM   28  C   UNL     1      26.370  47.627  39.488  1.00  0.00    -0.037 A 
HETATM   29  C   UNL     1      27.378  46.874  40.115  1.00  0.00     0.048 A 
HETATM   30  C   UNL     1      27.683  45.635  39.594  1.00  0.00     0.105 A 
HETATM   31  C   UNL     1      27.022  45.125  38.504  1.00  0.00     0.105 A 
HETATM   32  O   UNL     1      28.647  44.797  40.059  1.00  0.00    -0.323 OA
HETATM   33  O   UNL     1      27.488  43.900  38.143  1.00  0.00    -0.323 OA
HETATM   34  C   UNL     1      26.011  45.821  37.878  1.00  0.00     0.040 A 
HETATM   35  C   UNL     1      28.544  43.713  39.110  1.00  0.00     0.352 A 
HETATM   36  C   UNL     1      25.682  47.086  38.377  1.00  0.00     0.012 A 
ENDBRANCH  27  28
ENDBRANCH   5  27
TORSDOF 6
ENDMDL
MODEL 5
REMARK VINA RESULT:     -10.1      4.547      9.542
REMARK  6 active torsions:
REMARK  status: ('A' for Active; 'I' for Inactive)
REMARK    1  A    between atoms: C_2  and  C_3 
REMARK    2  A    between atoms: C_3  and  C_4 
REMARK    3  A    between atoms: N_7  and  C_9 
REMARK    4  A    between atoms: C_9  and  C_10 
REMARK    5  A    between atoms: N_23  and  C_24 
REMARK    6  A    between atoms: C_24  and  C_25 
ROOT
HETATM    1  C   UNL     1      24.178  43.792  49.530  1.00  0.00     0.119 A 
HETATM    2  N   UNL     1      24.516  43.710  48.130  1.00  0.00    -0.324 N 
HETATM    3  C   UNL     1      23.417  43.902  47.315  1.00  0.00     0.326 A 
HETATM    4  O   UNL     1      23.516  43.956  46.102  1.00  0.00    -0.247 OA
HETATM    5  N   UNL     1      22.323  44.100  48.093  1.00  0.00    -0.264 N 
HETATM    6  C   UNL     1      22.647  43.991  49.417  1.00  0.00     0.257 A 
HETATM    7  O   UNL     1      21.892  44.122  50.368  1.00  0.00    -0.270 OA
HETATM    8  H   UNL     1      25.302  43.209  47.731  1.00  0.00     0.165 HD
ENDROOT
BRANCH   1   9
HETATM    9  C   UNL     1      24.511  42.489  50.281  1.00  0.00     0.037 C 
HETATM   10  C   UNL     1      25.337  41.480  49.487  1.00  0.00     0.008 C 
ENDBRANCH   1   9
BRANCH   1  11
HETATM   11  C   UNL     1      24.797  45.067  50.220  1.00  0.00     0.026 C 
HETATM   12  C   UNL     1      26.264  45.381  49.856  1.00  0.00     0.035 C 
HETATM   13  C   UNL     1      27.294  44.476  50.520  1.00  0.00     0.235 C 
HETATM   14  N   UNL     1      27.107  44.428  52.016  1.00  0.00    -0.067 N 
HETATM   15  H   UNL     1      27.398  45.347  52.375  1.00  0.00     0.280 HD
HETATM   16  C   UNL     1      25.683  44.193  52.466  1.00  0.00     0.235 C 
HETATM   17  C   UNL     1      24.701  45.111  51.755  1.00  0.00     0.035 C 
BRANCH  14  18
HETATM   18  C   UNL     1      28.016  43.395  52.677  1.00  0.00     0.273 C 
BRANCH  18  19
HETATM   19  C   UNL     1      28.804  43.893  53.856  1.00  0.00    -0.027 A 
HETATM   20  C   UNL     1      29.885  43.165  54.369  1.00  0.00     0.051 A 
HETATM   21  C   UNL     1      30.591  43.647  55.473  1.00  0.00     0.119 A 
HETATM   22  F   UNL     1      31.620  42.934  55.946  1.00  0.00    -0.206 F 
HETATM   23  C   UNL     1      30.244  44.840  56.089  1.00  0.00     0.084 A 
HETATM   24  C   UNL     1      29.175  45.561  55.583  1.00  0.00     0.119 A 
HETATM   25  F   UNL     1      28.814  46.711  56.165  1.00  0.00    -0.206 F 
HETATM   26  C   UNL     1      28.454  45.103  54.481  1.00  0.00     0.051 A 
ENDBRANCH  18  19
ENDBRANCH  14  18
ENDBRANCH   1  11
BRANCH   5  27
HETATM   27  C   UNL     1      21.012  44.450  47.595  1.00  0.00     0.175 C 
BRANCH  27  28
HETATM   28  C   UNL     1      20.638  45.884  47.866  1.00  0.00    -0.037 A 
HETATM   29  C   UNL     1      19.443  46.181  48.543  1.00  0.00     0.048 A 
HETATM   30  C   UNL     1      19.109  47.506  48.724  1.00  0.00     0.105 A 
HETATM   31  C   UNL     1      19.916  48.523  48.277  1.00  0.00     0.105 A 
HETATM   32  O   UNL     1      17.980  47.963  49.328  1.00  0.00    -0.323 OA
HETATM   33  O   UNL     1      19.396  49.751  48.542  1.00  0.00    -0.323 OA
HETATM   34  C   UNL     1      21.108  48.273  47.631  1.00  0.00     0.040 A 
HETATM   35  C   UNL     1      18.150  49.389  49.174  1.00  0.00     0.352 A 
HETATM   36  C   UNL     1      21.471  46.938  47.425  1.00  0.00     0.012 A 
ENDBRANCH  27  28
ENDBRANCH   5  27
TORSDOF 6
ENDMDL
MODEL 6
REMARK VINA RESULT:      -9.9      4.800      8.319
REMARK  6 active torsions:
REMARK  status: ('A' for Active; 'I' for Inactive)
REMARK    1  A    between atoms: C_2  and  C_3 
REMARK    2  A    between atoms: C_3  and  C_4 
REMARK    3  A    between atoms: N_7  and  C_9 
REMARK    4  A    between atoms: C_9  and  C_10 
REMARK    5  A    between atoms: N_23  and  C_24 
REMARK    6  A    between atoms: C_24  and  C_25 
ROOT
HETATM    1  C   UNL     1      19.591  47.156  48.320  1.00  0.00     0.119 A 
HETATM    2  N   UNL     1      20.479  48.212  47.898  1.00  0.00    -0.324 N 
HETATM    3  C   UNL     1      21.799  47.805  47.876  1.00  0.00     0.326 A 
HETATM    4  O   UNL     1      22.689  48.528  47.464  1.00  0.00    -0.247 OA
HETATM    5  N   UNL     1      21.867  46.511  48.280  1.00  0.00    -0.264 N 
HETATM    6  C   UNL     1      20.629  46.050  48.628  1.00  0.00     0.257 A 
HETATM    7  O   UNL     1      20.350  44.928  49.024  1.00  0.00    -0.270 OA
HETATM    8  H   UNL     1      20.306  49.208  47.975  1.00  0.00     0.165 HD
ENDROOT
BRANCH   1   9
HETATM    9  C   UNL     1      18.800  47.538  49.585  1.00  0.00     0.037 C 
HETATM   10  C   UNL     1      19.004  48.974  50.065  1.00  0.00     0.008 C 
ENDBRANCH   1   9
BRANCH   1  11
HETATM   11  C   UNL     1      18.661  46.656  47.150  1.00  0.00     0.026 C 
HETATM   12  C   UNL     1      18.885  47.330  45.779  1.00  0.00     0.035 C 
HETATM   13  C   UNL     1      18.331  48.743  45.664  1.00  0.00     0.235 C 
HETATM   14  N   UNL     1      16.877  48.802  46.063  1.00  0.00    -0.067 N 
HETATM   15  H   UNL     1      16.352  48.328  45.317  1.00  0.00     0.280 HD
HETATM   16  C   UNL     1      16.551  48.104  47.364  1.00  0.00     0.235 C 
HETATM   17  C   UNL     1      17.149  46.706  47.427  1.00  0.00     0.035 C 
BRANCH  14  18
HETATM   18  C   UNL     1      16.354  50.234  46.122  1.00  0.00     0.273 C 
BRANCH  18  19
HETATM   19  C   UNL     1      16.849  51.053  47.282  1.00  0.00    -0.027 A 
HETATM   20  C   UNL     1      18.174  51.506  47.340  1.00  0.00     0.051 A 
HETATM   21  C   UNL     1      18.608  52.253  48.436  1.00  0.00     0.119 A 
HETATM   22  F   UNL     1      19.879  52.676  48.470  1.00  0.00    -0.206 F 
HETATM   23  C   UNL     1      17.757  52.559  49.487  1.00  0.00     0.084 A 
HETATM   24  C   UNL     1      16.448  52.111  49.431  1.00  0.00     0.119 A 
HETATM   25  F   UNL     1      15.608  52.385  50.436  1.00  0.00    -0.206 F 
HETATM   26  C   UNL     1      15.987  51.365  48.347  1.00  0.00     0.051 A 
ENDBRANCH  18  19
ENDBRANCH  14  18
ENDBRANCH   1  11
BRANCH   5  27
HETATM   27  C   UNL     1      23.070  45.710  48.273  1.00  0.00     0.175 C 
BRANCH  27  28
HETATM   28  C   UNL     1      23.848  45.798  49.561  1.00  0.00    -0.037 A 
HETATM   29  C   UNL     1      23.874  44.702  50.440  1.00  0.00     0.048 A 
HETATM   30  C   UNL     1      24.551  44.841  51.633  1.00  0.00     0.105 A 
HETATM   31  C   UNL     1      25.202  46.003  51.965  1.00  0.00     0.105 A 
HETATM   32  O   UNL     1      24.647  43.893  52.603  1.00  0.00    -0.323 OA
HETATM   33  O   UNL     1      25.791  45.935  53.188  1.00  0.00    -0.323 OA
HETATM   34  C   UNL     1      25.222  47.090  51.118  1.00  0.00     0.040 A 
HETATM   35  C   UNL     1      25.403  44.608  53.605  1.00  0.00     0.352 A 
HETATM   36  C   UNL     1      24.537  46.984  49.903  1.00  0.00     0.012 A 
ENDBRANCH  27  28
ENDBRANCH   5  27
TORSDOF 6
ENDMDL
MODEL 7
REMARK VINA RESULT:      -9.9     11.955     14.959
REMARK  6 active torsions:
REMARK  status: ('A' for Active; 'I' for Inactive)
REMARK    1  A    between atoms: C_2  and  C_3 
REMARK    2  A    between atoms: C_3  and  C_4 
REMARK    3  A    between atoms: N_7  and  C_9 
REMARK    4  A    between atoms: C_9  and  C_10 
REMARK    5  A    between atoms: N_23  and  C_24 
REMARK    6  A    between atoms: C_24  and  C_25 
ROOT
HETATM    1  C   UNL     1      29.137  51.292  39.142  1.00  0.00     0.119 A 
HETATM    2  N   UNL     1      29.148  51.051  40.565  1.00  0.00    -0.324 N 
HETATM    3  C   UNL     1      28.129  50.206  40.958  1.00  0.00     0.326 A 
HETATM    4  O   UNL     1      28.025  49.814  42.107  1.00  0.00    -0.247 OA
HETATM    5  N   UNL     1      27.399  49.861  39.868  1.00  0.00    -0.264 N 
HETATM    6  C   UNL     1      27.868  50.497  38.753  1.00  0.00     0.257 A 
HETATM    7  O   UNL     1      27.435  50.394  37.615  1.00  0.00    -0.270 OA
HETATM    8  H   UNL     1      29.539  51.661  41.274  1.00  0.00     0.165 HD
ENDROOT
BRANCH   1   9
HETATM    9  C   UNL     1      28.975  52.788  38.812  1.00  0.00     0.037 C 
HETATM   10  C   UNL     1      29.230  53.738  39.980  1.00  0.00     0.008 C 
ENDBRANCH   1   9
BRANCH   1  11
HETATM   11  C   UNL     1      30.376  50.640  38.417  1.00  0.00     0.026 C 
HETATM   12  C   UNL     1      30.644  49.156  38.749  1.00  0.00     0.035 C 
HETATM   13  C   UNL     1      31.269  48.912  40.116  1.00  0.00     0.235 C 
HETATM   14  N   UNL     1      32.513  49.743  40.313  1.00  0.00    -0.067 N 
HETATM   15  H   UNL     1      33.232  49.340  39.699  1.00  0.00     0.280 HD
HETATM   16  C   UNL     1      32.362  51.201  39.945  1.00  0.00     0.235 C 
HETATM   17  C   UNL     1      31.714  51.381  38.580  1.00  0.00     0.035 C 
BRANCH  14  18
HETATM   18  C   UNL     1      33.052  49.641  41.738  1.00  0.00     0.273 C 
BRANCH  18  19
HETATM   19  C   UNL     1      34.311  50.419  42.004  1.00  0.00    -0.027 A 
HETATM   20  C   UNL     1      34.372  51.379  43.023  1.00  0.00     0.051 A 
HETATM   21  C   UNL     1      35.552  52.094  43.239  1.00  0.00     0.119 A 
HETATM   22  F   UNL     1      35.586  53.006  44.219  1.00  0.00    -0.206 F 
HETATM   23  C   UNL     1      36.679  51.884  42.459  1.00  0.00     0.084 A 
HETATM   24  C   UNL     1      36.619  50.936  41.451  1.00  0.00     0.119 A 
HETATM   25  F   UNL     1      37.691  50.720  40.679  1.00  0.00    -0.206 F 
HETATM   26  C   UNL     1      35.455  50.206  41.215  1.00  0.00     0.051 A 
ENDBRANCH  18  19
ENDBRANCH  14  18
ENDBRANCH   1  11
BRANCH   5  27
HETATM   27  C   UNL     1      26.320  48.897  39.872  1.00  0.00     0.175 C 
BRANCH  27  28
HETATM   28  C   UNL     1      26.796  47.475  40.020  1.00  0.00    -0.037 A 
HETATM   29  C   UNL     1      26.224  46.643  40.996  1.00  0.00     0.048 A 
HETATM   30  C   UNL     1      26.724  45.366  41.137  1.00  0.00     0.105 A 
HETATM   31  C   UNL     1      27.742  44.896  40.344  1.00  0.00     0.105 A 
HETATM   32  O   UNL     1      26.306  44.448  42.048  1.00  0.00    -0.323 OA
HETATM   33  O   UNL     1      28.094  43.621  40.657  1.00  0.00    -0.323 OA
HETATM   34  C   UNL     1      28.311  45.673  39.359  1.00  0.00     0.040 A 
HETATM   35  C   UNL     1      27.207  43.355  41.764  1.00  0.00     0.352 A 
HETATM   36  C   UNL     1      27.831  46.976  39.196  1.00  0.00     0.012 A 
ENDBRANCH  27  28
ENDBRANCH   5  27
TORSDOF 6
ENDMDL
MODEL 8
REMARK VINA RESULT:      -9.9      4.075      8.775
REMARK  6 active torsions:
REMARK  status: ('A' for Active; 'I' for Inactive)
REMARK    1  A    between atoms: C_2  and  C_3 
REMARK    2  A    between atoms: C_3  and  C_4 
REMARK    3  A    between atoms: N_7  and  C_9 
REMARK    4  A    between atoms: C_9  and  C_10 
REMARK    5  A    between atoms: N_23  and  C_24 
REMARK    6  A    between atoms: C_24  and  C_25 
ROOT
HETATM    1  C   UNL     1      26.927  42.280  50.515  1.00  0.00     0.119 A 
HETATM    2  N   UNL     1      27.676  43.496  50.308  1.00  0.00    -0.324 N 
HETATM    3  C   UNL     1      26.923  44.623  50.569  1.00  0.00     0.326 A 
HETATM    4  O   UNL     1      27.405  45.742  50.535  1.00  0.00    -0.247 OA
HETATM    5  N   UNL     1      25.673  44.242  50.935  1.00  0.00    -0.264 N 
HETATM    6  C   UNL     1      25.547  42.882  50.874  1.00  0.00     0.257 A 
HETATM    7  O   UNL     1      24.554  42.226  51.147  1.00  0.00    -0.270 OA
HETATM    8  H   UNL     1      28.479  43.609  49.699  1.00  0.00     0.165 HD
ENDROOT
BRANCH   1   9
HETATM    9  C   UNL     1      26.841  41.430  49.233  1.00  0.00     0.037 C 
HETATM   10  C   UNL     1      26.565  39.945  49.460  1.00  0.00     0.008 C 
ENDBRANCH   1   9
BRANCH   1  11
HETATM   11  C   UNL     1      27.451  41.459  51.754  1.00  0.00     0.026 C 
HETATM   12  C   UNL     1      26.781  41.785  53.107  1.00  0.00     0.035 C 
HETATM   13  C   UNL     1      27.228  43.097  53.740  1.00  0.00     0.235 C 
HETATM   14  N   UNL     1      28.730  43.176  53.848  1.00  0.00    -0.067 N 
HETATM   15  H   UNL     1      29.005  42.507  54.578  1.00  0.00     0.280 HD
HETATM   16  C   UNL     1      29.474  42.805  52.585  1.00  0.00     0.235 C 
HETATM   17  C   UNL     1      28.970  41.498  51.990  1.00  0.00     0.035 C 
BRANCH  14  18
HETATM   18  C   UNL     1      29.201  44.550  54.317  1.00  0.00     0.273 C 
BRANCH  18  19
HETATM   19  C   UNL     1      29.977  44.558  55.605  1.00  0.00    -0.027 A 
HETATM   20  C   UNL     1      30.824  43.497  55.951  1.00  0.00     0.051 A 
HETATM   21  C   UNL     1      31.523  43.527  57.159  1.00  0.00     0.119 A 
HETATM   22  F   UNL     1      32.327  42.501  57.468  1.00  0.00    -0.206 F 
HETATM   23  C   UNL     1      31.396  44.587  58.043  1.00  0.00     0.084 A 
HETATM   24  C   UNL     1      30.557  45.636  57.703  1.00  0.00     0.119 A 
HETATM   25  F   UNL     1      30.411  46.668  58.542  1.00  0.00    -0.206 F 
HETATM   26  C   UNL     1      29.850  45.634  56.502  1.00  0.00     0.051 A 
ENDBRANCH  18  19
ENDBRANCH  14  18
ENDBRANCH   1  11
BRANCH   5  27
HETATM   27  C   UNL     1      24.640  45.142  51.395  1.00  0.00     0.175 C 
BRANCH  27  28
HETATM   28  C   UNL     1      24.112  46.044  50.309  1.00  0.00    -0.037 A 
HETATM   29  C   UNL     1      24.393  47.421  50.343  1.00  0.00     0.048 A 
HETATM   30  C   UNL     1      23.848  48.220  49.361  1.00  0.00     0.105 A 
HETATM   31  C   UNL     1      23.063  47.704  48.360  1.00  0.00     0.105 A 
HETATM   32  O   UNL     1      23.995  49.569  49.267  1.00  0.00    -0.323 OA
HETATM   33  O   UNL     1      22.614  48.663  47.508  1.00  0.00    -0.323 OA
HETATM   34  C   UNL     1      22.786  46.357  48.278  1.00  0.00     0.040 A 
HETATM   35  C   UNL     1      23.177  49.849  48.109  1.00  0.00     0.352 A 
HETATM   36  C   UNL     1      23.318  45.519  49.264  1.00  0.00     0.012 A 
ENDBRANCH  27  28
ENDBRANCH   5  27
TORSDOF 6
ENDMDL
MODEL 9
REMARK VINA RESULT:      -9.7     11.767     14.123
REMARK  6 active torsions:
REMARK  status: ('A' for Active; 'I' for Inactive)
REMARK    1  A    between atoms: C_2  and  C_3 
REMARK    2  A    between atoms: C_3  and  C_4 
REMARK    3  A    between atoms: N_7  and  C_9 
REMARK    4  A    between atoms: C_9  and  C_10 
REMARK    5  A    between atoms: N_23  and  C_24 
REMARK    6  A    between atoms: C_24  and  C_25 
ROOT
HETATM    1  C   UNL     1      28.127  49.283  40.462  1.00  0.00     0.119 A 
HETATM    2  N   UNL     1      29.162  48.855  39.553  1.00  0.00    -0.324 N 
HETATM    3  C   UNL     1      28.804  47.722  38.849  1.00  0.00     0.326 A 
HETATM    4  O   UNL     1      29.510  47.259  37.971  1.00  0.00    -0.247 OA
HETATM    5  N   UNL     1      27.564  47.335  39.242  1.00  0.00    -0.264 N 
HETATM    6  C   UNL     1      27.098  48.148  40.237  1.00  0.00     0.257 A 
HETATM    7  O   UNL     1      26.016  48.071  40.799  1.00  0.00    -0.270 OA
HETATM    8  H   UNL     1      30.154  49.048  39.640  1.00  0.00     0.165 HD
ENDROOT
BRANCH   1   9
HETATM    9  C   UNL     1      28.614  49.305  41.923  1.00  0.00     0.037 C 
HETATM   10  C   UNL     1      30.088  48.959  42.116  1.00  0.00     0.008 C 
ENDBRANCH   1   9
BRANCH   1  11
HETATM   11  C   UNL     1      27.470  50.646  40.019  1.00  0.00     0.026 C 
HETATM   12  C   UNL     1      28.127  51.347  38.810  1.00  0.00     0.035 C 
HETATM   13  C   UNL     1      29.448  52.041  39.116  1.00  0.00     0.235 C 
HETATM   14  N   UNL     1      29.320  52.986  40.284  1.00  0.00    -0.067 N 
HETATM   15  H   UNL     1      28.758  53.781  39.955  1.00  0.00     0.280 HD
HETATM   16  C   UNL     1      28.624  52.404  41.493  1.00  0.00     0.235 C 
HETATM   17  C   UNL     1      27.322  51.708  41.122  1.00  0.00     0.035 C 
BRANCH  14  18
HETATM   18  C   UNL     1      30.669  53.556  40.713  1.00  0.00     0.273 C 
BRANCH  18  19
HETATM   19  C   UNL     1      31.572  52.596  41.437  1.00  0.00    -0.027 A 
HETATM   20  C   UNL     1      31.518  52.456  42.830  1.00  0.00     0.051 A 
HETATM   21  C   UNL     1      32.377  51.564  43.476  1.00  0.00     0.119 A 
HETATM   22  F   UNL     1      32.307  51.447  44.808  1.00  0.00    -0.206 F 
HETATM   23  C   UNL     1      33.300  50.808  42.770  1.00  0.00     0.084 A 
HETATM   24  C   UNL     1      33.355  50.947  41.392  1.00  0.00     0.119 A 
HETATM   25  F   UNL     1      34.243  50.235  40.688  1.00  0.00    -0.206 F 
HETATM   26  C   UNL     1      32.507  51.828  40.722  1.00  0.00     0.051 A 
ENDBRANCH  18  19
ENDBRANCH  14  18
ENDBRANCH   1  11
BRANCH   5  27
HETATM   27  C   UNL     1      26.811  46.256  38.643  1.00  0.00     0.175 C 
BRANCH  27  28
HETATM   28  C   UNL     1      27.317  44.891  39.033  1.00  0.00    -0.037 A 
HETATM   29  C   UNL     1      27.236  44.470  40.371  1.00  0.00     0.048 A 
HETATM   30  C   UNL     1      27.760  43.237  40.698  1.00  0.00     0.105 A 
HETATM   31  C   UNL     1      28.333  42.421  39.754  1.00  0.00     0.105 A 
HETATM   32  O   UNL     1      27.790  42.695  41.944  1.00  0.00    -0.323 OA
HETATM   33  O   UNL     1      28.799  41.261  40.288  1.00  0.00    -0.323 OA
HETATM   34  C   UNL     1      28.408  42.788  38.428  1.00  0.00     0.040 A 
HETATM   35  C   UNL     1      28.487  41.457  41.683  1.00  0.00     0.352 A 
HETATM   36  C   UNL     1      27.893  44.037  38.065  1.00  0.00     0.012 A 
ENDBRANCH  27  28
ENDBRANCH   5  27
TORSDOF 6
ENDMDL
MODEL 10
REMARK VINA RESULT:      -9.5     11.699     13.930
REMARK  6 active torsions:
REMARK  status: ('A' for Active; 'I' for Inactive)
REMARK    1  A    between atoms: C_2  and  C_3 
REMARK    2  A    between atoms: C_3  and  C_4 
REMARK    3  A    between atoms: N_7  and  C_9 
REMARK    4  A    between atoms: C_9  and  C_10 
REMARK    5  A    between atoms: N_23  and  C_24 
REMARK    6  A    between atoms: C_24  and  C_25 
ROOT
HETATM    1  C   UNL     1      28.284  49.179  40.486  1.00  0.00     0.119 A 
HETATM    2  N   UNL     1      29.293  48.650  39.600  1.00  0.00    -0.324 N 
HETATM    3  C   UNL     1      28.911  47.449  39.034  1.00  0.00     0.326 A 
HETATM    4  O   UNL     1      29.591  46.890  38.192  1.00  0.00    -0.247 OA
HETATM    5  N   UNL     1      27.683  47.113  39.503  1.00  0.00    -0.264 N 
HETATM    6  C   UNL     1      27.248  48.032  40.416  1.00  0.00     0.257 A 
HETATM    7  O   UNL     1      26.182  48.022  41.014  1.00  0.00    -0.270 OA
HETATM    8  H   UNL     1      30.287  48.846  39.637  1.00  0.00     0.165 HD
ENDROOT
BRANCH   1   9
HETATM    9  C   UNL     1      28.814  49.357  41.922  1.00  0.00     0.037 C 
HETATM   10  C   UNL     1      30.230  48.835  42.156  1.00  0.00     0.008 C 
ENDBRANCH   1   9
BRANCH   1  11
HETATM   11  C   UNL     1      27.618  50.490  39.917  1.00  0.00     0.026 C 
HETATM   12  C   UNL     1      28.346  51.151  38.727  1.00  0.00     0.035 C 
HETATM   13  C   UNL     1      29.613  51.911  39.096  1.00  0.00     0.235 C 
HETATM   14  N   UNL     1      29.357  52.912  40.196  1.00  0.00    -0.067 N 
HETATM   15  H   UNL     1      28.796  53.665  39.779  1.00  0.00     0.280 HD
HETATM   16  C   UNL     1      28.586  52.368  41.377  1.00  0.00     0.235 C 
HETATM   17  C   UNL     1      27.344  51.602  40.944  1.00  0.00     0.035 C 
BRANCH  14  18
HETATM   18  C   UNL     1      30.646  53.557  40.697  1.00  0.00     0.273 C 
BRANCH  18  19
HETATM   19  C   UNL     1      31.593  52.632  41.410  1.00  0.00    -0.027 A 
HETATM   20  C   UNL     1      32.564  51.904  40.711  1.00  0.00     0.051 A 
HETATM   21  C   UNL     1      33.421  51.043  41.399  1.00  0.00     0.119 A 
HETATM   22  F   UNL     1      34.342  50.357  40.710  1.00  0.00    -0.206 F 
HETATM   23  C   UNL     1      33.333  50.880  42.774  1.00  0.00     0.084 A 
HETATM   24  C   UNL     1      32.372  51.599  43.466  1.00  0.00     0.119 A 
HETATM   25  F   UNL     1      32.261  51.453  44.791  1.00  0.00    -0.206 F 
HETATM   26  C   UNL     1      31.506  52.467  42.804  1.00  0.00     0.051 A 
ENDBRANCH  18  19
ENDBRANCH  14  18
ENDBRANCH   1  11
BRANCH   5  27
HETATM   27  C   UNL     1      26.910  45.980  39.046  1.00  0.00     0.175 C 
BRANCH  27  28
HETATM   28  C   UNL     1      27.186  44.721  39.827  1.00  0.00    -0.037 A 
HETATM   29  C   UNL     1      28.014  43.725  39.282  1.00  0.00     0.048 A 
HETATM   30  C   UNL     1      28.198  42.565  40.004  1.00  0.00     0.105 A 
HETATM   31  C   UNL     1      27.610  42.374  41.230  1.00  0.00     0.105 A 
HETATM   32  O   UNL     1      28.940  41.497  39.608  1.00  0.00    -0.323 OA
HETATM   33  O   UNL     1      27.908  41.159  41.762  1.00  0.00    -0.323 OA
HETATM   34  C   UNL     1      26.813  43.337  41.809  1.00  0.00     0.040 A 
HETATM   35  C   UNL     1      28.720  40.592  40.712  1.00  0.00     0.352 A 
HETATM   36  C   UNL     1      26.600  44.523  41.098  1.00  0.00     0.012 A 
ENDBRANCH  27  28
ENDBRANCH   5  27
TORSDOF 6
ENDMDL
