MODEL 1
REMARK VINA RESULT:      -8.6      0.000      0.000
REMARK  7 active torsions:
REMARK  status: ('A' for Active; 'I' for Inactive)
REMARK    1  A    between atoms: C_4  and  C_5 
REMARK    2  A    between atoms: C_5  and  N_6 
REMARK       I    between atoms: N_6  and  C_7 
REMARK    3  A    between atoms: N_6  and  C_22 
REMARK    4  A    between atoms: C_7  and  C_8 
REMARK    5  A    between atoms: C_13  and  C_14 
REMARK    6  A    between atoms: C_15  and  O_16 
REMARK    7  A    between atoms: C_22  and  C_23 
ROOT
HETATM    1  N   UNL     1      21.509  48.873  48.472  1.00  0.00    -0.343 N 
HETATM    2  C   UNL     1      20.967  47.822  47.729  1.00  0.00     0.235 C 
HETATM    3  O   UNL     1      21.392  47.570  46.597  1.00  0.00    -0.272 OA
ENDROOT
BRANCH   2   4
HETATM    4  C   UNL     1      19.869  46.981  48.341  1.00  0.00     0.195 C 
HETATM    5  C   UNL     1      18.712  46.649  47.450  1.00  0.00     0.247 C 
HETATM    6  O   UNL     1      18.202  47.344  46.588  1.00  0.00    -0.271 OA
HETATM    7  N   UNL     1      18.218  45.431  47.884  1.00  0.00    -0.290 N 
HETATM    8  N   UNL     1      18.994  44.832  48.884  1.00  0.00    -0.228 NA
HETATM    9  H   UNL     1      17.404  45.003  47.453  1.00  0.00     0.183 HD
HETATM   10  C   UNL     1      20.280  45.590  48.868  1.00  0.00     0.134 C 
HETATM   11  H   UNL     1      19.180  43.856  48.631  1.00  0.00     0.147 HD
BRANCH  10  12
HETATM   12  C   UNL     1      21.343  44.749  48.170  1.00  0.00    -0.004 A 
HETATM   13  C   UNL     1      22.613  44.526  48.735  1.00  0.00     0.073 A 
HETATM   14  C   UNL     1      23.553  43.700  48.114  1.00  0.00     0.037 A 
HETATM   15  C   UNL     1      23.245  43.054  46.922  1.00  0.00     0.003 A 
HETATM   16  C   UNL     1      21.991  43.230  46.356  1.00  0.00     0.001 A 
HETATM   17  C   UNL     1      21.049  44.057  46.977  1.00  0.00     0.012 A 
BRANCH  13  18
HETATM   18  O   UNL     1      23.031  45.052  49.927  1.00  0.00    -0.360 OA
HETATM   19  H   UNL     1      22.702  45.955  50.051  1.00  0.00     0.217 HD
ENDBRANCH  13  18
ENDBRANCH  10  12
ENDBRANCH   2   4
BRANCH   1  20
HETATM   20  C   UNL     1      22.566  49.678  47.850  1.00  0.00     0.164 C 
BRANCH  20  21
HETATM   21  C   UNL     1      23.948  49.327  48.360  1.00  0.00    -0.040 A 
HETATM   22  C   UNL     1      25.070  50.059  47.941  1.00  0.00     0.009 A 
HETATM   23  C   UNL     1      26.346  49.726  48.399  1.00  0.00     0.001 A 
HETATM   24  C   UNL     1      26.515  48.662  49.284  1.00  0.00     0.000 A 
HETATM   25  C   UNL     1      25.409  47.933  49.715  1.00  0.00     0.001 A 
HETATM   26  C   UNL     1      24.131  48.266  49.259  1.00  0.00     0.009 A 
ENDBRANCH  20  21
ENDBRANCH   1  20
BRANCH   1  27
HETATM   27  C   UNL     1      20.920  49.420  49.698  1.00  0.00     0.164 C 
BRANCH  27  28
HETATM   28  C   UNL     1      19.873  50.481  49.462  1.00  0.00    -0.040 A 
HETATM   29  C   UNL     1      20.122  51.585  48.633  1.00  0.00     0.009 A 
HETATM   30  C   UNL     1      19.125  52.533  48.394  1.00  0.00     0.001 A 
HETATM   31  C   UNL     1      17.866  52.384  48.972  1.00  0.00     0.000 A 
HETATM   32  C   UNL     1      17.600  51.286  49.785  1.00  0.00     0.001 A 
HETATM   33  C   UNL     1      18.595  50.336  50.024  1.00  0.00     0.009 A 
ENDBRANCH  27  28
ENDBRANCH   1  27
TORSDOF 7
ENDMDL
MODEL 2
REMARK VINA RESULT:      -8.5      4.475      7.738
REMARK  7 active torsions:
REMARK  status: ('A' for Active; 'I' for Inactive)
REMARK    1  A    between atoms: C_4  and  C_5 
REMARK    2  A    between atoms: C_5  and  N_6 
REMARK       I    between atoms: N_6  and  C_7 
REMARK    3  A    between atoms: N_6  and  C_22 
REMARK    4  A    between atoms: C_7  and  C_8 
REMARK    5  A    between atoms: C_13  and  C_14 
REMARK    6  A    between atoms: C_15  and  O_16 
REMARK    7  A    between atoms: C_22  and  C_23 
ROOT
HETATM    1  N   UNL     1      26.668  45.050  51.172  1.00  0.00    -0.343 N 
HETATM    2  C   UNL     1      26.645  46.047  50.194  1.00  0.00     0.235 C 
HETATM    3  O   UNL     1      27.377  45.971  49.203  1.00  0.00    -0.272 OA
ENDROOT
BRANCH   2   4
HETATM    4  C   UNL     1      25.691  47.211  50.356  1.00  0.00     0.195 C 
HETATM    5  C   UNL     1      25.778  48.289  49.321  1.00  0.00     0.247 C 
HETATM    6  O   UNL     1      26.771  48.708  48.752  1.00  0.00    -0.271 OA
HETATM    7  N   UNL     1      24.512  48.841  49.221  1.00  0.00    -0.290 N 
HETATM    8  N   UNL     1      23.543  48.167  49.974  1.00  0.00    -0.228 NA
HETATM    9  H   UNL     1      24.319  49.620  48.600  1.00  0.00     0.183 HD
HETATM   10  C   UNL     1      24.186  46.872  50.345  1.00  0.00     0.134 C 
HETATM   11  H   UNL     1      22.726  47.977  49.384  1.00  0.00     0.147 HD
BRANCH  10  12
HETATM   12  C   UNL     1      23.618  45.766  49.462  1.00  0.00    -0.004 A 
HETATM   13  C   UNL     1      23.247  44.511  49.979  1.00  0.00     0.073 A 
HETATM   14  C   UNL     1      22.668  43.530  49.170  1.00  0.00     0.037 A 
HETATM   15  C   UNL     1      22.421  43.782  47.825  1.00  0.00     0.003 A 
HETATM   16  C   UNL     1      22.749  45.021  47.292  1.00  0.00     0.001 A 
HETATM   17  C   UNL     1      23.329  46.003  48.103  1.00  0.00     0.012 A 
BRANCH  13  18
HETATM   18  O   UNL     1      23.381  44.146  51.291  1.00  0.00    -0.360 OA
HETATM   19  H   UNL     1      24.138  44.585  51.706  1.00  0.00     0.217 HD
ENDBRANCH  13  18
ENDBRANCH  10  12
ENDBRANCH   2   4
BRANCH   1  20
HETATM   20  C   UNL     1      27.610  43.939  50.994  1.00  0.00     0.164 C 
BRANCH  20  21
HETATM   21  C   UNL     1      26.949  42.693  50.446  1.00  0.00    -0.040 A 
HETATM   22  C   UNL     1      26.885  41.521  51.217  1.00  0.00     0.009 A 
HETATM   23  C   UNL     1      26.290  40.366  50.705  1.00  0.00     0.001 A 
HETATM   24  C   UNL     1      25.748  40.370  49.421  1.00  0.00     0.000 A 
HETATM   25  C   UNL     1      25.797  41.528  48.649  1.00  0.00     0.001 A 
HETATM   26  C   UNL     1      26.391  42.685  49.160  1.00  0.00     0.009 A 
ENDBRANCH  20  21
ENDBRANCH   1  20
BRANCH   1  27
HETATM   27  C   UNL     1      26.047  45.162  52.494  1.00  0.00     0.164 C 
BRANCH  27  28
HETATM   28  C   UNL     1      26.967  45.686  53.570  1.00  0.00    -0.040 A 
HETATM   29  C   UNL     1      26.990  47.045  53.918  1.00  0.00     0.009 A 
HETATM   30  C   UNL     1      27.817  47.501  54.945  1.00  0.00     0.001 A 
HETATM   31  C   UNL     1      28.624  46.605  55.644  1.00  0.00     0.000 A 
HETATM   32  C   UNL     1      28.601  45.251  55.319  1.00  0.00     0.001 A 
HETATM   33  C   UNL     1      27.773  44.792  54.293  1.00  0.00     0.009 A 
ENDBRANCH  27  28
ENDBRANCH   1  27
TORSDOF 7
ENDMDL
MODEL 3
REMARK VINA RESULT:      -8.3     10.192     12.016
REMARK  7 active torsions:
REMARK  status: ('A' for Active; 'I' for Inactive)
REMARK    1  A    between atoms: C_4  and  C_5 
REMARK    2  A    between atoms: C_5  and  N_6 
REMARK       I    between atoms: N_6  and  C_7 
REMARK    3  A    between atoms: N_6  and  C_22 
REMARK    4  A    between atoms: C_7  and  C_8 
REMARK    5  A    between atoms: C_13  and  C_14 
REMARK    6  A    between atoms: C_15  and  O_16 
REMARK    7  A    between atoms: C_22  and  C_23 
ROOT
HETATM    1  N   UNL     1      28.238  51.636  39.662  1.00  0.00    -0.343 N 
HETATM    2  C   UNL     1      27.285  50.789  39.089  1.00  0.00     0.235 C 
HETATM    3  O   UNL     1      27.207  50.671  37.863  1.00  0.00    -0.272 OA
ENDROOT
BRANCH   2   4
HETATM    4  C   UNL     1      26.367  50.000  39.996  1.00  0.00     0.195 C 
HETATM    5  C   UNL     1      25.086  49.518  39.388  1.00  0.00     0.247 C 
HETATM    6  O   UNL     1      24.388  50.079  38.561  1.00  0.00    -0.271 OA
HETATM    7  N   UNL     1      24.749  48.351  40.052  1.00  0.00    -0.290 N 
HETATM    8  N   UNL     1      25.729  47.912  40.951  1.00  0.00    -0.228 NA
HETATM    9  H   UNL     1      23.895  47.845  39.838  1.00  0.00     0.183 HD
HETATM   10  C   UNL     1      26.945  48.703  40.600  1.00  0.00     0.134 C 
HETATM   11  H   UNL     1      25.919  46.918  40.788  1.00  0.00     0.147 HD
BRANCH  10  12
HETATM   12  C   UNL     1      27.906  47.813  39.820  1.00  0.00    -0.004 A 
HETATM   13  C   UNL     1      27.603  47.331  38.532  1.00  0.00     0.073 A 
HETATM   14  C   UNL     1      28.520  46.569  37.803  1.00  0.00     0.037 A 
HETATM   15  C   UNL     1      29.776  46.286  38.328  1.00  0.00     0.003 A 
HETATM   16  C   UNL     1      30.115  46.772  39.583  1.00  0.00     0.001 A 
HETATM   17  C   UNL     1      29.197  47.535  40.314  1.00  0.00     0.012 A 
BRANCH  13  18
HETATM   18  O   UNL     1      26.431  47.578  37.872  1.00  0.00    -0.360 OA
HETATM   19  H   UNL     1      25.907  48.258  38.321  1.00  0.00     0.217 HD
ENDBRANCH  13  18
ENDBRANCH  10  12
ENDBRANCH   2   4
BRANCH   1  20
HETATM   20  C   UNL     1      29.108  52.396  38.759  1.00  0.00     0.164 C 
BRANCH  20  21
HETATM   21  C   UNL     1      30.565  52.006  38.881  1.00  0.00    -0.040 A 
HETATM   22  C   UNL     1      30.996  50.726  38.497  1.00  0.00     0.009 A 
HETATM   23  C   UNL     1      32.337  50.360  38.625  1.00  0.00     0.001 A 
HETATM   24  C   UNL     1      33.263  51.269  39.133  1.00  0.00     0.000 A 
HETATM   25  C   UNL     1      32.852  52.545  39.509  1.00  0.00     0.001 A 
HETATM   26  C   UNL     1      31.510  52.913  39.381  1.00  0.00     0.009 A 
ENDBRANCH  20  21
ENDBRANCH   1  20
BRANCH   1  27
HETATM   27  C   UNL     1      28.251  52.047  41.068  1.00  0.00     0.164 C 
BRANCH  27  28
HETATM   28  C   UNL     1      29.495  51.641  41.821  1.00  0.00    -0.040 A 
HETATM   29  C   UNL     1      29.928  50.308  41.856  1.00  0.00     0.009 A 
HETATM   30  C   UNL     1      31.105  49.961  42.521  1.00  0.00     0.001 A 
HETATM   31  C   UNL     1      31.867  50.942  43.152  1.00  0.00     0.000 A 
HETATM   32  C   UNL     1      31.457  52.272  43.114  1.00  0.00     0.001 A 
HETATM   33  C   UNL     1      30.282  52.622  42.447  1.00  0.00     0.009 A 
ENDBRANCH  27  28
ENDBRANCH   1  27
TORSDOF 7
ENDMDL
MODEL 4
REMARK VINA RESULT:      -8.3      5.648      9.476
REMARK  7 active torsions:
REMARK  status: ('A' for Active; 'I' for Inactive)
REMARK    1  A    between atoms: C_4  and  C_5 
REMARK    2  A    between atoms: C_5  and  N_6 
REMARK       I    between atoms: N_6  and  C_7 
REMARK    3  A    between atoms: N_6  and  C_22 
REMARK    4  A    between atoms: C_7  and  C_8 
REMARK    5  A    between atoms: C_13  and  C_14 
REMARK    6  A    between atoms: C_15  and  O_16 
REMARK    7  A    between atoms: C_22  and  C_23 
ROOT
HETATM    1  N   UNL     1      27.361  41.868  51.047  1.00  0.00    -0.343 N 
HETATM    2  C   UNL     1      26.681  42.876  50.360  1.00  0.00     0.235 C 
HETATM    3  O   UNL     1      26.983  43.156  49.197  1.00  0.00    -0.272 OA
ENDROOT
BRANCH   2   4
HETATM    4  C   UNL     1      25.551  43.604  51.056  1.00  0.00     0.195 C 
HETATM    5  C   UNL     1      25.519  45.091  50.891  1.00  0.00     0.247 C 
HETATM    6  O   UNL     1      26.461  45.862  50.822  1.00  0.00    -0.271 OA
HETATM    7  N   UNL     1      24.189  45.468  50.973  1.00  0.00    -0.290 N 
HETATM    8  N   UNL     1      23.301  44.386  51.039  1.00  0.00    -0.228 NA
HETATM    9  H   UNL     1      23.907  46.442  50.920  1.00  0.00     0.183 HD
HETATM   10  C   UNL     1      24.119  43.201  50.646  1.00  0.00     0.134 C 
HETATM   11  H   UNL     1      22.553  44.519  50.350  1.00  0.00     0.147 HD
BRANCH  10  12
HETATM   12  C   UNL     1      23.773  42.815  49.212  1.00  0.00    -0.004 A 
HETATM   13  C   UNL     1      23.562  43.778  48.207  1.00  0.00     0.073 A 
HETATM   14  C   UNL     1      23.310  43.408  46.883  1.00  0.00     0.037 A 
HETATM   15  C   UNL     1      23.283  42.066  46.519  1.00  0.00     0.003 A 
HETATM   16  C   UNL     1      23.516  41.094  47.483  1.00  0.00     0.001 A 
HETATM   17  C   UNL     1      23.769  41.465  48.808  1.00  0.00     0.012 A 
BRANCH  13  18
HETATM   18  O   UNL     1      23.614  45.130  48.409  1.00  0.00    -0.360 OA
HETATM   19  H   UNL     1      22.738  45.491  48.614  1.00  0.00     0.217 HD
ENDBRANCH  13  18
ENDBRANCH  10  12
ENDBRANCH   2   4
BRANCH   1  20
HETATM   20  C   UNL     1      28.458  41.186  50.352  1.00  0.00     0.164 C 
BRANCH  20  21
HETATM   21  C   UNL     1      28.179  39.717  50.114  1.00  0.00    -0.040 A 
HETATM   22  C   UNL     1      29.157  38.750  50.395  1.00  0.00     0.009 A 
HETATM   23  C   UNL     1      28.906  37.397  50.160  1.00  0.00     0.001 A 
HETATM   24  C   UNL     1      27.674  36.995  49.647  1.00  0.00     0.000 A 
HETATM   25  C   UNL     1      26.691  37.943  49.373  1.00  0.00     0.001 A 
HETATM   26  C   UNL     1      26.941  39.297  49.608  1.00  0.00     0.009 A 
ENDBRANCH  20  21
ENDBRANCH   1  20
BRANCH   1  27
HETATM   27  C   UNL     1      27.267  41.630  52.490  1.00  0.00     0.164 C 
BRANCH  27  28
HETATM   28  C   UNL     1      28.118  42.554  53.328  1.00  0.00    -0.040 A 
HETATM   29  C   UNL     1      27.566  43.660  53.991  1.00  0.00     0.009 A 
HETATM   30  C   UNL     1      28.362  44.476  54.796  1.00  0.00     0.001 A 
HETATM   31  C   UNL     1      29.718  44.193  54.955  1.00  0.00     0.000 A 
HETATM   32  C   UNL     1      30.276  43.090  54.314  1.00  0.00     0.001 A 
HETATM   33  C   UNL     1      29.481  42.271  53.511  1.00  0.00     0.009 A 
ENDBRANCH  27  28
ENDBRANCH   1  27
TORSDOF 7
ENDMDL
MODEL 5
REMARK VINA RESULT:      -8.3      1.807      6.036
REMARK  7 active torsions:
REMARK  status: ('A' for Active; 'I' for Inactive)
REMARK    1  A    between atoms: C_4  and  C_5 
REMARK    2  A    between atoms: C_5  and  N_6 
REMARK       I    between atoms: N_6  and  C_7 
REMARK    3  A    between atoms: N_6  and  C_22 
REMARK    4  A    between atoms: C_7  and  C_8 
REMARK    5  A    between atoms: C_13  and  C_14 
REMARK    6  A    between atoms: C_15  and  O_16 
REMARK    7  A    between atoms: C_22  and  C_23 
ROOT
HETATM    1  N   UNL     1      21.150  49.004  48.610  1.00  0.00    -0.343 N 
HETATM    2  C   UNL     1      20.410  47.822  48.693  1.00  0.00     0.235 C 
HETATM    3  O   UNL     1      19.622  47.639  49.624  1.00  0.00    -0.272 OA
ENDROOT
BRANCH   2   4
HETATM    4  C   UNL     1      20.573  46.778  47.609  1.00  0.00     0.195 C 
HETATM    5  C   UNL     1      20.109  45.395  47.944  1.00  0.00     0.247 C 
HETATM    6  O   UNL     1      20.172  44.819  49.017  1.00  0.00    -0.271 OA
HETATM    7  N   UNL     1      19.710  44.813  46.753  1.00  0.00    -0.290 N 
HETATM    8  N   UNL     1      19.723  45.694  45.665  1.00  0.00    -0.228 NA
HETATM    9  H   UNL     1      19.380  43.854  46.714  1.00  0.00     0.183 HD
HETATM   10  C   UNL     1      19.841  47.050  46.277  1.00  0.00     0.134 C 
HETATM   11  H   UNL     1      18.829  45.631  45.166  1.00  0.00     0.147 HD
BRANCH  10  12
HETATM   12  C   UNL     1      18.479  47.733  46.235  1.00  0.00    -0.004 A 
HETATM   13  C   UNL     1      17.287  47.046  46.535  1.00  0.00     0.073 A 
HETATM   14  C   UNL     1      16.052  47.701  46.555  1.00  0.00     0.037 A 
HETATM   15  C   UNL     1      15.974  49.065  46.299  1.00  0.00     0.003 A 
HETATM   16  C   UNL     1      17.135  49.775  46.029  1.00  0.00     0.001 A 
HETATM   17  C   UNL     1      18.371  49.120  46.009  1.00  0.00     0.012 A 
BRANCH  13  18
HETATM   18  O   UNL     1      17.221  45.718  46.858  1.00  0.00    -0.360 OA
HETATM   19  H   UNL     1      16.654  45.231  46.242  1.00  0.00     0.217 HD
ENDBRANCH  13  18
ENDBRANCH  10  12
ENDBRANCH   2   4
BRANCH   1  20
HETATM   20  C   UNL     1      20.980  49.993  49.679  1.00  0.00     0.164 C 
BRANCH  20  21
HETATM   21  C   UNL     1      19.814  50.928  49.434  1.00  0.00    -0.040 A 
HETATM   22  C   UNL     1      18.632  50.804  50.182  1.00  0.00     0.009 A 
HETATM   23  C   UNL     1      17.551  51.655  49.945  1.00  0.00     0.001 A 
HETATM   24  C   UNL     1      17.640  52.642  48.964  1.00  0.00     0.000 A 
HETATM   25  C   UNL     1      18.810  52.781  48.222  1.00  0.00     0.001 A 
HETATM   26  C   UNL     1      19.894  51.931  48.458  1.00  0.00     0.009 A 
ENDBRANCH  20  21
ENDBRANCH   1  20
BRANCH   1  27
HETATM   27  C   UNL     1      22.286  49.217  47.710  1.00  0.00     0.164 C 
BRANCH  27  28
HETATM   28  C   UNL     1      23.635  49.000  48.352  1.00  0.00    -0.040 A 
HETATM   29  C   UNL     1      23.875  47.914  49.206  1.00  0.00     0.009 A 
HETATM   30  C   UNL     1      25.141  47.707  49.755  1.00  0.00     0.001 A 
HETATM   31  C   UNL     1      26.186  48.577  49.449  1.00  0.00     0.000 A 
HETATM   32  C   UNL     1      25.967  49.652  48.591  1.00  0.00     0.001 A 
HETATM   33  C   UNL     1      24.702  49.859  48.040  1.00  0.00     0.009 A 
ENDBRANCH  27  28
ENDBRANCH   1  27
TORSDOF 7
ENDMDL
MODEL 6
REMARK VINA RESULT:      -8.0      4.491      7.199
REMARK  7 active torsions:
REMARK  status: ('A' for Active; 'I' for Inactive)
REMARK    1  A    between atoms: C_4  and  C_5 
REMARK    2  A    between atoms: C_5  and  N_6 
REMARK       I    between atoms: N_6  and  C_7 
REMARK    3  A    between atoms: N_6  and  C_22 
REMARK    4  A    between atoms: C_7  and  C_8 
REMARK    5  A    between atoms: C_13  and  C_14 
REMARK    6  A    between atoms: C_15  and  O_16 
REMARK    7  A    between atoms: C_22  and  C_23 
ROOT
HETATM    1  N   UNL     1      26.311  44.771  51.251  1.00  0.00    -0.343 N 
HETATM    2  C   UNL     1      25.632  45.297  50.149  1.00  0.00     0.235 C 
HETATM    3  O   UNL     1      26.235  45.542  49.100  1.00  0.00    -0.272 OA
ENDROOT
BRANCH   2   4
HETATM    4  C   UNL     1      24.142  45.539  50.252  1.00  0.00     0.195 C 
HETATM    5  C   UNL     1      23.601  46.692  49.465  1.00  0.00     0.247 C 
HETATM    6  O   UNL     1      24.130  47.767  49.243  1.00  0.00    -0.271 OA
HETATM    7  N   UNL     1      22.295  46.367  49.138  1.00  0.00    -0.290 N 
HETATM    8  N   UNL     1      21.932  45.063  49.500  1.00  0.00    -0.228 NA
HETATM    9  H   UNL     1      21.699  47.009  48.626  1.00  0.00     0.183 HD
HETATM   10  C   UNL     1      23.225  44.382  49.804  1.00  0.00     0.134 C 
HETATM   11  H   UNL     1      21.491  44.599  48.699  1.00  0.00     0.147 HD
BRANCH  10  12
HETATM   12  C   UNL     1      23.592  43.473  48.636  1.00  0.00    -0.004 A 
HETATM   13  C   UNL     1      24.240  42.237  48.824  1.00  0.00     0.073 A 
HETATM   14  C   UNL     1      24.513  41.385  47.750  1.00  0.00     0.037 A 
HETATM   15  C   UNL     1      24.125  41.731  46.461  1.00  0.00     0.003 A 
HETATM   16  C   UNL     1      23.458  42.929  46.248  1.00  0.00     0.001 A 
HETATM   17  C   UNL     1      23.185  43.782  47.323  1.00  0.00     0.012 A 
BRANCH  13  18
HETATM   18  O   UNL     1      24.628  41.746  50.040  1.00  0.00    -0.360 OA
HETATM   19  H   UNL     1      25.570  41.904  50.203  1.00  0.00     0.217 HD
ENDBRANCH  13  18
ENDBRANCH  10  12
ENDBRANCH   2   4
BRANCH   1  20
HETATM   20  C   UNL     1      27.756  44.556  51.126  1.00  0.00     0.164 C 
BRANCH  20  21
HETATM   21  C   UNL     1      28.194  43.199  51.634  1.00  0.00    -0.040 A 
HETATM   22  C   UNL     1      27.684  42.024  51.059  1.00  0.00     0.009 A 
HETATM   23  C   UNL     1      28.075  40.772  51.538  1.00  0.00     0.001 A 
HETATM   24  C   UNL     1      28.982  40.679  52.592  1.00  0.00     0.000 A 
HETATM   25  C   UNL     1      29.503  41.837  53.165  1.00  0.00     0.001 A 
HETATM   26  C   UNL     1      29.113  43.091  52.686  1.00  0.00     0.009 A 
ENDBRANCH  20  21
ENDBRANCH   1  20
BRANCH   1  27
HETATM   27  C   UNL     1      25.762  44.687  52.607  1.00  0.00     0.164 C 
BRANCH  27  28
HETATM   28  C   UNL     1      26.278  45.745  53.552  1.00  0.00    -0.040 A 
HETATM   29  C   UNL     1      25.748  47.043  53.560  1.00  0.00     0.009 A 
HETATM   30  C   UNL     1      26.210  47.993  54.472  1.00  0.00     0.001 A 
HETATM   31  C   UNL     1      27.200  47.656  55.393  1.00  0.00     0.000 A 
HETATM   32  C   UNL     1      27.725  46.366  55.407  1.00  0.00     0.001 A 
HETATM   33  C   UNL     1      27.263  45.414  54.497  1.00  0.00     0.009 A 
ENDBRANCH  27  28
ENDBRANCH   1  27
TORSDOF 7
ENDMDL
MODEL 7
REMARK VINA RESULT:      -8.0      6.746     10.383
REMARK  7 active torsions:
REMARK  status: ('A' for Active; 'I' for Inactive)
REMARK    1  A    between atoms: C_4  and  C_5 
REMARK    2  A    between atoms: C_5  and  N_6 
REMARK       I    between atoms: N_6  and  C_7 
REMARK    3  A    between atoms: N_6  and  C_22 
REMARK    4  A    between atoms: C_7  and  C_8 
REMARK    5  A    between atoms: C_13  and  C_14 
REMARK    6  A    between atoms: C_15  and  O_16 
REMARK    7  A    between atoms: C_22  and  C_23 
ROOT
HETATM    1  N   UNL     1      27.746  42.967  52.694  1.00  0.00    -0.343 N 
HETATM    2  C   UNL     1      27.435  43.665  53.863  1.00  0.00     0.235 C 
HETATM    3  O   UNL     1      27.148  43.058  54.898  1.00  0.00    -0.272 OA
ENDROOT
BRANCH   2   4
HETATM    4  C   UNL     1      27.479  45.178  53.847  1.00  0.00     0.195 C 
HETATM    5  C   UNL     1      26.389  45.881  54.594  1.00  0.00     0.247 C 
HETATM    6  O   UNL     1      25.221  45.551  54.710  1.00  0.00    -0.271 OA
HETATM    7  N   UNL     1      26.922  47.083  55.030  1.00  0.00    -0.290 N 
HETATM    8  N   UNL     1      28.293  47.214  54.778  1.00  0.00    -0.228 NA
HETATM    9  H   UNL     1      26.363  47.759  55.540  1.00  0.00     0.183 HD
HETATM   10  C   UNL     1      28.747  45.835  54.430  1.00  0.00     0.134 C 
HETATM   11  H   UNL     1      28.768  47.515  55.635  1.00  0.00     0.147 HD
BRANCH  10  12
HETATM   12  C   UNL     1      29.483  45.240  55.625  1.00  0.00    -0.004 A 
HETATM   13  C   UNL     1      30.364  44.149  55.495  1.00  0.00     0.073 A 
HETATM   14  C   UNL     1      31.080  43.655  56.589  1.00  0.00     0.037 A 
HETATM   15  C   UNL     1      30.956  44.250  57.839  1.00  0.00     0.003 A 
HETATM   16  C   UNL     1      30.118  45.346  57.992  1.00  0.00     0.001 A 
HETATM   17  C   UNL     1      29.401  45.840  56.898  1.00  0.00     0.012 A 
BRANCH  13  18
HETATM   18  O   UNL     1      30.624  43.503  54.318  1.00  0.00    -0.360 OA
HETATM   19  H   UNL     1      30.928  42.596  54.471  1.00  0.00     0.217 HD
ENDBRANCH  13  18
ENDBRANCH  10  12
ENDBRANCH   2   4
BRANCH   1  20
HETATM   20  C   UNL     1      27.686  41.502  52.736  1.00  0.00     0.164 C 
BRANCH  20  21
HETATM   21  C   UNL     1      27.500  40.883  51.366  1.00  0.00    -0.040 A 
HETATM   22  C   UNL     1      28.611  40.470  50.613  1.00  0.00     0.009 A 
HETATM   23  C   UNL     1      28.442  39.914  49.344  1.00  0.00     0.001 A 
HETATM   24  C   UNL     1      27.161  39.760  48.815  1.00  0.00     0.000 A 
HETATM   25  C   UNL     1      26.050  40.156  49.555  1.00  0.00     0.001 A 
HETATM   26  C   UNL     1      26.218  40.712  50.826  1.00  0.00     0.009 A 
ENDBRANCH  20  21
ENDBRANCH   1  20
BRANCH   1  27
HETATM   27  C   UNL     1      27.845  43.570  51.362  1.00  0.00     0.164 C 
BRANCH  27  28
HETATM   28  C   UNL     1      26.618  44.342  50.939  1.00  0.00    -0.040 A 
HETATM   29  C   UNL     1      25.329  43.931  51.307  1.00  0.00     0.009 A 
HETATM   30  C   UNL     1      24.212  44.684  50.942  1.00  0.00     0.001 A 
HETATM   31  C   UNL     1      24.369  45.861  50.213  1.00  0.00     0.000 A 
HETATM   32  C   UNL     1      25.644  46.290  49.853  1.00  0.00     0.001 A 
HETATM   33  C   UNL     1      26.763  45.539  50.219  1.00  0.00     0.009 A 
ENDBRANCH  27  28
ENDBRANCH   1  27
TORSDOF 7
ENDMDL
MODEL 8
REMARK VINA RESULT:      -8.0      2.071      3.113
REMARK  7 active torsions:
REMARK  status: ('A' for Active; 'I' for Inactive)
REMARK    1  A    between atoms: C_4  and  C_5 
REMARK    2  A    between atoms: C_5  and  N_6 
REMARK       I    between atoms: N_6  and  C_7 
REMARK    3  A    between atoms: N_6  and  C_22 
REMARK    4  A    between atoms: C_7  and  C_8 
REMARK    5  A    between atoms: C_13  and  C_14 
REMARK    6  A    between atoms: C_15  and  O_16 
REMARK    7  A    between atoms: C_22  and  C_23 
ROOT
HETATM    1  N   UNL     1      18.409  49.512  47.631  1.00  0.00    -0.343 N 
HETATM    2  C   UNL     1      18.340  48.482  46.691  1.00  0.00     0.235 C 
HETATM    3  O   UNL     1      18.964  48.559  45.629  1.00  0.00    -0.272 OA
ENDROOT
BRANCH   2   4
HETATM    4  C   UNL     1      17.508  47.257  47.004  1.00  0.00     0.195 C 
HETATM    5  C   UNL     1      17.003  46.479  45.829  1.00  0.00     0.247 C 
HETATM    6  O   UNL     1      16.635  46.903  44.748  1.00  0.00    -0.271 OA
HETATM    7  N   UNL     1      16.893  45.163  46.246  1.00  0.00    -0.290 N 
HETATM    8  N   UNL     1      17.396  44.937  47.534  1.00  0.00    -0.228 NA
HETATM    9  H   UNL     1      16.538  44.438  45.631  1.00  0.00     0.183 HD
HETATM   10  C   UNL     1      18.190  46.161  47.850  1.00  0.00     0.134 C 
HETATM   11  H   UNL     1      18.025  44.127  47.515  1.00  0.00     0.147 HD
BRANCH  10  12
HETATM   12  C   UNL     1      19.673  45.840  47.704  1.00  0.00    -0.004 A 
HETATM   13  C   UNL     1      20.659  46.492  48.469  1.00  0.00     0.073 A 
HETATM   14  C   UNL     1      22.009  46.143  48.370  1.00  0.00     0.037 A 
HETATM   15  C   UNL     1      22.411  45.116  47.522  1.00  0.00     0.003 A 
HETATM   16  C   UNL     1      21.458  44.436  46.777  1.00  0.00     0.001 A 
HETATM   17  C   UNL     1      20.107  44.785  46.876  1.00  0.00     0.012 A 
BRANCH  13  18
HETATM   18  O   UNL     1      20.402  47.479  49.380  1.00  0.00    -0.360 OA
HETATM   19  H   UNL     1      21.190  48.017  49.551  1.00  0.00     0.217 HD
ENDBRANCH  13  18
ENDBRANCH  10  12
ENDBRANCH   2   4
BRANCH   1  20
HETATM   20  C   UNL     1      19.215  50.691  47.296  1.00  0.00     0.164 C 
BRANCH  20  21
HETATM   21  C   UNL     1      20.586  50.666  47.938  1.00  0.00    -0.040 A 
HETATM   22  C   UNL     1      20.763  51.105  49.259  1.00  0.00     0.009 A 
HETATM   23  C   UNL     1      22.030  51.096  49.846  1.00  0.00     0.001 A 
HETATM   24  C   UNL     1      23.133  50.646  49.121  1.00  0.00     0.000 A 
HETATM   25  C   UNL     1      22.969  50.199  47.812  1.00  0.00     0.001 A 
HETATM   26  C   UNL     1      21.701  50.206  47.224  1.00  0.00     0.009 A 
ENDBRANCH  20  21
ENDBRANCH   1  20
BRANCH   1  27
HETATM   27  C   UNL     1      17.522  49.646  48.790  1.00  0.00     0.164 C 
BRANCH  27  28
HETATM   28  C   UNL     1      16.806  50.972  48.873  1.00  0.00    -0.040 A 
HETATM   29  C   UNL     1      15.787  51.313  47.972  1.00  0.00     0.009 A 
HETATM   30  C   UNL     1      15.107  52.527  48.094  1.00  0.00     0.001 A 
HETATM   31  C   UNL     1      15.432  53.410  49.122  1.00  0.00     0.000 A 
HETATM   32  C   UNL     1      16.431  53.078  50.033  1.00  0.00     0.001 A 
HETATM   33  C   UNL     1      17.110  51.864  49.914  1.00  0.00     0.009 A 
ENDBRANCH  27  28
ENDBRANCH   1  27
TORSDOF 7
ENDMDL
MODEL 9
REMARK VINA RESULT:      -8.0      3.547      5.378
REMARK  7 active torsions:
REMARK  status: ('A' for Active; 'I' for Inactive)
REMARK    1  A    between atoms: C_4  and  C_5 
REMARK    2  A    between atoms: C_5  and  N_6 
REMARK       I    between atoms: N_6  and  C_7 
REMARK    3  A    between atoms: N_6  and  C_22 
REMARK    4  A    between atoms: C_7  and  C_8 
REMARK    5  A    between atoms: C_13  and  C_14 
REMARK    6  A    between atoms: C_15  and  O_16 
REMARK    7  A    between atoms: C_22  and  C_23 
ROOT
HETATM    1  N   UNL     1      17.190  51.682  48.317  1.00  0.00    -0.343 N 
HETATM    2  C   UNL     1      16.981  50.973  47.131  1.00  0.00     0.235 C 
HETATM    3  O   UNL     1      17.784  51.061  46.198  1.00  0.00    -0.272 OA
ENDROOT
BRANCH   2   4
HETATM    4  C   UNL     1      15.767  50.076  47.017  1.00  0.00     0.195 C 
HETATM    5  C   UNL     1      15.449  49.561  45.648  1.00  0.00     0.247 C 
HETATM    6  O   UNL     1      15.583  50.131  44.579  1.00  0.00    -0.271 OA
HETATM    7  N   UNL     1      14.827  48.336  45.823  1.00  0.00    -0.290 N 
HETATM    8  N   UNL     1      14.808  47.900  47.154  1.00  0.00    -0.228 NA
HETATM    9  H   UNL     1      14.484  47.796  45.035  1.00  0.00     0.183 HD
HETATM   10  C   UNL     1      15.789  48.780  47.854  1.00  0.00     0.134 C 
HETATM   11  H   UNL     1      15.139  46.930  47.197  1.00  0.00     0.147 HD
BRANCH  10  12
HETATM   12  C   UNL     1      17.077  47.998  48.089  1.00  0.00    -0.004 A 
HETATM   13  C   UNL     1      17.425  46.878  47.310  1.00  0.00     0.073 A 
HETATM   14  C   UNL     1      18.639  46.209  47.495  1.00  0.00     0.037 A 
HETATM   15  C   UNL     1      19.550  46.654  48.446  1.00  0.00     0.003 A 
HETATM   16  C   UNL     1      19.248  47.773  49.209  1.00  0.00     0.001 A 
HETATM   17  C   UNL     1      18.033  48.442  49.024  1.00  0.00     0.012 A 
BRANCH  13  18
HETATM   18  O   UNL     1      16.652  46.365  46.305  1.00  0.00    -0.360 OA
HETATM   19  H   UNL     1      15.730  46.653  46.385  1.00  0.00     0.217 HD
ENDBRANCH  13  18
ENDBRANCH  10  12
ENDBRANCH   2   4
BRANCH   1  20
HETATM   20  C   UNL     1      18.369  52.551  48.396  1.00  0.00     0.164 C 
BRANCH  20  21
HETATM   21  C   UNL     1      19.608  51.817  48.865  1.00  0.00    -0.040 A 
HETATM   22  C   UNL     1      19.781  51.507  50.223  1.00  0.00     0.009 A 
HETATM   23  C   UNL     1      20.931  50.845  50.658  1.00  0.00     0.001 A 
HETATM   24  C   UNL     1      21.917  50.482  49.742  1.00  0.00     0.000 A 
HETATM   25  C   UNL     1      21.753  50.775  48.391  1.00  0.00     0.001 A 
HETATM   26  C   UNL     1      20.602  51.437  47.953  1.00  0.00     0.009 A 
ENDBRANCH  20  21
ENDBRANCH   1  20
BRANCH   1  27
HETATM   27  C   UNL     1      16.189  51.856  49.373  1.00  0.00     0.164 C 
BRANCH  27  28
HETATM   28  C   UNL     1      15.485  53.191  49.346  1.00  0.00    -0.040 A 
HETATM   29  C   UNL     1      15.680  54.143  50.357  1.00  0.00     0.009 A 
HETATM   30  C   UNL     1      15.053  55.389  50.290  1.00  0.00     0.001 A 
HETATM   31  C   UNL     1      14.232  55.701  49.208  1.00  0.00     0.000 A 
HETATM   32  C   UNL     1      14.041  54.771  48.190  1.00  0.00     0.001 A 
HETATM   33  C   UNL     1      14.669  53.526  48.254  1.00  0.00     0.009 A 
ENDBRANCH  27  28
ENDBRANCH   1  27
TORSDOF 7
ENDMDL
MODEL 10
REMARK VINA RESULT:      -8.0     23.319     24.894
REMARK  7 active torsions:
REMARK  status: ('A' for Active; 'I' for Inactive)
REMARK    1  A    between atoms: C_4  and  C_5 
REMARK    2  A    between atoms: C_5  and  N_6 
REMARK       I    between atoms: N_6  and  C_7 
REMARK    3  A    between atoms: N_6  and  C_22 
REMARK    4  A    between atoms: C_7  and  C_8 
REMARK    5  A    between atoms: C_13  and  C_14 
REMARK    6  A    between atoms: C_15  and  O_16 
REMARK    7  A    between atoms: C_22  and  C_23 
ROOT
HETATM    1  N   UNL     1      38.037  45.656  65.833  1.00  0.00    -0.343 N 
HETATM    2  C   UNL     1      39.340  45.244  66.125  1.00  0.00     0.235 C 
HETATM    3  O   UNL     1      39.567  44.530  67.105  1.00  0.00    -0.272 OA
ENDROOT
BRANCH   2   4
HETATM    4  C   UNL     1      40.466  45.668  65.207  1.00  0.00     0.195 C 
HETATM    5  C   UNL     1      41.853  45.536  65.754  1.00  0.00     0.247 C 
HETATM    6  O   UNL     1      42.231  45.712  66.899  1.00  0.00    -0.271 OA
HETATM    7  N   UNL     1      42.684  45.307  64.670  1.00  0.00    -0.290 N 
HETATM    8  N   UNL     1      41.997  45.134  63.462  1.00  0.00    -0.228 NA
HETATM    9  H   UNL     1      43.688  45.213  64.779  1.00  0.00     0.183 HD
HETATM   10  C   UNL     1      40.575  44.918  63.862  1.00  0.00     0.134 C 
HETATM   11  H   UNL     1      42.343  44.290  62.993  1.00  0.00     0.147 HD
BRANCH  10  12
HETATM   12  C   UNL     1      40.246  43.434  63.741  1.00  0.00    -0.004 A 
HETATM   13  C   UNL     1      40.796  42.472  64.610  1.00  0.00     0.073 A 
HETATM   14  C   UNL     1      40.435  41.124  64.528  1.00  0.00     0.037 A 
HETATM   15  C   UNL     1      39.498  40.701  63.592  1.00  0.00     0.003 A 
HETATM   16  C   UNL     1      38.917  41.632  62.741  1.00  0.00     0.001 A 
HETATM   17  C   UNL     1      39.277  42.981  62.823  1.00  0.00     0.012 A 
BRANCH  13  18
HETATM   18  O   UNL     1      41.685  42.753  65.611  1.00  0.00    -0.360 OA
HETATM   19  H   UNL     1      42.545  43.022  65.255  1.00  0.00     0.217 HD
ENDBRANCH  13  18
ENDBRANCH  10  12
ENDBRANCH   2   4
BRANCH   1  20
HETATM   20  C   UNL     1      36.968  45.240  66.746  1.00  0.00     0.164 C 
BRANCH  20  21
HETATM   21  C   UNL     1      36.230  44.009  66.262  1.00  0.00    -0.040 A 
HETATM   22  C   UNL     1      34.858  43.854  66.516  1.00  0.00     0.009 A 
HETATM   23  C   UNL     1      34.181  42.713  66.083  1.00  0.00     0.001 A 
HETATM   24  C   UNL     1      34.864  41.716  65.389  1.00  0.00     0.000 A 
HETATM   25  C   UNL     1      36.224  41.861  65.122  1.00  0.00     0.001 A 
HETATM   26  C   UNL     1      36.903  43.004  65.553  1.00  0.00     0.009 A 
ENDBRANCH  20  21
ENDBRANCH   1  20
BRANCH   1  27
HETATM   27  C   UNL     1      37.689  46.700  64.866  1.00  0.00     0.164 C 
BRANCH  27  28
HETATM   28  C   UNL     1      37.946  48.106  65.351  1.00  0.00    -0.040 A 
HETATM   29  C   UNL     1      37.152  48.696  66.345  1.00  0.00     0.009 A 
HETATM   30  C   UNL     1      37.434  49.982  66.810  1.00  0.00     0.001 A 
HETATM   31  C   UNL     1      38.518  50.690  66.295  1.00  0.00     0.000 A 
HETATM   32  C   UNL     1      39.324  50.111  65.318  1.00  0.00     0.001 A 
HETATM   33  C   UNL     1      39.045  48.825  64.853  1.00  0.00     0.009 A 
ENDBRANCH  27  28
ENDBRANCH   1  27
TORSDOF 7
ENDMDL
