MODEL 1
REMARK VINA RESULT:      -9.0      0.000      0.000
REMARK  8 active torsions:
REMARK  status: ('A' for Active; 'I' for Inactive)
REMARK    1  A    between atoms: C_2  and  O_3 
REMARK    2  A    between atoms: O_3  and  C_4 
REMARK    3  A    between atoms: C_5  and  N_6 
REMARK       I    between atoms: N_6  and  C_7 
REMARK    4  A    between atoms: C_7  and  C_8 
REMARK    5  A    between atoms: C_8  and  C_9 
REMARK    6  A    between atoms: C_9  and  S_10 
REMARK    7  A    between atoms: S_10  and  C_11 
REMARK    8  A    between atoms: N_12  and  C_13 
ROOT
HETATM    1  C   UNL     1      26.121  43.316  51.875  1.00  0.00     0.177 A 
HETATM    2  N   UNL     1      27.152  42.384  51.615  1.00  0.00    -0.276 N 
HETATM    3  C   UNL     1      28.305  42.398  52.482  1.00  0.00     0.124 A 
HETATM    4  N   UNL     1      29.299  41.536  52.382  1.00  0.00    -0.384 N 
HETATM    5  H   UNL     1      30.079  41.564  53.023  1.00  0.00     0.157 HD
HETATM    6  H   UNL     1      29.280  40.817  51.671  1.00  0.00     0.157 HD
HETATM    7  C   UNL     1      28.309  43.385  53.515  1.00  0.00     0.081 A 
HETATM    8  C   UNL     1      27.199  44.210  53.652  1.00  0.00     0.187 A 
HETATM    9  N   UNL     1      27.330  45.084  54.639  1.00  0.00    -0.153 NA
HETATM   10  N   UNL     1      28.548  44.805  55.141  1.00  0.00    -0.280 N 
HETATM   11  H   UNL     1      28.878  45.362  55.924  1.00  0.00     0.189 HD
HETATM   12  C   UNL     1      29.196  43.773  54.492  1.00  0.00     0.042 A 
HETATM   13  C   UNL     1      30.547  43.330  54.899  1.00  0.00     0.071 C 
HETATM   14  N   UNL     1      26.071  44.183  52.845  1.00  0.00    -0.202 NA
ENDROOT
BRANCH   1  15
HETATM   15  S   UNL     1      24.711  43.364  50.784  1.00  0.00    -0.091 SA
BRANCH  15  16
HETATM   16  C   UNL     1      25.219  44.600  49.541  1.00  0.00     0.091 C 
BRANCH  16  17
HETATM   17  C   UNL     1      26.040  45.766  50.080  1.00  0.00     0.113 C 
BRANCH  17  18
HETATM   18  C   UNL     1      25.216  47.024  50.241  1.00  0.00     0.223 C 
HETATM   19  N   UNL     1      24.568  47.394  49.076  1.00  0.00    -0.325 N 
HETATM   20  H   UNL     1      24.322  46.643  48.445  1.00  0.00     0.169 HD
HETATM   21  O   UNL     1      25.131  47.576  51.336  1.00  0.00    -0.273 OA
BRANCH  19  22
HETATM   22  C   UNL     1      23.884  48.616  48.885  1.00  0.00     0.068 A 
HETATM   23  C   UNL     1      24.477  49.771  48.350  1.00  0.00     0.095 A 
HETATM   24  C   UNL     1      23.711  50.932  48.178  1.00  0.00     0.039 A 
HETATM   25  C   UNL     1      22.365  50.951  48.547  1.00  0.00     0.003 A 
HETATM   26  C   UNL     1      21.767  49.801  49.052  1.00  0.00     0.002 A 
HETATM   27  C   UNL     1      22.519  48.633  49.204  1.00  0.00     0.032 A 
BRANCH  23  28
HETATM   28  O   UNL     1      25.735  49.695  47.806  1.00  0.00    -0.349 OA
BRANCH  28  29
HETATM   29  C   UNL     1      26.766  50.228  48.642  1.00  0.00     0.171 C 
HETATM   30  C   UNL     1      27.748  49.125  48.993  1.00  0.00     0.034 C 
ENDBRANCH  28  29
ENDBRANCH  23  28
ENDBRANCH  19  22
ENDBRANCH  17  18
ENDBRANCH  16  17
ENDBRANCH  15  16
ENDBRANCH   1  15
BRANCH   2  31
HETATM   31  C   UNL     1      27.058  41.426  50.560  1.00  0.00     0.044 A 
HETATM   32  C   UNL     1      27.566  41.710  49.284  1.00  0.00     0.054 A 
HETATM   33  C   UNL     1      27.403  40.791  48.248  1.00  0.00     0.036 A 
HETATM   34 CL   UNL     1      28.029  41.149  46.685  1.00  0.00    -0.084 Cl
HETATM   35  C   UNL     1      26.724  39.593  48.462  1.00  0.00     0.024 A 
HETATM   36  C   UNL     1      26.210  39.305  49.725  1.00  0.00     0.004 A 
HETATM   37  C   UNL     1      26.375  40.217  50.770  1.00  0.00     0.030 A 
ENDBRANCH   2  31
TORSDOF 8
ENDMDL
MODEL 2
REMARK VINA RESULT:      -8.8      2.537      5.001
REMARK  8 active torsions:
REMARK  status: ('A' for Active; 'I' for Inactive)
REMARK    1  A    between atoms: C_2  and  O_3 
REMARK    2  A    between atoms: O_3  and  C_4 
REMARK    3  A    between atoms: C_5  and  N_6 
REMARK       I    between atoms: N_6  and  C_7 
REMARK    4  A    between atoms: C_7  and  C_8 
REMARK    5  A    between atoms: C_8  and  C_9 
REMARK    6  A    between atoms: C_9  and  S_10 
REMARK    7  A    between atoms: S_10  and  C_11 
REMARK    8  A    between atoms: N_12  and  C_13 
ROOT
HETATM    1  C   UNL     1      27.471  42.631  50.107  1.00  0.00     0.177 A 
HETATM    2  N   UNL     1      27.903  42.027  51.311  1.00  0.00    -0.276 N 
HETATM    3  C   UNL     1      28.333  40.650  51.256  1.00  0.00     0.124 A 
HETATM    4  N   UNL     1      28.819  39.999  52.295  1.00  0.00    -0.384 N 
HETATM    5  H   UNL     1      29.130  39.043  52.212  1.00  0.00     0.157 HD
HETATM    6  H   UNL     1      28.907  40.463  53.191  1.00  0.00     0.157 HD
HETATM    7  C   UNL     1      28.250  40.012  49.980  1.00  0.00     0.081 A 
HETATM    8  C   UNL     1      27.829  40.759  48.888  1.00  0.00     0.187 A 
HETATM    9  N   UNL     1      27.789  40.050  47.769  1.00  0.00    -0.153 NA
HETATM   10  N   UNL     1      28.199  38.829  48.160  1.00  0.00    -0.280 N 
HETATM   11  H   UNL     1      28.248  38.097  47.457  1.00  0.00     0.189 HD
HETATM   12  C   UNL     1      28.495  38.744  49.505  1.00  0.00     0.042 A 
HETATM   13  C   UNL     1      28.953  37.479  50.119  1.00  0.00     0.071 C 
HETATM   14  N   UNL     1      27.445  42.092  48.922  1.00  0.00    -0.202 NA
ENDROOT
BRANCH   1  15
HETATM   15  S   UNL     1      26.877  44.312  50.154  1.00  0.00    -0.091 SA
BRANCH  15  16
HETATM   16  C   UNL     1      25.127  44.095  50.622  1.00  0.00     0.091 C 
BRANCH  16  17
HETATM   17  C   UNL     1      24.604  45.081  51.662  1.00  0.00     0.113 C 
BRANCH  17  18
HETATM   18  C   UNL     1      25.010  46.505  51.359  1.00  0.00     0.223 C 
HETATM   19  N   UNL     1      25.005  46.790  50.005  1.00  0.00    -0.325 N 
HETATM   20  H   UNL     1      24.348  46.265  49.442  1.00  0.00     0.169 HD
HETATM   21  O   UNL     1      25.252  47.291  52.272  1.00  0.00    -0.273 OA
BRANCH  19  22
HETATM   22  C   UNL     1      25.514  47.973  49.425  1.00  0.00     0.068 A 
HETATM   23  C   UNL     1      24.711  48.988  48.877  1.00  0.00     0.095 A 
HETATM   24  C   UNL     1      25.308  50.137  48.342  1.00  0.00     0.039 A 
HETATM   25  C   UNL     1      26.697  50.276  48.340  1.00  0.00     0.003 A 
HETATM   26  C   UNL     1      27.495  49.286  48.907  1.00  0.00     0.002 A 
HETATM   27  C   UNL     1      26.905  48.148  49.463  1.00  0.00     0.032 A 
BRANCH  23  28
HETATM   28  O   UNL     1      23.351  48.944  49.058  1.00  0.00    -0.349 OA
BRANCH  28  29
HETATM   29  C   UNL     1      22.737  50.229  49.188  1.00  0.00     0.171 C 
HETATM   30  C   UNL     1      21.655  50.378  48.134  1.00  0.00     0.034 C 
ENDBRANCH  28  29
ENDBRANCH  23  28
ENDBRANCH  19  22
ENDBRANCH  17  18
ENDBRANCH  16  17
ENDBRANCH  15  16
ENDBRANCH   1  15
BRANCH   2  31
HETATM   31  C   UNL     1      27.959  42.748  52.542  1.00  0.00     0.044 A 
HETATM   32  C   UNL     1      26.851  42.790  53.402  1.00  0.00     0.054 A 
HETATM   33  C   UNL     1      26.900  43.556  54.565  1.00  0.00     0.036 A 
HETATM   34 CL   UNL     1      25.535  43.601  55.612  1.00  0.00    -0.084 Cl
HETATM   35  C   UNL     1      28.036  44.298  54.880  1.00  0.00     0.024 A 
HETATM   36  C   UNL     1      29.139  44.269  54.028  1.00  0.00     0.004 A 
HETATM   37  C   UNL     1      29.102  43.498  52.864  1.00  0.00     0.030 A 
ENDBRANCH   2  31
TORSDOF 8
ENDMDL
MODEL 3
REMARK VINA RESULT:      -8.8      3.009      8.094
REMARK  8 active torsions:
REMARK  status: ('A' for Active; 'I' for Inactive)
REMARK    1  A    between atoms: C_2  and  O_3 
REMARK    2  A    between atoms: O_3  and  C_4 
REMARK    3  A    between atoms: C_5  and  N_6 
REMARK       I    between atoms: N_6  and  C_7 
REMARK    4  A    between atoms: C_7  and  C_8 
REMARK    5  A    between atoms: C_8  and  C_9 
REMARK    6  A    between atoms: C_9  and  S_10 
REMARK    7  A    between atoms: S_10  and  C_11 
REMARK    8  A    between atoms: N_12  and  C_13 
ROOT
HETATM    1  C   UNL     1      24.471  46.966  49.618  1.00  0.00     0.177 A 
HETATM    2  N   UNL     1      23.339  46.283  49.115  1.00  0.00    -0.276 N 
HETATM    3  C   UNL     1      22.203  47.076  48.706  1.00  0.00     0.124 A 
HETATM    4  N   UNL     1      21.118  46.562  48.161  1.00  0.00    -0.384 N 
HETATM    5  H   UNL     1      20.353  47.151  47.867  1.00  0.00     0.157 HD
HETATM    6  H   UNL     1      21.049  45.564  48.008  1.00  0.00     0.157 HD
HETATM    7  C   UNL     1      22.322  48.489  48.881  1.00  0.00     0.081 A 
HETATM    8  C   UNL     1      23.519  49.002  49.366  1.00  0.00     0.187 A 
HETATM    9  N   UNL     1      23.497  50.321  49.488  1.00  0.00    -0.153 NA
HETATM   10  N   UNL     1      22.262  50.652  49.068  1.00  0.00    -0.280 N 
HETATM   11  H   UNL     1      22.005  51.635  49.075  1.00  0.00     0.189 HD
HETATM   12  C   UNL     1      21.495  49.570  48.684  1.00  0.00     0.042 A 
HETATM   13  C   UNL     1      20.106  49.737  48.202  1.00  0.00     0.071 C 
HETATM   14  N   UNL     1      24.629  48.253  49.730  1.00  0.00    -0.202 NA
ENDROOT
BRANCH   1  15
HETATM   15  S   UNL     1      25.866  46.010  50.188  1.00  0.00    -0.091 SA
BRANCH  15  16
HETATM   16  C   UNL     1      25.667  46.069  52.000  1.00  0.00     0.091 C 
BRANCH  16  17
HETATM   17  C   UNL     1      25.326  44.738  52.662  1.00  0.00     0.113 C 
BRANCH  17  18
HETATM   18  C   UNL     1      26.263  44.405  53.800  1.00  0.00     0.223 C 
HETATM   19  N   UNL     1      27.528  44.940  53.629  1.00  0.00    -0.325 N 
HETATM   20  H   UNL     1      27.581  45.798  53.096  1.00  0.00     0.169 HD
HETATM   21  O   UNL     1      25.861  43.770  54.772  1.00  0.00    -0.273 OA
BRANCH  19  22
HETATM   22  C   UNL     1      28.649  44.640  54.435  1.00  0.00     0.068 A 
HETATM   23  C   UNL     1      29.547  43.592  54.173  1.00  0.00     0.095 A 
HETATM   24  C   UNL     1      30.643  43.384  55.020  1.00  0.00     0.039 A 
HETATM   25  C   UNL     1      30.843  44.205  56.131  1.00  0.00     0.003 A 
HETATM   26  C   UNL     1      29.971  45.261  56.380  1.00  0.00     0.002 A 
HETATM   27  C   UNL     1      28.890  45.489  55.525  1.00  0.00     0.032 A 
BRANCH  23  28
HETATM   28  O   UNL     1      29.465  42.916  52.981  1.00  0.00    -0.349 OA
BRANCH  28  29
HETATM   29  C   UNL     1      29.051  41.553  53.109  1.00  0.00     0.171 C 
HETATM   30  C   UNL     1      27.755  41.347  52.345  1.00  0.00     0.034 C 
ENDBRANCH  28  29
ENDBRANCH  23  28
ENDBRANCH  19  22
ENDBRANCH  17  18
ENDBRANCH  16  17
ENDBRANCH  15  16
ENDBRANCH   1  15
BRANCH   2  31
HETATM   31  C   UNL     1      23.313  44.864  48.969  1.00  0.00     0.044 A 
HETATM   32  C   UNL     1      23.618  44.262  47.739  1.00  0.00     0.054 A 
HETATM   33  C   UNL     1      23.520  42.878  47.596  1.00  0.00     0.036 A 
HETATM   34 CL   UNL     1      23.895  42.150  46.082  1.00  0.00    -0.084 Cl
HETATM   35  C   UNL     1      23.107  42.082  48.661  1.00  0.00     0.024 A 
HETATM   36  C   UNL     1      22.795  42.672  49.886  1.00  0.00     0.004 A 
HETATM   37  C   UNL     1      22.897  44.056  50.040  1.00  0.00     0.030 A 
ENDBRANCH   2  31
TORSDOF 8
ENDMDL
MODEL 4
REMARK VINA RESULT:      -8.7      1.679      2.154
REMARK  8 active torsions:
REMARK  status: ('A' for Active; 'I' for Inactive)
REMARK    1  A    between atoms: C_2  and  O_3 
REMARK    2  A    between atoms: O_3  and  C_4 
REMARK    3  A    between atoms: C_5  and  N_6 
REMARK       I    between atoms: N_6  and  C_7 
REMARK    4  A    between atoms: C_7  and  C_8 
REMARK    5  A    between atoms: C_8  and  C_9 
REMARK    6  A    between atoms: C_9  and  S_10 
REMARK    7  A    between atoms: S_10  and  C_11 
REMARK    8  A    between atoms: N_12  and  C_13 
ROOT
HETATM    1  C   UNL     1      25.197  43.244  51.410  1.00  0.00     0.177 A 
HETATM    2  N   UNL     1      26.424  42.561  51.234  1.00  0.00    -0.276 N 
HETATM    3  C   UNL     1      27.477  42.816  52.188  1.00  0.00     0.124 A 
HETATM    4  N   UNL     1      28.639  42.193  52.169  1.00  0.00    -0.384 N 
HETATM    5  H   UNL     1      29.343  42.382  52.867  1.00  0.00     0.157 HD
HETATM    6  H   UNL     1      28.831  41.494  51.463  1.00  0.00     0.157 HD
HETATM    7  C   UNL     1      27.187  43.769  53.212  1.00  0.00     0.081 A 
HETATM    8  C   UNL     1      25.917  44.331  53.258  1.00  0.00     0.187 A 
HETATM    9  N   UNL     1      25.780  45.202  54.247  1.00  0.00    -0.153 NA
HETATM   10  N   UNL     1      26.987  45.189  54.843  1.00  0.00    -0.280 N 
HETATM   11  H   UNL     1      27.127  45.796  55.646  1.00  0.00     0.189 HD
HETATM   12  C   UNL     1      27.892  44.330  54.251  1.00  0.00     0.042 A 
HETATM   13  C   UNL     1      29.272  44.187  54.763  1.00  0.00     0.071 C 
HETATM   14  N   UNL     1      24.886  44.069  52.368  1.00  0.00    -0.202 NA
ENDROOT
BRANCH   1  15
HETATM   15  S   UNL     1      23.898  42.996  50.213  1.00  0.00    -0.091 SA
BRANCH  15  16
HETATM   16  C   UNL     1      23.778  44.635  49.420  1.00  0.00     0.091 C 
BRANCH  16  17
HETATM   17  C   UNL     1      22.503  44.879  48.621  1.00  0.00     0.113 C 
BRANCH  17  18
HETATM   18  C   UNL     1      22.388  46.310  48.144  1.00  0.00     0.223 C 
HETATM   19  N   UNL     1      22.395  47.225  49.182  1.00  0.00    -0.325 N 
HETATM   20  H   UNL     1      22.905  46.952  50.012  1.00  0.00     0.169 HD
HETATM   21  O   UNL     1      22.355  46.564  46.942  1.00  0.00    -0.273 OA
BRANCH  19  22
HETATM   22  C   UNL     1      22.119  48.603  49.046  1.00  0.00     0.068 A 
HETATM   23  C   UNL     1      23.092  49.613  49.146  1.00  0.00     0.095 A 
HETATM   24  C   UNL     1      22.724  50.954  48.976  1.00  0.00     0.039 A 
HETATM   25  C   UNL     1      21.395  51.295  48.719  1.00  0.00     0.003 A 
HETATM   26  C   UNL     1      20.434  50.297  48.592  1.00  0.00     0.002 A 
HETATM   27  C   UNL     1      20.798  48.956  48.737  1.00  0.00     0.032 A 
BRANCH  23  28
HETATM   28  O   UNL     1      24.419  49.268  49.199  1.00  0.00    -0.349 OA
BRANCH  28  29
HETATM   29  C   UNL     1      25.197  49.774  48.110  1.00  0.00     0.171 C 
HETATM   30  C   UNL     1      26.662  49.805  48.511  1.00  0.00     0.034 C 
ENDBRANCH  28  29
ENDBRANCH  23  28
ENDBRANCH  19  22
ENDBRANCH  17  18
ENDBRANCH  16  17
ENDBRANCH  15  16
ENDBRANCH   1  15
BRANCH   2  31
HETATM   31  C   UNL     1      26.621  41.617  50.182  1.00  0.00     0.044 A 
HETATM   32  C   UNL     1      26.468  40.242  50.411  1.00  0.00     0.054 A 
HETATM   33  C   UNL     1      26.732  39.330  49.390  1.00  0.00     0.036 A 
HETATM   34 CL   UNL     1      26.543  37.645  49.682  1.00  0.00    -0.084 Cl
HETATM   35  C   UNL     1      27.164  39.770  48.140  1.00  0.00     0.024 A 
HETATM   36  C   UNL     1      27.326  41.135  47.904  1.00  0.00     0.004 A 
HETATM   37  C   UNL     1      27.056  42.055  48.920  1.00  0.00     0.030 A 
ENDBRANCH   2  31
TORSDOF 8
ENDMDL
MODEL 5
REMARK VINA RESULT:      -8.6      2.375      4.548
REMARK  8 active torsions:
REMARK  status: ('A' for Active; 'I' for Inactive)
REMARK    1  A    between atoms: C_2  and  O_3 
REMARK    2  A    between atoms: O_3  and  C_4 
REMARK    3  A    between atoms: C_5  and  N_6 
REMARK       I    between atoms: N_6  and  C_7 
REMARK    4  A    between atoms: C_7  and  C_8 
REMARK    5  A    between atoms: C_8  and  C_9 
REMARK    6  A    between atoms: C_9  and  S_10 
REMARK    7  A    between atoms: S_10  and  C_11 
REMARK    8  A    between atoms: N_12  and  C_13 
ROOT
HETATM    1  C   UNL     1      27.129  43.401  50.259  1.00  0.00     0.177 A 
HETATM    2  N   UNL     1      27.573  42.638  51.365  1.00  0.00    -0.276 N 
HETATM    3  C   UNL     1      27.853  41.239  51.147  1.00  0.00     0.124 A 
HETATM    4  N   UNL     1      28.333  40.441  52.081  1.00  0.00    -0.384 N 
HETATM    5  H   UNL     1      28.538  39.472  51.884  1.00  0.00     0.157 HD
HETATM    6  H   UNL     1      28.527  40.799  53.007  1.00  0.00     0.157 HD
HETATM    7  C   UNL     1      27.622  40.745  49.826  1.00  0.00     0.081 A 
HETATM    8  C   UNL     1      27.211  41.638  48.844  1.00  0.00     0.187 A 
HETATM    9  N   UNL     1      27.026  41.055  47.668  1.00  0.00    -0.153 NA
HETATM   10  N   UNL     1      27.331  39.766  47.909  1.00  0.00    -0.280 N 
HETATM   11  H   UNL     1      27.259  39.108  47.138  1.00  0.00     0.189 HD
HETATM   12  C   UNL     1      27.703  39.515  49.215  1.00  0.00     0.042 A 
HETATM   13  C   UNL     1      28.065  38.155  49.670  1.00  0.00     0.071 C 
HETATM   14  N   UNL     1      26.971  42.991  49.034  1.00  0.00    -0.202 NA
ENDROOT
BRANCH   1  15
HETATM   15  S   UNL     1      26.717  45.118  50.511  1.00  0.00    -0.091 SA
BRANCH  15  16
HETATM   16  C   UNL     1      24.894  45.077  50.579  1.00  0.00     0.091 C 
BRANCH  16  17
HETATM   17  C   UNL     1      24.184  45.697  49.380  1.00  0.00     0.113 C 
BRANCH  17  18
HETATM   18  C   UNL     1      23.733  47.115  49.650  1.00  0.00     0.223 C 
HETATM   19  N   UNL     1      22.597  47.462  48.940  1.00  0.00    -0.325 N 
HETATM   20  H   UNL     1      21.961  46.707  48.720  1.00  0.00     0.169 HD
HETATM   21  O   UNL     1      24.328  47.812  50.469  1.00  0.00    -0.273 OA
BRANCH  19  22
HETATM   22  C   UNL     1      22.064  48.768  48.854  1.00  0.00     0.068 A 
HETATM   23  C   UNL     1      22.716  49.842  48.226  1.00  0.00     0.095 A 
HETATM   24  C   UNL     1      22.097  51.098  48.173  1.00  0.00     0.039 A 
HETATM   25  C   UNL     1      20.842  51.293  48.752  1.00  0.00     0.003 A 
HETATM   26  C   UNL     1      20.181  50.225  49.352  1.00  0.00     0.002 A 
HETATM   27  C   UNL     1      20.782  48.964  49.387  1.00  0.00     0.032 A 
BRANCH  23  28
HETATM   28  O   UNL     1      23.849  49.606  47.488  1.00  0.00    -0.349 OA
BRANCH  28  29
HETATM   29  C   UNL     1      24.914  50.526  47.743  1.00  0.00     0.171 C 
HETATM   30  C   UNL     1      26.127  49.764  48.247  1.00  0.00     0.034 C 
ENDBRANCH  28  29
ENDBRANCH  23  28
ENDBRANCH  19  22
ENDBRANCH  17  18
ENDBRANCH  16  17
ENDBRANCH  15  16
ENDBRANCH   1  15
BRANCH   2  31
HETATM   31  C   UNL     1      27.782  43.220  52.651  1.00  0.00     0.044 A 
HETATM   32  C   UNL     1      29.074  43.350  53.180  1.00  0.00     0.054 A 
HETATM   33  C   UNL     1      29.254  43.857  54.466  1.00  0.00     0.036 A 
HETATM   34 CL   UNL     1      30.844  44.011  55.107  1.00  0.00    -0.084 Cl
HETATM   35  C   UNL     1      28.158  44.225  55.244  1.00  0.00     0.024 A 
HETATM   36  C   UNL     1      26.869  44.093  54.730  1.00  0.00     0.004 A 
HETATM   37  C   UNL     1      26.680  43.592  53.440  1.00  0.00     0.030 A 
ENDBRANCH   2  31
TORSDOF 8
ENDMDL
MODEL 6
REMARK VINA RESULT:      -8.5      1.465      2.682
REMARK  8 active torsions:
REMARK  status: ('A' for Active; 'I' for Inactive)
REMARK    1  A    between atoms: C_2  and  O_3 
REMARK    2  A    between atoms: O_3  and  C_4 
REMARK    3  A    between atoms: C_5  and  N_6 
REMARK       I    between atoms: N_6  and  C_7 
REMARK    4  A    between atoms: C_7  and  C_8 
REMARK    5  A    between atoms: C_8  and  C_9 
REMARK    6  A    between atoms: C_9  and  S_10 
REMARK    7  A    between atoms: S_10  and  C_11 
REMARK    8  A    between atoms: N_12  and  C_13 
ROOT
HETATM    1  C   UNL     1      25.990  43.033  51.739  1.00  0.00     0.177 A 
HETATM    2  N   UNL     1      27.098  42.195  51.469  1.00  0.00    -0.276 N 
HETATM    3  C   UNL     1      28.247  42.300  52.336  1.00  0.00     0.124 A 
HETATM    4  N   UNL     1      29.311  41.529  52.227  1.00  0.00    -0.384 N 
HETATM    5  H   UNL     1      30.087  41.617  52.867  1.00  0.00     0.157 HD
HETATM    6  H   UNL     1      29.353  40.817  51.510  1.00  0.00     0.157 HD
HETATM    7  C   UNL     1      28.167  43.275  53.378  1.00  0.00     0.081 A 
HETATM    8  C   UNL     1      26.990  44.000  53.523  1.00  0.00     0.187 A 
HETATM    9  N   UNL     1      27.048  44.873  54.517  1.00  0.00    -0.153 NA
HETATM   10  N   UNL     1      28.286  44.696  55.016  1.00  0.00    -0.280 N 
HETATM   11  H   UNL     1      28.567  45.272  55.804  1.00  0.00     0.189 HD
HETATM   12  C   UNL     1      29.019  43.729  54.357  1.00  0.00     0.042 A 
HETATM   13  C   UNL     1      30.405  43.401  54.759  1.00  0.00     0.071 C 
HETATM   14  N   UNL     1      25.867  43.883  52.717  1.00  0.00    -0.202 NA
ENDROOT
BRANCH   1  15
HETATM   15  S   UNL     1      24.580  42.968  50.649  1.00  0.00    -0.091 SA
BRANCH  15  16
HETATM   16  C   UNL     1      23.957  44.682  50.713  1.00  0.00     0.091 C 
BRANCH  16  17
HETATM   17  C   UNL     1      24.703  45.680  49.834  1.00  0.00     0.113 C 
BRANCH  17  18
HETATM   18  C   UNL     1      24.179  47.089  49.991  1.00  0.00     0.223 C 
HETATM   19  N   UNL     1      23.117  47.365  49.148  1.00  0.00    -0.325 N 
HETATM   20  H   UNL     1      22.535  46.579  48.893  1.00  0.00     0.169 HD
HETATM   21  O   UNL     1      24.656  47.839  50.839  1.00  0.00    -0.273 OA
BRANCH  19  22
HETATM   22  C   UNL     1      22.555  48.646  48.949  1.00  0.00     0.068 A 
HETATM   23  C   UNL     1      21.175  48.908  48.961  1.00  0.00     0.095 A 
HETATM   24  C   UNL     1      20.713  50.217  48.774  1.00  0.00     0.039 A 
HETATM   25  C   UNL     1      21.614  51.262  48.564  1.00  0.00     0.003 A 
HETATM   26  C   UNL     1      22.983  51.011  48.578  1.00  0.00     0.002 A 
HETATM   27  C   UNL     1      23.452  49.712  48.788  1.00  0.00     0.032 A 
BRANCH  23  28
HETATM   28  O   UNL     1      20.305  47.926  49.363  1.00  0.00    -0.349 OA
BRANCH  28  29
HETATM   29  C   UNL     1      19.096  48.419  49.948  1.00  0.00     0.171 C 
HETATM   30  C   UNL     1      17.905  47.807  49.232  1.00  0.00     0.034 C 
ENDBRANCH  28  29
ENDBRANCH  23  28
ENDBRANCH  19  22
ENDBRANCH  17  18
ENDBRANCH  16  17
ENDBRANCH  15  16
ENDBRANCH   1  15
BRANCH   2  31
HETATM   31  C   UNL     1      27.085  41.242  50.407  1.00  0.00     0.044 A 
HETATM   32  C   UNL     1      27.563  41.580  49.131  1.00  0.00     0.054 A 
HETATM   33  C   UNL     1      27.478  40.660  48.088  1.00  0.00     0.036 A 
HETATM   34 CL   UNL     1      28.065  41.085  46.527  1.00  0.00    -0.084 Cl
HETATM   35  C   UNL     1      26.907  39.405  48.292  1.00  0.00     0.024 A 
HETATM   36  C   UNL     1      26.423  39.062  49.554  1.00  0.00     0.004 A 
HETATM   37  C   UNL     1      26.510  39.976  50.607  1.00  0.00     0.030 A 
ENDBRANCH   2  31
TORSDOF 8
ENDMDL
MODEL 7
REMARK VINA RESULT:      -8.5      1.745      2.966
REMARK  8 active torsions:
REMARK  status: ('A' for Active; 'I' for Inactive)
REMARK    1  A    between atoms: C_2  and  O_3 
REMARK    2  A    between atoms: O_3  and  C_4 
REMARK    3  A    between atoms: C_5  and  N_6 
REMARK       I    between atoms: N_6  and  C_7 
REMARK    4  A    between atoms: C_7  and  C_8 
REMARK    5  A    between atoms: C_8  and  C_9 
REMARK    6  A    between atoms: C_9  and  S_10 
REMARK    7  A    between atoms: S_10  and  C_11 
REMARK    8  A    between atoms: N_12  and  C_13 
ROOT
HETATM    1  C   UNL     1      26.071  42.994  51.606  1.00  0.00     0.177 A 
HETATM    2  N   UNL     1      27.183  42.163  51.330  1.00  0.00    -0.276 N 
HETATM    3  C   UNL     1      28.321  42.247  52.213  1.00  0.00     0.124 A 
HETATM    4  N   UNL     1      29.386  41.478  52.099  1.00  0.00    -0.384 N 
HETATM    5  H   UNL     1      30.153  41.550  52.751  1.00  0.00     0.157 HD
HETATM    6  H   UNL     1      29.437  40.784  51.364  1.00  0.00     0.157 HD
HETATM    7  C   UNL     1      28.227  43.195  53.278  1.00  0.00     0.081 A 
HETATM    8  C   UNL     1      27.048  43.916  53.426  1.00  0.00     0.187 A 
HETATM    9  N   UNL     1      27.093  44.764  54.444  1.00  0.00    -0.153 NA
HETATM   10  N   UNL     1      28.325  44.574  54.954  1.00  0.00    -0.280 N 
HETATM   11  H   UNL     1      28.596  45.130  55.759  1.00  0.00     0.189 HD
HETATM   12  C   UNL     1      29.067  43.624  54.280  1.00  0.00     0.042 A 
HETATM   13  C   UNL     1      30.447  43.285  54.690  1.00  0.00     0.071 C 
HETATM   14  N   UNL     1      25.936  43.820  52.604  1.00  0.00    -0.202 NA
ENDROOT
BRANCH   1  15
HETATM   15  S   UNL     1      24.675  42.958  50.498  1.00  0.00    -0.091 SA
BRANCH  15  16
HETATM   16  C   UNL     1      24.022  44.656  50.634  1.00  0.00     0.091 C 
BRANCH  16  17
HETATM   17  C   UNL     1      24.660  45.676  49.697  1.00  0.00     0.113 C 
BRANCH  17  18
HETATM   18  C   UNL     1      24.120  47.072  49.914  1.00  0.00     0.223 C 
HETATM   19  N   UNL     1      23.080  47.385  49.057  1.00  0.00    -0.325 N 
HETATM   20  H   UNL     1      22.511  46.610  48.745  1.00  0.00     0.169 HD
HETATM   21  O   UNL     1      24.568  47.779  50.814  1.00  0.00    -0.273 OA
BRANCH  19  22
HETATM   22  C   UNL     1      22.513  48.671  48.911  1.00  0.00     0.068 A 
HETATM   23  C   UNL     1      21.132  48.926  48.926  1.00  0.00     0.095 A 
HETATM   24  C   UNL     1      20.665  50.241  48.793  1.00  0.00     0.039 A 
HETATM   25  C   UNL     1      21.562  51.297  48.635  1.00  0.00     0.003 A 
HETATM   26  C   UNL     1      22.932  51.052  48.646  1.00  0.00     0.002 A 
HETATM   27  C   UNL     1      23.406  49.747  48.802  1.00  0.00     0.032 A 
BRANCH  23  28
HETATM   28  O   UNL     1      20.264  47.924  49.279  1.00  0.00    -0.349 OA
BRANCH  28  29
HETATM   29  C   UNL     1      19.089  48.380  49.957  1.00  0.00     0.171 C 
HETATM   30  C   UNL     1      17.863  47.766  49.305  1.00  0.00     0.034 C 
ENDBRANCH  28  29
ENDBRANCH  23  28
ENDBRANCH  19  22
ENDBRANCH  17  18
ENDBRANCH  16  17
ENDBRANCH  15  16
ENDBRANCH   1  15
BRANCH   2  31
HETATM   31  C   UNL     1      27.183  41.238  50.243  1.00  0.00     0.044 A 
HETATM   32  C   UNL     1      26.869  39.886  50.450  1.00  0.00     0.054 A 
HETATM   33  C   UNL     1      26.943  38.983  49.390  1.00  0.00     0.036 A 
HETATM   34 CL   UNL     1      26.557  37.327  49.655  1.00  0.00    -0.084 Cl
HETATM   35  C   UNL     1      27.341  39.405  48.124  1.00  0.00     0.024 A 
HETATM   36  C   UNL     1      27.662  40.745  47.910  1.00  0.00     0.004 A 
HETATM   37  C   UNL     1      27.584  41.658  48.964  1.00  0.00     0.030 A 
ENDBRANCH   2  31
TORSDOF 8
ENDMDL
MODEL 8
REMARK VINA RESULT:      -8.4      2.280      3.490
REMARK  8 active torsions:
REMARK  status: ('A' for Active; 'I' for Inactive)
REMARK    1  A    between atoms: C_2  and  O_3 
REMARK    2  A    between atoms: O_3  and  C_4 
REMARK    3  A    between atoms: C_5  and  N_6 
REMARK       I    between atoms: N_6  and  C_7 
REMARK    4  A    between atoms: C_7  and  C_8 
REMARK    5  A    between atoms: C_8  and  C_9 
REMARK    6  A    between atoms: C_9  and  S_10 
REMARK    7  A    between atoms: S_10  and  C_11 
REMARK    8  A    between atoms: N_12  and  C_13 
ROOT
HETATM    1  C   UNL     1      25.155  44.765  50.451  1.00  0.00     0.177 A 
HETATM    2  N   UNL     1      26.111  43.865  50.979  1.00  0.00    -0.276 N 
HETATM    3  C   UNL     1      26.803  44.250  52.185  1.00  0.00     0.124 A 
HETATM    4  N   UNL     1      27.665  43.471  52.808  1.00  0.00    -0.384 N 
HETATM    5  H   UNL     1      28.112  43.767  53.663  1.00  0.00     0.157 HD
HETATM    6  H   UNL     1      27.872  42.549  52.446  1.00  0.00     0.157 HD
HETATM    7  C   UNL     1      26.474  45.534  52.720  1.00  0.00     0.081 A 
HETATM    8  C   UNL     1      25.488  46.285  52.092  1.00  0.00     0.187 A 
HETATM    9  N   UNL     1      25.285  47.455  52.681  1.00  0.00    -0.153 NA
HETATM   10  N   UNL     1      26.157  47.443  53.706  1.00  0.00    -0.280 N 
HETATM   11  H   UNL     1      26.187  48.257  54.314  1.00  0.00     0.189 HD
HETATM   12  C   UNL     1      26.915  46.291  53.781  1.00  0.00     0.042 A 
HETATM   13  C   UNL     1      27.933  46.101  54.837  1.00  0.00     0.071 C 
HETATM   14  N   UNL     1      24.793  45.910  50.952  1.00  0.00    -0.202 NA
ENDROOT
BRANCH   1  15
HETATM   15  S   UNL     1      24.328  44.343  48.928  1.00  0.00    -0.091 SA
BRANCH  15  16
HETATM   16  C   UNL     1      22.594  44.153  49.463  1.00  0.00     0.091 C 
BRANCH  16  17
HETATM   17  C   UNL     1      21.557  44.804  48.554  1.00  0.00     0.113 C 
BRANCH  17  18
HETATM   18  C   UNL     1      21.989  46.173  48.077  1.00  0.00     0.223 C 
HETATM   19  N   UNL     1      22.222  47.055  49.118  1.00  0.00    -0.325 N 
HETATM   20  H   UNL     1      22.531  46.645  49.989  1.00  0.00     0.169 HD
HETATM   21  O   UNL     1      22.150  46.392  46.879  1.00  0.00    -0.273 OA
BRANCH  19  22
HETATM   22  C   UNL     1      22.455  48.440  48.966  1.00  0.00     0.068 A 
HETATM   23  C   UNL     1      21.472  49.426  49.151  1.00  0.00     0.095 A 
HETATM   24  C   UNL     1      21.804  50.779  48.998  1.00  0.00     0.039 A 
HETATM   25  C   UNL     1      23.103  51.153  48.652  1.00  0.00     0.003 A 
HETATM   26  C   UNL     1      24.086  50.181  48.494  1.00  0.00     0.002 A 
HETATM   27  C   UNL     1      23.768  48.832  48.668  1.00  0.00     0.032 A 
BRANCH  23  28
HETATM   28  O   UNL     1      20.256  49.076  49.683  1.00  0.00    -0.349 OA
BRANCH  28  29
HETATM   29  C   UNL     1      19.581  50.145  50.352  1.00  0.00     0.171 C 
HETATM   30  C   UNL     1      18.221  50.359  49.712  1.00  0.00     0.034 C 
ENDBRANCH  28  29
ENDBRANCH  23  28
ENDBRANCH  19  22
ENDBRANCH  17  18
ENDBRANCH  16  17
ENDBRANCH  15  16
ENDBRANCH   1  15
BRANCH   2  31
HETATM   31  C   UNL     1      26.368  42.596  50.377  1.00  0.00     0.044 A 
HETATM   32  C   UNL     1      27.149  42.495  49.216  1.00  0.00     0.054 A 
HETATM   33  C   UNL     1      27.332  41.257  48.604  1.00  0.00     0.036 A 
HETATM   34 CL   UNL     1      28.291  41.145  47.179  1.00  0.00    -0.084 Cl
HETATM   35  C   UNL     1      26.733  40.112  49.124  1.00  0.00     0.024 A 
HETATM   36  C   UNL     1      25.949  40.202  50.274  1.00  0.00     0.004 A 
HETATM   37  C   UNL     1      25.767  41.438  50.898  1.00  0.00     0.030 A 
ENDBRANCH   2  31
TORSDOF 8
ENDMDL
MODEL 9
REMARK VINA RESULT:      -8.3      3.473      5.510
REMARK  8 active torsions:
REMARK  status: ('A' for Active; 'I' for Inactive)
REMARK    1  A    between atoms: C_2  and  O_3 
REMARK    2  A    between atoms: O_3  and  C_4 
REMARK    3  A    between atoms: C_5  and  N_6 
REMARK       I    between atoms: N_6  and  C_7 
REMARK    4  A    between atoms: C_7  and  C_8 
REMARK    5  A    between atoms: C_8  and  C_9 
REMARK    6  A    between atoms: C_9  and  S_10 
REMARK    7  A    between atoms: S_10  and  C_11 
REMARK    8  A    between atoms: N_12  and  C_13 
ROOT
HETATM    1  C   UNL     1      23.921  46.980  49.721  1.00  0.00     0.177 A 
HETATM    2  N   UNL     1      23.737  45.577  49.718  1.00  0.00    -0.276 N 
HETATM    3  C   UNL     1      24.336  44.818  50.790  1.00  0.00     0.124 A 
HETATM    4  N   UNL     1      24.180  43.517  50.933  1.00  0.00    -0.384 N 
HETATM    5  H   UNL     1      24.597  43.024  51.709  1.00  0.00     0.157 HD
HETATM    6  H   UNL     1      23.617  42.995  50.274  1.00  0.00     0.157 HD
HETATM    7  C   UNL     1      25.094  45.563  51.746  1.00  0.00     0.081 A 
HETATM    8  C   UNL     1      25.152  46.945  51.618  1.00  0.00     0.187 A 
HETATM    9  N   UNL     1      25.890  47.514  52.561  1.00  0.00    -0.153 NA
HETATM   10  N   UNL     1      26.304  46.471  53.304  1.00  0.00    -0.280 N 
HETATM   11  H   UNL     1      26.901  46.664  54.103  1.00  0.00     0.189 HD
HETATM   12  C   UNL     1      25.848  45.248  52.852  1.00  0.00     0.042 A 
HETATM   13  C   UNL     1      26.207  43.987  53.536  1.00  0.00     0.071 C 
HETATM   14  N   UNL     1      24.552  47.688  50.612  1.00  0.00    -0.202 NA
ENDROOT
BRANCH   1  15
HETATM   15  S   UNL     1      23.244  47.937  48.377  1.00  0.00    -0.091 SA
BRANCH  15  16
HETATM   16  C   UNL     1      24.338  49.397  48.346  1.00  0.00     0.091 C 
BRANCH  16  17
HETATM   17  C   UNL     1      23.630  50.737  48.182  1.00  0.00     0.113 C 
BRANCH  17  18
HETATM   18  C   UNL     1      22.370  50.828  49.013  1.00  0.00     0.223 C 
HETATM   19  N   UNL     1      21.217  50.740  48.253  1.00  0.00    -0.325 N 
HETATM   20  H   UNL     1      21.285  50.199  47.401  1.00  0.00     0.169 HD
HETATM   21  O   UNL     1      22.438  50.913  50.237  1.00  0.00    -0.273 OA
BRANCH  19  22
HETATM   22  C   UNL     1      19.911  50.977  48.736  1.00  0.00     0.068 A 
HETATM   23  C   UNL     1      19.084  49.983  49.285  1.00  0.00     0.095 A 
HETATM   24  C   UNL     1      17.808  50.320  49.757  1.00  0.00     0.039 A 
HETATM   25  C   UNL     1      17.349  51.635  49.677  1.00  0.00     0.003 A 
HETATM   26  C   UNL     1      18.175  52.628  49.159  1.00  0.00     0.002 A 
HETATM   27  C   UNL     1      19.458  52.304  48.708  1.00  0.00     0.032 A 
BRANCH  23  28
HETATM   28  O   UNL     1      19.604  48.740  49.546  1.00  0.00    -0.349 OA
BRANCH  28  29
HETATM   29  C   UNL     1      18.763  47.657  49.141  1.00  0.00     0.171 C 
HETATM   30  C   UNL     1      18.998  47.360  47.670  1.00  0.00     0.034 C 
ENDBRANCH  28  29
ENDBRANCH  23  28
ENDBRANCH  19  22
ENDBRANCH  17  18
ENDBRANCH  16  17
ENDBRANCH  15  16
ENDBRANCH   1  15
BRANCH   2  31
HETATM   31  C   UNL     1      22.955  44.918  48.722  1.00  0.00     0.044 A 
HETATM   32  C   UNL     1      23.563  44.330  47.603  1.00  0.00     0.054 A 
HETATM   33  C   UNL     1      22.779  43.753  46.605  1.00  0.00     0.036 A 
HETATM   34 CL   UNL     1      23.534  43.036  45.236  1.00  0.00    -0.084 Cl
HETATM   35  C   UNL     1      21.389  43.765  46.699  1.00  0.00     0.024 A 
HETATM   36  C   UNL     1      20.774  44.354  47.804  1.00  0.00     0.004 A 
HETATM   37  C   UNL     1      21.553  44.928  48.811  1.00  0.00     0.030 A 
ENDBRANCH   2  31
TORSDOF 8
ENDMDL
MODEL 10
REMARK VINA RESULT:      -8.3      3.279      8.802
REMARK  8 active torsions:
REMARK  status: ('A' for Active; 'I' for Inactive)
REMARK    1  A    between atoms: C_2  and  O_3 
REMARK    2  A    between atoms: O_3  and  C_4 
REMARK    3  A    between atoms: C_5  and  N_6 
REMARK       I    between atoms: N_6  and  C_7 
REMARK    4  A    between atoms: C_7  and  C_8 
REMARK    5  A    between atoms: C_8  and  C_9 
REMARK    6  A    between atoms: C_9  and  S_10 
REMARK    7  A    between atoms: S_10  and  C_11 
REMARK    8  A    between atoms: N_12  and  C_13 
ROOT
HETATM    1  C   UNL     1      21.683  47.007  48.321  1.00  0.00     0.177 A 
HETATM    2  N   UNL     1      22.249  48.094  49.029  1.00  0.00    -0.276 N 
HETATM    3  C   UNL     1      21.356  49.126  49.500  1.00  0.00     0.124 A 
HETATM    4  N   UNL     1      21.754  50.152  50.227  1.00  0.00    -0.384 N 
HETATM    5  H   UNL     1      21.096  50.842  50.558  1.00  0.00     0.157 HD
HETATM    6  H   UNL     1      22.727  50.248  50.485  1.00  0.00     0.157 HD
HETATM    7  C   UNL     1      19.974  48.965  49.175  1.00  0.00     0.081 A 
HETATM    8  C   UNL     1      19.580  47.820  48.494  1.00  0.00     0.187 A 
HETATM    9  N   UNL     1      18.278  47.796  48.247  1.00  0.00    -0.153 NA
HETATM   10  N   UNL     1      17.837  48.948  48.787  1.00  0.00    -0.280 N 
HETATM   11  H   UNL     1      16.846  49.157  48.718  1.00  0.00     0.189 HD
HETATM   12  C   UNL     1      18.833  49.707  49.370  1.00  0.00     0.042 A 
HETATM   13  C   UNL     1      18.540  51.010  50.007  1.00  0.00     0.071 C 
HETATM   14  N   UNL     1      20.423  46.806  48.065  1.00  0.00    -0.202 NA
ENDROOT
BRANCH   1  15
HETATM   15  S   UNL     1      22.767  45.748  47.674  1.00  0.00    -0.091 SA
BRANCH  15  16
HETATM   16  C   UNL     1      22.693  44.464  48.968  1.00  0.00     0.091 C 
BRANCH  16  17
HETATM   17  C   UNL     1      23.885  43.513  49.012  1.00  0.00     0.113 C 
BRANCH  17  18
HETATM   18  C   UNL     1      24.357  43.248  50.423  1.00  0.00     0.223 C 
HETATM   19  N   UNL     1      25.698  43.534  50.604  1.00  0.00    -0.325 N 
HETATM   20  H   UNL     1      26.082  44.262  50.016  1.00  0.00     0.169 HD
HETATM   21  O   UNL     1      23.564  42.871  51.284  1.00  0.00    -0.273 OA
BRANCH  19  22
HETATM   22  C   UNL     1      26.446  43.210  51.759  1.00  0.00     0.068 A 
HETATM   23  C   UNL     1      26.475  43.998  52.922  1.00  0.00     0.095 A 
HETATM   24  C   UNL     1      27.231  43.582  54.026  1.00  0.00     0.039 A 
HETATM   25  C   UNL     1      27.965  42.396  53.974  1.00  0.00     0.003 A 
HETATM   26  C   UNL     1      27.917  41.599  52.834  1.00  0.00     0.002 A 
HETATM   27  C   UNL     1      27.146  41.996  51.738  1.00  0.00     0.032 A 
BRANCH  23  28
HETATM   28  O   UNL     1      25.603  45.051  53.046  1.00  0.00    -0.349 OA
BRANCH  28  29
HETATM   29  C   UNL     1      25.731  45.772  54.275  1.00  0.00     0.171 C 
HETATM   30  C   UNL     1      26.161  47.198  53.978  1.00  0.00     0.034 C 
ENDBRANCH  28  29
ENDBRANCH  23  28
ENDBRANCH  19  22
ENDBRANCH  17  18
ENDBRANCH  16  17
ENDBRANCH  15  16
ENDBRANCH   1  15
BRANCH   2  31
HETATM   31  C   UNL     1      23.645  48.166  49.315  1.00  0.00     0.044 A 
HETATM   32  C   UNL     1      24.463  49.107  48.671  1.00  0.00     0.054 A 
HETATM   33  C   UNL     1      25.836  49.118  48.910  1.00  0.00     0.036 A 
HETATM   34 CL   UNL     1      26.831  50.275  48.114  1.00  0.00    -0.084 Cl
HETATM   35  C   UNL     1      26.414  48.190  49.774  1.00  0.00     0.024 A 
HETATM   36  C   UNL     1      25.610  47.246  50.413  1.00  0.00     0.004 A 
HETATM   37  C   UNL     1      24.232  47.233  50.185  1.00  0.00     0.030 A 
ENDBRANCH   2  31
TORSDOF 8
ENDMDL
