MODEL 1
REMARK VINA RESULT:      -9.8      0.000      0.000
REMARK  4 active torsions:
REMARK  status: ('A' for Active; 'I' for Inactive)
REMARK    1  A    between atoms: C_2  and  C_3 
REMARK    2  A    between atoms: C_3  and  N_4 
REMARK    3  A    between atoms: C_3  and  C_18 
REMARK       I    between atoms: N_4  and  C_5 
REMARK    4  A    between atoms: C_5  and  C_6 
ROOT
HETATM    1  N   UNL     1      26.122  45.587  51.197  1.00  0.00    -0.344 N 
HETATM    2  C   UNL     1      25.065  46.148  50.531  1.00  0.00     0.273 C 
HETATM    3  O   UNL     1      23.940  45.679  50.500  1.00  0.00    -0.266 OA
HETATM    4  H   UNL     1      27.033  46.035  51.106  1.00  0.00     0.163 HD
ENDROOT
BRANCH   1   5
HETATM    5  C   UNL     1      26.063  44.338  51.925  1.00  0.00     0.158 C 
BRANCH   5   6
HETATM    6  C   UNL     1      26.211  43.080  51.026  1.00  0.00     0.008 C 
HETATM    7  C   UNL     1      26.896  43.362  49.682  1.00  0.00     0.012 C 
HETATM    8  C   UNL     1      24.869  42.386  50.778  1.00  0.00     0.012 C 
ENDBRANCH   5   6
BRANCH   5   9
HETATM    9  C   UNL     1      27.155  44.390  52.960  1.00  0.00     0.128 A 
HETATM   10  N   UNL     1      27.363  45.352  53.843  1.00  0.00    -0.231 NA
HETATM   11  C   UNL     1      28.485  44.977  54.540  1.00  0.00     0.085 A 
HETATM   12  C   UNL     1      28.967  43.756  54.085  1.00  0.00     0.062 A 
HETATM   13  C   UNL     1      29.155  45.637  55.580  1.00  0.00     0.034 A 
HETATM   14  N   UNL     1      28.095  43.397  53.089  1.00  0.00    -0.341 N 
HETATM   15  C   UNL     1      30.103  43.137  54.612  1.00  0.00     0.032 A 
HETATM   16  H   UNL     1      28.147  42.555  52.536  1.00  0.00     0.167 HD
HETATM   17  C   UNL     1      30.762  43.812  55.647  1.00  0.00     0.002 A 
HETATM   18  C   UNL     1      30.299  45.040  56.125  1.00  0.00     0.002 A 
ENDBRANCH   5   9
ENDBRANCH   1   5
BRANCH   2  19
HETATM   19  C   UNL     1      25.439  47.439  49.781  1.00  0.00     0.155 A 
HETATM   20  N   UNL     1      26.721  47.671  49.684  1.00  0.00    -0.166 NA
HETATM   21  N   UNL     1      27.131  48.791  49.032  1.00  0.00    -0.242 N 
HETATM   22  C   UNL     1      26.318  49.720  48.433  1.00  0.00     0.272 A 
HETATM   23  H   UNL     1      28.133  48.946  48.974  1.00  0.00     0.192 HD
HETATM   24  O   UNL     1      26.762  50.703  47.850  1.00  0.00    -0.266 OA
HETATM   25  C   UNL     1      24.869  49.474  48.538  1.00  0.00     0.046 A 
HETATM   26  C   UNL     1      24.409  48.345  49.219  1.00  0.00     0.016 A 
HETATM   27  C   UNL     1      23.971  50.381  47.959  1.00  0.00     0.018 A 
HETATM   28  C   UNL     1      23.029  48.143  49.333  1.00  0.00     0.015 A 
HETATM   29  C   UNL     1      22.130  49.047  48.753  1.00  0.00     0.001 A 
HETATM   30  C   UNL     1      22.600  50.163  48.064  1.00  0.00     0.001 A 
ENDBRANCH   2  19
TORSDOF 4
ENDMDL
MODEL 2
REMARK VINA RESULT:      -9.3      2.592      7.379
REMARK  4 active torsions:
REMARK  status: ('A' for Active; 'I' for Inactive)
REMARK    1  A    between atoms: C_2  and  C_3 
REMARK    2  A    between atoms: C_3  and  N_4 
REMARK    3  A    between atoms: C_3  and  C_18 
REMARK       I    between atoms: N_4  and  C_5 
REMARK    4  A    between atoms: C_5  and  C_6 
ROOT
HETATM    1  N   UNL     1      26.051  45.771  51.907  1.00  0.00    -0.344 N 
HETATM    2  C   UNL     1      25.854  45.159  53.118  1.00  0.00     0.273 C 
HETATM    3  O   UNL     1      24.854  44.531  53.420  1.00  0.00    -0.266 OA
HETATM    4  H   UNL     1      26.901  46.319  51.784  1.00  0.00     0.163 HD
ENDROOT
BRANCH   1   5
HETATM    5  C   UNL     1      25.083  45.791  50.832  1.00  0.00     0.158 C 
BRANCH   5   6
HETATM    6  C   UNL     1      25.257  46.983  49.853  1.00  0.00     0.008 C 
HETATM    7  C   UNL     1      26.467  47.871  50.173  1.00  0.00     0.012 C 
HETATM    8  C   UNL     1      23.997  47.849  49.768  1.00  0.00     0.012 C 
ENDBRANCH   5   6
BRANCH   5   9
HETATM    9  C   UNL     1      25.217  44.477  50.108  1.00  0.00     0.128 A 
HETATM   10  N   UNL     1      24.232  43.700  49.692  1.00  0.00    -0.231 NA
HETATM   11  C   UNL     1      24.838  42.605  49.126  1.00  0.00     0.085 A 
HETATM   12  C   UNL     1      26.222  42.720  49.183  1.00  0.00     0.062 A 
HETATM   13  C   UNL     1      24.266  41.466  48.542  1.00  0.00     0.034 A 
HETATM   14  N   UNL     1      26.436  43.926  49.800  1.00  0.00    -0.341 N 
HETATM   15  C   UNL     1      27.092  41.747  48.685  1.00  0.00     0.032 A 
HETATM   16  H   UNL     1      27.338  44.330  50.007  1.00  0.00     0.167 HD
HETATM   17  C   UNL     1      26.504  40.614  48.110  1.00  0.00     0.002 A 
HETATM   18  C   UNL     1      25.115  40.473  48.037  1.00  0.00     0.002 A 
ENDBRANCH   5   9
ENDBRANCH   1   5
BRANCH   2  19
HETATM   19  C   UNL     1      27.023  45.367  54.097  1.00  0.00     0.155 A 
HETATM   20  N   UNL     1      26.901  46.394  54.894  1.00  0.00    -0.166 NA
HETATM   21  N   UNL     1      27.893  46.642  55.791  1.00  0.00    -0.242 N 
HETATM   22  C   UNL     1      29.030  45.895  55.963  1.00  0.00     0.272 A 
HETATM   23  H   UNL     1      27.771  47.448  56.396  1.00  0.00     0.192 HD
HETATM   24  O   UNL     1      29.877  46.173  56.804  1.00  0.00    -0.266 OA
HETATM   25  C   UNL     1      29.183  44.735  55.068  1.00  0.00     0.046 A 
HETATM   26  C   UNL     1      28.196  44.462  54.119  1.00  0.00     0.016 A 
HETATM   27  C   UNL     1      30.322  43.925  55.176  1.00  0.00     0.018 A 
HETATM   28  C   UNL     1      28.373  43.372  53.258  1.00  0.00     0.015 A 
HETATM   29  C   UNL     1      29.508  42.561  53.366  1.00  0.00     0.001 A 
HETATM   30  C   UNL     1      30.481  42.835  54.325  1.00  0.00     0.001 A 
ENDBRANCH   2  19
TORSDOF 4
ENDMDL
MODEL 3
REMARK VINA RESULT:      -9.2      3.187      5.354
REMARK  4 active torsions:
REMARK  status: ('A' for Active; 'I' for Inactive)
REMARK    1  A    between atoms: C_2  and  C_3 
REMARK    2  A    between atoms: C_3  and  N_4 
REMARK    3  A    between atoms: C_3  and  C_18 
REMARK       I    between atoms: N_4  and  C_5 
REMARK    4  A    between atoms: C_5  and  C_6 
ROOT
HETATM    1  N   UNL     1      23.352  47.914  49.389  1.00  0.00    -0.344 N 
HETATM    2  C   UNL     1      22.463  47.607  48.392  1.00  0.00     0.273 C 
HETATM    3  O   UNL     1      22.778  47.196  47.288  1.00  0.00    -0.266 OA
HETATM    4  H   UNL     1      22.980  48.306  50.253  1.00  0.00     0.163 HD
ENDROOT
BRANCH   1   5
HETATM    5  C   UNL     1      24.790  47.833  49.258  1.00  0.00     0.158 C 
BRANCH   5   6
HETATM    6  C   UNL     1      25.481  49.209  49.055  1.00  0.00     0.008 C 
HETATM    7  C   UNL     1      24.866  50.045  47.925  1.00  0.00     0.012 C 
HETATM    8  C   UNL     1      26.988  49.070  48.823  1.00  0.00     0.012 C 
ENDBRANCH   5   6
BRANCH   5   9
HETATM    9  C   UNL     1      25.299  47.155  50.503  1.00  0.00     0.128 A 
HETATM   10  N   UNL     1      25.187  47.595  51.744  1.00  0.00    -0.231 NA
HETATM   11  C   UNL     1      25.829  46.666  52.525  1.00  0.00     0.085 A 
HETATM   12  C   UNL     1      26.334  45.629  51.749  1.00  0.00     0.062 A 
HETATM   13  C   UNL     1      26.026  46.644  53.913  1.00  0.00     0.034 A 
HETATM   14  N   UNL     1      25.971  45.958  50.468  1.00  0.00    -0.341 N 
HETATM   15  C   UNL     1      27.039  44.548  52.281  1.00  0.00     0.032 A 
HETATM   16  H   UNL     1      26.177  45.418  49.640  1.00  0.00     0.167 HD
HETATM   17  C   UNL     1      27.229  44.544  53.668  1.00  0.00     0.002 A 
HETATM   18  C   UNL     1      26.733  45.572  54.473  1.00  0.00     0.002 A 
ENDBRANCH   5   9
ENDBRANCH   1   5
BRANCH   2  19
HETATM   19  C   UNL     1      20.998  47.861  48.789  1.00  0.00     0.155 A 
HETATM   20  N   UNL     1      20.308  46.789  49.075  1.00  0.00    -0.166 NA
HETATM   21  N   UNL     1      19.005  46.933  49.438  1.00  0.00    -0.242 N 
HETATM   22  C   UNL     1      18.327  48.119  49.555  1.00  0.00     0.272 A 
HETATM   23  H   UNL     1      18.494  46.082  49.652  1.00  0.00     0.192 HD
HETATM   24  O   UNL     1      17.152  48.172  49.901  1.00  0.00    -0.266 OA
HETATM   25  C   UNL     1      19.091  49.336  49.232  1.00  0.00     0.046 A 
HETATM   26  C   UNL     1      20.425  49.227  48.834  1.00  0.00     0.016 A 
HETATM   27  C   UNL     1      18.466  50.588  49.320  1.00  0.00     0.018 A 
HETATM   28  C   UNL     1      21.127  50.393  48.503  1.00  0.00     0.015 A 
HETATM   29  C   UNL     1      20.505  51.643  48.594  1.00  0.00     0.001 A 
HETATM   30  C   UNL     1      19.177  51.742  49.005  1.00  0.00     0.001 A 
ENDBRANCH   2  19
TORSDOF 4
ENDMDL
MODEL 4
REMARK VINA RESULT:      -9.1      2.653      8.078
REMARK  4 active torsions:
REMARK  status: ('A' for Active; 'I' for Inactive)
REMARK    1  A    between atoms: C_2  and  C_3 
REMARK    2  A    between atoms: C_3  and  N_4 
REMARK    3  A    between atoms: C_3  and  C_18 
REMARK       I    between atoms: N_4  and  C_5 
REMARK    4  A    between atoms: C_5  and  C_6 
ROOT
HETATM    1  N   UNL     1      24.178  46.230  50.271  1.00  0.00    -0.344 N 
HETATM    2  C   UNL     1      25.524  46.467  50.366  1.00  0.00     0.273 C 
HETATM    3  O   UNL     1      26.260  46.667  49.414  1.00  0.00    -0.266 OA
HETATM    4  H   UNL     1      23.671  46.017  51.129  1.00  0.00     0.163 HD
ENDROOT
BRANCH   1   5
HETATM    5  C   UNL     1      23.447  46.142  49.026  1.00  0.00     0.158 C 
BRANCH   5   6
HETATM    6  C   UNL     1      22.526  44.896  48.924  1.00  0.00     0.008 C 
HETATM    7  C   UNL     1      22.758  43.867  50.039  1.00  0.00     0.012 C 
HETATM    8  C   UNL     1      22.637  44.205  47.562  1.00  0.00     0.012 C 
ENDBRANCH   5   6
BRANCH   5   9
HETATM    9  C   UNL     1      22.647  47.412  48.905  1.00  0.00     0.128 A 
HETATM   10  N   UNL     1      23.106  48.607  48.574  1.00  0.00    -0.231 NA
HETATM   11  C   UNL     1      22.022  49.448  48.633  1.00  0.00     0.085 A 
HETATM   12  C   UNL     1      20.874  48.754  48.995  1.00  0.00     0.062 A 
HETATM   13  C   UNL     1      21.944  50.827  48.392  1.00  0.00     0.034 A 
HETATM   14  N   UNL     1      21.297  47.458  49.149  1.00  0.00    -0.341 N 
HETATM   15  C   UNL     1      19.625  49.362  49.137  1.00  0.00     0.032 A 
HETATM   16  H   UNL     1      20.715  46.676  49.412  1.00  0.00     0.167 HD
HETATM   17  C   UNL     1      19.566  50.740  48.897  1.00  0.00     0.002 A 
HETATM   18  C   UNL     1      20.704  51.463  48.531  1.00  0.00     0.002 A 
ENDBRANCH   5   9
ENDBRANCH   1   5
BRANCH   2  19
HETATM   19  C   UNL     1      26.044  46.429  51.814  1.00  0.00     0.155 A 
HETATM   20  N   UNL     1      25.741  47.473  52.538  1.00  0.00    -0.166 NA
HETATM   21  N   UNL     1      26.163  47.512  53.831  1.00  0.00    -0.242 N 
HETATM   22  C   UNL     1      26.878  46.534  54.475  1.00  0.00     0.272 A 
HETATM   23  H   UNL     1      25.914  48.336  54.368  1.00  0.00     0.192 HD
HETATM   24  O   UNL     1      27.214  46.634  55.650  1.00  0.00    -0.266 OA
HETATM   25  C   UNL     1      27.230  45.353  53.670  1.00  0.00     0.046 A 
HETATM   26  C   UNL     1      26.834  45.287  52.333  1.00  0.00     0.016 A 
HETATM   27  C   UNL     1      27.967  44.313  54.254  1.00  0.00     0.018 A 
HETATM   28  C   UNL     1      27.203  44.169  51.574  1.00  0.00     0.015 A 
HETATM   29  C   UNL     1      27.936  43.129  52.157  1.00  0.00     0.001 A 
HETATM   30  C   UNL     1      28.316  43.199  53.496  1.00  0.00     0.001 A 
ENDBRANCH   2  19
TORSDOF 4
ENDMDL
MODEL 5
REMARK VINA RESULT:      -9.1      3.470      5.428
REMARK  4 active torsions:
REMARK  status: ('A' for Active; 'I' for Inactive)
REMARK    1  A    between atoms: C_2  and  C_3 
REMARK    2  A    between atoms: C_3  and  N_4 
REMARK    3  A    between atoms: C_3  and  C_18 
REMARK       I    between atoms: N_4  and  C_5 
REMARK    4  A    between atoms: C_5  and  C_6 
ROOT
HETATM    1  N   UNL     1      23.444  48.367  49.626  1.00  0.00    -0.344 N 
HETATM    2  C   UNL     1      22.477  48.340  48.655  1.00  0.00     0.273 C 
HETATM    3  O   UNL     1      22.638  47.897  47.531  1.00  0.00    -0.266 OA
HETATM    4  H   UNL     1      23.214  48.815  50.513  1.00  0.00     0.163 HD
ENDROOT
BRANCH   1   5
HETATM    5  C   UNL     1      24.804  47.913  49.440  1.00  0.00     0.158 C 
BRANCH   5   6
HETATM    6  C   UNL     1      25.826  49.062  49.225  1.00  0.00     0.008 C 
HETATM    7  C   UNL     1      25.522  49.934  47.999  1.00  0.00     0.012 C 
HETATM    8  C   UNL     1      27.265  48.546  49.138  1.00  0.00     0.012 C 
ENDBRANCH   5   6
BRANCH   5   9
HETATM    9  C   UNL     1      25.157  47.102  50.659  1.00  0.00     0.128 A 
HETATM   10  N   UNL     1      25.281  47.548  51.897  1.00  0.00    -0.231 NA
HETATM   11  C   UNL     1      25.647  46.458  52.648  1.00  0.00     0.085 A 
HETATM   12  C   UNL     1      25.737  45.318  51.858  1.00  0.00     0.062 A 
HETATM   13  C   UNL     1      25.925  46.367  54.019  1.00  0.00     0.034 A 
HETATM   14  N   UNL     1      25.407  45.752  50.599  1.00  0.00    -0.341 N 
HETATM   15  C   UNL     1      26.096  44.065  52.359  1.00  0.00     0.032 A 
HETATM   16  H   UNL     1      25.370  45.179  49.769  1.00  0.00     0.167 HD
HETATM   17  C   UNL     1      26.374  43.993  53.730  1.00  0.00     0.002 A 
HETATM   18  C   UNL     1      26.291  45.123  54.548  1.00  0.00     0.002 A 
ENDBRANCH   5   9
ENDBRANCH   1   5
BRANCH   2  19
HETATM   19  C   UNL     1      21.144  48.959  49.112  1.00  0.00     0.155 A 
HETATM   20  N   UNL     1      21.242  50.144  49.654  1.00  0.00    -0.166 NA
HETATM   21  N   UNL     1      20.106  50.759  50.080  1.00  0.00    -0.242 N 
HETATM   22  C   UNL     1      18.832  50.259  49.981  1.00  0.00     0.272 A 
HETATM   23  H   UNL     1      20.213  51.678  50.499  1.00  0.00     0.192 HD
HETATM   24  O   UNL     1      17.852  50.879  50.377  1.00  0.00    -0.266 OA
HETATM   25  C   UNL     1      18.707  48.923  49.375  1.00  0.00     0.046 A 
HETATM   26  C   UNL     1      19.853  48.250  48.946  1.00  0.00     0.016 A 
HETATM   27  C   UNL     1      17.439  48.340  49.245  1.00  0.00     0.018 A 
HETATM   28  C   UNL     1      19.717  46.969  48.399  1.00  0.00     0.015 A 
HETATM   29  C   UNL     1      18.451  46.386  48.266  1.00  0.00     0.001 A 
HETATM   30  C   UNL     1      17.313  47.071  48.686  1.00  0.00     0.001 A 
ENDBRANCH   2  19
TORSDOF 4
ENDMDL
MODEL 6
REMARK VINA RESULT:      -8.9      2.085      7.612
REMARK  4 active torsions:
REMARK  status: ('A' for Active; 'I' for Inactive)
REMARK    1  A    between atoms: C_2  and  C_3 
REMARK    2  A    between atoms: C_3  and  N_4 
REMARK    3  A    between atoms: C_3  and  C_18 
REMARK       I    between atoms: N_4  and  C_5 
REMARK    4  A    between atoms: C_5  and  C_6 
ROOT
HETATM    1  N   UNL     1      26.895  45.045  51.448  1.00  0.00    -0.344 N 
HETATM    2  C   UNL     1      26.220  45.192  52.632  1.00  0.00     0.273 C 
HETATM    3  O   UNL     1      25.007  45.153  52.745  1.00  0.00    -0.266 OA
HETATM    4  H   UNL     1      27.908  45.155  51.462  1.00  0.00     0.163 HD
ENDROOT
BRANCH   1   5
HETATM    5  C   UNL     1      26.261  44.863  50.161  1.00  0.00     0.158 C 
BRANCH   5   6
HETATM    6  C   UNL     1      25.182  43.746  50.145  1.00  0.00     0.008 C 
HETATM    7  C   UNL     1      25.689  42.393  50.660  1.00  0.00     0.012 C 
HETATM    8  C   UNL     1      24.560  43.563  48.758  1.00  0.00     0.012 C 
ENDBRANCH   5   6
BRANCH   5   9
HETATM    9  C   UNL     1      25.664  46.192  49.782  1.00  0.00     0.128 A 
HETATM   10  N   UNL     1      26.310  47.242  49.306  1.00  0.00    -0.231 NA
HETATM   11  C   UNL     1      25.360  48.221  49.148  1.00  0.00     0.085 A 
HETATM   12  C   UNL     1      24.104  47.759  49.523  1.00  0.00     0.062 A 
HETATM   13  C   UNL     1      25.498  49.539  48.691  1.00  0.00     0.034 A 
HETATM   14  N   UNL     1      24.323  46.461  49.910  1.00  0.00    -0.341 N 
HETATM   15  C   UNL     1      22.951  48.545  49.471  1.00  0.00     0.032 A 
HETATM   16  H   UNL     1      23.619  45.819  50.245  1.00  0.00     0.167 HD
HETATM   17  C   UNL     1      23.108  49.860  49.016  1.00  0.00     0.002 A 
HETATM   18  C   UNL     1      24.359  50.351  48.631  1.00  0.00     0.002 A 
ENDBRANCH   5   9
ENDBRANCH   1   5
BRANCH   2  19
HETATM   19  C   UNL     1      27.150  45.449  53.830  1.00  0.00     0.155 A 
HETATM   20  N   UNL     1      26.823  46.470  54.577  1.00  0.00    -0.166 NA
HETATM   21  N   UNL     1      27.596  46.759  55.658  1.00  0.00    -0.242 N 
HETATM   22  C   UNL     1      28.703  46.061  56.068  1.00  0.00     0.272 A 
HETATM   23  H   UNL     1      27.318  47.559  56.218  1.00  0.00     0.192 HD
HETATM   24  O   UNL     1      29.345  46.374  57.064  1.00  0.00    -0.266 OA
HETATM   25  C   UNL     1      29.087  44.909  55.234  1.00  0.00     0.046 A 
HETATM   26  C   UNL     1      28.331  44.594  54.103  1.00  0.00     0.016 A 
HETATM   27  C   UNL     1      30.212  44.149  55.582  1.00  0.00     0.018 A 
HETATM   28  C   UNL     1      28.727  43.514  53.306  1.00  0.00     0.015 A 
HETATM   29  C   UNL     1      29.848  42.751  53.654  1.00  0.00     0.001 A 
HETATM   30  C   UNL     1      30.589  43.066  54.792  1.00  0.00     0.001 A 
ENDBRANCH   2  19
TORSDOF 4
ENDMDL
MODEL 7
REMARK VINA RESULT:      -8.8      2.699      7.904
REMARK  4 active torsions:
REMARK  status: ('A' for Active; 'I' for Inactive)
REMARK    1  A    between atoms: C_2  and  C_3 
REMARK    2  A    between atoms: C_3  and  N_4 
REMARK    3  A    between atoms: C_3  and  C_18 
REMARK       I    between atoms: N_4  and  C_5 
REMARK    4  A    between atoms: C_5  and  C_6 
ROOT
HETATM    1  N   UNL     1      26.015  44.878  51.406  1.00  0.00    -0.344 N 
HETATM    2  C   UNL     1      25.235  43.819  51.023  1.00  0.00     0.273 C 
HETATM    3  O   UNL     1      24.025  43.767  51.160  1.00  0.00    -0.266 OA
HETATM    4  H   UNL     1      27.025  44.789  51.297  1.00  0.00     0.163 HD
ENDROOT
BRANCH   1   5
HETATM    5  C   UNL     1      25.518  46.066  52.064  1.00  0.00     0.158 C 
BRANCH   5   6
HETATM    6  C   UNL     1      26.516  46.686  53.080  1.00  0.00     0.008 C 
HETATM    7  C   UNL     1      27.315  45.642  53.871  1.00  0.00     0.012 C 
HETATM    8  C   UNL     1      25.826  47.645  54.055  1.00  0.00     0.012 C 
ENDBRANCH   5   6
BRANCH   5   9
HETATM    9  C   UNL     1      25.179  47.051  50.976  1.00  0.00     0.128 A 
HETATM   10  N   UNL     1      26.010  47.891  50.384  1.00  0.00    -0.231 NA
HETATM   11  C   UNL     1      25.243  48.604  49.495  1.00  0.00     0.085 A 
HETATM   12  C   UNL     1      23.919  48.184  49.534  1.00  0.00     0.062 A 
HETATM   13  C   UNL     1      25.611  49.634  48.619  1.00  0.00     0.034 A 
HETATM   14  N   UNL     1      23.908  47.186  50.474  1.00  0.00    -0.341 N 
HETATM   15  C   UNL     1      22.915  48.740  48.737  1.00  0.00     0.032 A 
HETATM   16  H   UNL     1      23.099  46.653  50.759  1.00  0.00     0.167 HD
HETATM   17  C   UNL     1      23.300  49.771  47.871  1.00  0.00     0.002 A 
HETATM   18  C   UNL     1      24.624  50.213  47.810  1.00  0.00     0.002 A 
ENDBRANCH   5   9
ENDBRANCH   1   5
BRANCH   2  19
HETATM   19  C   UNL     1      26.045  42.659  50.417  1.00  0.00     0.155 A 
HETATM   20  N   UNL     1      25.781  42.394  49.165  1.00  0.00    -0.166 NA
HETATM   21  N   UNL     1      26.459  41.384  48.558  1.00  0.00    -0.242 N 
HETATM   22  C   UNL     1      27.431  40.604  49.133  1.00  0.00     0.272 A 
HETATM   23  H   UNL     1      26.231  41.200  47.585  1.00  0.00     0.192 HD
HETATM   24  O   UNL     1      28.010  39.717  48.516  1.00  0.00    -0.266 OA
HETATM   25  C   UNL     1      27.737  40.889  50.545  1.00  0.00     0.046 A 
HETATM   26  C   UNL     1      27.045  41.904  51.209  1.00  0.00     0.016 A 
HETATM   27  C   UNL     1      28.712  40.131  51.206  1.00  0.00     0.018 A 
HETATM   28  C   UNL     1      27.329  42.141  52.559  1.00  0.00     0.015 A 
HETATM   29  C   UNL     1      28.305  41.387  53.221  1.00  0.00     0.001 A 
HETATM   30  C   UNL     1      28.999  40.384  52.545  1.00  0.00     0.001 A 
ENDBRANCH   2  19
TORSDOF 4
ENDMDL
MODEL 8
REMARK VINA RESULT:      -8.8      2.563      4.751
REMARK  4 active torsions:
REMARK  status: ('A' for Active; 'I' for Inactive)
REMARK    1  A    between atoms: C_2  and  C_3 
REMARK    2  A    between atoms: C_3  and  N_4 
REMARK    3  A    between atoms: C_3  and  C_18 
REMARK       I    between atoms: N_4  and  C_5 
REMARK    4  A    between atoms: C_5  and  C_6 
ROOT
HETATM    1  N   UNL     1      26.740  44.550  51.607  1.00  0.00    -0.344 N 
HETATM    2  C   UNL     1      26.957  45.246  50.446  1.00  0.00     0.273 C 
HETATM    3  O   UNL     1      27.976  45.179  49.780  1.00  0.00    -0.266 OA
HETATM    4  H   UNL     1      25.873  44.728  52.112  1.00  0.00     0.163 HD
ENDROOT
BRANCH   1   5
HETATM    5  C   UNL     1      27.705  43.670  52.227  1.00  0.00     0.158 C 
BRANCH   5   6
HETATM    6  C   UNL     1      27.495  43.484  53.754  1.00  0.00     0.008 C 
HETATM    7  C   UNL     1      26.275  44.235  54.303  1.00  0.00     0.012 C 
HETATM    8  C   UNL     1      28.737  43.872  54.560  1.00  0.00     0.012 C 
ENDBRANCH   5   6
BRANCH   5   9
HETATM    9  C   UNL     1      27.610  42.351  51.507  1.00  0.00     0.128 A 
HETATM   10  N   UNL     1      26.535  41.838  50.934  1.00  0.00    -0.231 NA
HETATM   11  C   UNL     1      26.924  40.615  50.445  1.00  0.00     0.085 A 
HETATM   12  C   UNL     1      28.267  40.378  50.713  1.00  0.00     0.062 A 
HETATM   13  C   UNL     1      26.177  39.645  49.762  1.00  0.00     0.034 A 
HETATM   14  N   UNL     1      28.683  41.503  51.377  1.00  0.00    -0.341 N 
HETATM   15  C   UNL     1      28.928  39.207  50.334  1.00  0.00     0.032 A 
HETATM   16  H   UNL     1      29.616  41.671  51.724  1.00  0.00     0.167 HD
HETATM   17  C   UNL     1      28.166  38.248  49.656  1.00  0.00     0.002 A 
HETATM   18  C   UNL     1      26.815  38.460  49.373  1.00  0.00     0.002 A 
ENDBRANCH   5   9
ENDBRANCH   1   5
BRANCH   2  19
HETATM   19  C   UNL     1      25.783  46.165  50.063  1.00  0.00     0.155 A 
HETATM   20  N   UNL     1      24.596  45.651  50.247  1.00  0.00    -0.166 NA
HETATM   21  N   UNL     1      23.507  46.404  49.935  1.00  0.00    -0.242 N 
HETATM   22  C   UNL     1      23.526  47.688  49.450  1.00  0.00     0.272 A 
HETATM   23  H   UNL     1      22.598  45.978  50.087  1.00  0.00     0.192 HD
HETATM   24  O   UNL     1      22.500  48.311  49.202  1.00  0.00    -0.266 OA
HETATM   25  C   UNL     1      24.858  48.278  49.234  1.00  0.00     0.046 A 
HETATM   26  C   UNL     1      25.999  47.527  49.522  1.00  0.00     0.016 A 
HETATM   27  C   UNL     1      24.962  49.583  48.733  1.00  0.00     0.018 A 
HETATM   28  C   UNL     1      27.257  48.095  49.283  1.00  0.00     0.015 A 
HETATM   29  C   UNL     1      27.363  49.399  48.785  1.00  0.00     0.001 A 
HETATM   30  C   UNL     1      26.217  50.144  48.513  1.00  0.00     0.001 A 
ENDBRANCH   2  19
TORSDOF 4
ENDMDL
MODEL 9
REMARK VINA RESULT:      -8.8      1.949      2.736
REMARK  4 active torsions:
REMARK  status: ('A' for Active; 'I' for Inactive)
REMARK    1  A    between atoms: C_2  and  C_3 
REMARK    2  A    between atoms: C_3  and  N_4 
REMARK    3  A    between atoms: C_3  and  C_18 
REMARK       I    between atoms: N_4  and  C_5 
REMARK    4  A    between atoms: C_5  and  C_6 
ROOT
HETATM    1  N   UNL     1      25.196  43.880  50.540  1.00  0.00    -0.344 N 
HETATM    2  C   UNL     1      25.982  44.864  49.999  1.00  0.00     0.273 C 
HETATM    3  O   UNL     1      27.180  44.762  49.803  1.00  0.00    -0.266 OA
HETATM    4  H   UNL     1      24.215  44.096  50.713  1.00  0.00     0.163 HD
ENDROOT
BRANCH   1   5
HETATM    5  C   UNL     1      25.687  42.596  50.991  1.00  0.00     0.158 C 
BRANCH   5   6
HETATM    6  C   UNL     1      26.201  41.682  49.846  1.00  0.00     0.008 C 
HETATM    7  C   UNL     1      25.452  41.877  48.520  1.00  0.00     0.012 C 
HETATM    8  C   UNL     1      26.175  40.201  50.233  1.00  0.00     0.012 C 
ENDBRANCH   5   6
BRANCH   5   9
HETATM    9  C   UNL     1      26.782  42.879  51.985  1.00  0.00     0.128 A 
HETATM   10  N   UNL     1      26.675  43.579  53.102  1.00  0.00    -0.231 NA
HETATM   11  C   UNL     1      27.933  43.593  53.651  1.00  0.00     0.085 A 
HETATM   12  C   UNL     1      28.827  42.877  52.863  1.00  0.00     0.062 A 
HETATM   13  C   UNL     1      28.391  44.204  54.827  1.00  0.00     0.034 A 
HETATM   14  N   UNL     1      28.066  42.422  51.817  1.00  0.00    -0.341 N 
HETATM   15  C   UNL     1      30.179  42.731  53.180  1.00  0.00     0.032 A 
HETATM   16  H   UNL     1      28.399  41.860  51.047  1.00  0.00     0.167 HD
HETATM   17  C   UNL     1      30.620  43.351  54.355  1.00  0.00     0.002 A 
HETATM   18  C   UNL     1      29.743  44.076  55.167  1.00  0.00     0.002 A 
ENDBRANCH   5   9
ENDBRANCH   1   5
BRANCH   2  19
HETATM   19  C   UNL     1      25.203  46.153  49.681  1.00  0.00     0.155 A 
HETATM   20  N   UNL     1      23.902  46.031  49.696  1.00  0.00    -0.166 NA
HETATM   21  N   UNL     1      23.144  47.128  49.428  1.00  0.00    -0.242 N 
HETATM   22  C   UNL     1      23.615  48.387  49.153  1.00  0.00     0.272 A 
HETATM   23  H   UNL     1      22.136  47.002  49.446  1.00  0.00     0.192 HD
HETATM   24  O   UNL     1      22.867  49.333  48.933  1.00  0.00    -0.266 OA
HETATM   25  C   UNL     1      25.079  48.539  49.129  1.00  0.00     0.046 A 
HETATM   26  C   UNL     1      25.891  47.430  49.377  1.00  0.00     0.016 A 
HETATM   27  C   UNL     1      25.639  49.792  48.848  1.00  0.00     0.018 A 
HETATM   28  C   UNL     1      27.281  47.587  49.321  1.00  0.00     0.015 A 
HETATM   29  C   UNL     1      27.842  48.839  49.044  1.00  0.00     0.001 A 
HETATM   30  C   UNL     1      27.023  49.942  48.810  1.00  0.00     0.001 A 
ENDBRANCH   2  19
TORSDOF 4
ENDMDL
MODEL 10
REMARK VINA RESULT:      -8.8      2.764      8.686
REMARK  4 active torsions:
REMARK  status: ('A' for Active; 'I' for Inactive)
REMARK    1  A    between atoms: C_2  and  C_3 
REMARK    2  A    between atoms: C_3  and  N_4 
REMARK    3  A    between atoms: C_3  and  C_18 
REMARK       I    between atoms: N_4  and  C_5 
REMARK    4  A    between atoms: C_5  and  C_6 
ROOT
HETATM    1  N   UNL     1      24.310  47.325  49.397  1.00  0.00    -0.344 N 
HETATM    2  C   UNL     1      24.943  46.973  50.560  1.00  0.00     0.273 C 
HETATM    3  O   UNL     1      24.959  47.653  51.572  1.00  0.00    -0.266 OA
HETATM    4  H   UNL     1      24.412  46.705  48.594  1.00  0.00     0.163 HD
ENDROOT
BRANCH   1   5
HETATM    5  C   UNL     1      23.605  48.570  49.192  1.00  0.00     0.158 C 
BRANCH   5   6
HETATM    6  C   UNL     1      24.306  49.532  48.194  1.00  0.00     0.008 C 
HETATM    7  C   UNL     1      25.790  49.767  48.505  1.00  0.00     0.012 C 
HETATM    8  C   UNL     1      23.587  50.880  48.089  1.00  0.00     0.012 C 
ENDBRANCH   5   6
BRANCH   5   9
HETATM    9  C   UNL     1      22.224  48.210  48.712  1.00  0.00     0.128 A 
HETATM   10  N   UNL     1      21.895  47.769  47.509  1.00  0.00    -0.231 NA
HETATM   11  C   UNL     1      20.531  47.616  47.532  1.00  0.00     0.085 A 
HETATM   12  C   UNL     1      20.014  47.958  48.776  1.00  0.00     0.062 A 
HETATM   13  C   UNL     1      19.660  47.191  46.520  1.00  0.00     0.034 A 
HETATM   14  N   UNL     1      21.113  48.320  49.512  1.00  0.00    -0.341 N 
HETATM   15  C   UNL     1      18.652  47.903  49.081  1.00  0.00     0.032 A 
HETATM   16  H   UNL     1      21.104  48.628  50.473  1.00  0.00     0.167 HD
HETATM   17  C   UNL     1      17.796  47.480  48.057  1.00  0.00     0.002 A 
HETATM   18  C   UNL     1      18.288  47.129  46.797  1.00  0.00     0.002 A 
ENDBRANCH   5   9
ENDBRANCH   1   5
BRANCH   2  19
HETATM   19  C   UNL     1      25.677  45.623  50.465  1.00  0.00     0.155 A 
HETATM   20  N   UNL     1      25.538  44.997  49.327  1.00  0.00    -0.166 NA
HETATM   21  N   UNL     1      26.160  43.798  49.165  1.00  0.00    -0.242 N 
HETATM   22  C   UNL     1      26.953  43.169  50.091  1.00  0.00     0.272 A 
HETATM   23  H   UNL     1      26.033  43.335  48.271  1.00  0.00     0.192 HD
HETATM   24  O   UNL     1      27.493  42.092  49.868  1.00  0.00    -0.266 OA
HETATM   25  C   UNL     1      27.116  43.862  51.380  1.00  0.00     0.046 A 
HETATM   26  C   UNL     1      26.474  45.084  51.592  1.00  0.00     0.016 A 
HETATM   27  C   UNL     1      27.905  43.280  52.382  1.00  0.00     0.018 A 
HETATM   28  C   UNL     1      26.617  45.713  52.835  1.00  0.00     0.015 A 
HETATM   29  C   UNL     1      27.407  45.135  53.835  1.00  0.00     0.001 A 
HETATM   30  C   UNL     1      28.053  43.921  53.609  1.00  0.00     0.001 A 
ENDBRANCH   2  19
TORSDOF 4
ENDMDL
