MODEL 1
REMARK VINA RESULT:      -8.8      0.000      0.000
REMARK  6 active torsions:
REMARK  status: ('A' for Active; 'I' for Inactive)
REMARK    1  A    between atoms: O_2  and  C_3 
REMARK    2  A    between atoms: C_4  and  O_5 
REMARK    3  A    between atoms: O_5  and  C_6 
REMARK    4  A    between atoms: C_11  and  C_12 
REMARK    5  A    between atoms: C_12  and  N_13 
REMARK       I    between atoms: N_13  and  C_14 
REMARK    6  A    between atoms: C_14  and  C_15 
ROOT
HETATM    1  N   UNL     1      26.869  44.699  51.871  1.00  0.00    -0.353 N 
HETATM    2  C   UNL     1      25.618  45.270  51.786  1.00  0.00     0.252 C 
HETATM    3  O   UNL     1      24.650  44.854  52.413  1.00  0.00    -0.268 OA
HETATM    4  H   UNL     1      27.568  44.927  51.178  1.00  0.00     0.163 HD
ENDROOT
BRANCH   1   5
HETATM    5  C   UNL     1      27.078  43.510  52.662  1.00  0.00     0.161 C 
BRANCH   5   6
HETATM    6  C   UNL     1      28.209  43.719  53.634  1.00  0.00    -0.038 A 
HETATM    7  C   UNL     1      29.269  42.805  53.698  1.00  0.00     0.012 A 
HETATM    8  C   UNL     1      30.338  43.027  54.564  1.00  0.00     0.040 A 
HETATM    9  C   UNL     1      30.348  44.161  55.380  1.00  0.00     0.108 A 
HETATM   10  C   UNL     1      29.312  45.104  55.309  1.00  0.00     0.102 A 
HETATM   11  C   UNL     1      28.244  44.872  54.439  1.00  0.00     0.048 A 
BRANCH   9  12
HETATM   12  O   UNL     1      31.419  44.418  56.200  1.00  0.00    -0.287 OA
BRANCH  12  13
HETATM   13  C   UNL     1      31.399  43.573  57.340  1.00  0.00     0.505 C 
HETATM   14  F   UNL     1      32.487  42.759  57.296  1.00  0.00    -0.184 F 
HETATM   15  F   UNL     1      31.556  44.359  58.435  1.00  0.00    -0.184 F 
ENDBRANCH  12  13
ENDBRANCH   9  12
BRANCH  10  16
HETATM   16  O   UNL     1      29.422  46.185  56.144  1.00  0.00    -0.353 OA
HETATM   17  C   UNL     1      28.687  46.136  57.362  1.00  0.00     0.210 C 
ENDBRANCH  10  16
ENDBRANCH   5   6
ENDBRANCH   1   5
BRANCH   2  18
HETATM   18  C   UNL     1      25.467  46.420  50.848  1.00  0.00     0.034 A 
HETATM   19  C   UNL     1      26.563  47.214  50.476  1.00  0.00     0.051 A 
HETATM   20  C   UNL     1      26.347  48.274  49.583  1.00  0.00     0.085 A 
HETATM   21  C   UNL     1      25.064  48.521  49.105  1.00  0.00     0.062 A 
HETATM   22  N   UNL     1      27.244  49.175  49.065  1.00  0.00    -0.242 NA
HETATM   23  N   UNL     1      25.216  49.605  48.279  1.00  0.00    -0.349 N 
HETATM   24  C   UNL     1      23.951  47.764  49.470  1.00  0.00     0.033 A 
HETATM   25  H   UNL     1      24.482  50.063  47.758  1.00  0.00     0.167 HD
HETATM   26  C   UNL     1      26.536  49.959  48.286  1.00  0.00     0.208 A 
HETATM   27  C   UNL     1      24.182  46.705  50.358  1.00  0.00     0.019 A 
ENDBRANCH   2  18
TORSDOF 6
ENDMDL
MODEL 2
REMARK VINA RESULT:      -8.4      1.403      1.991
REMARK  6 active torsions:
REMARK  status: ('A' for Active; 'I' for Inactive)
REMARK    1  A    between atoms: O_2  and  C_3 
REMARK    2  A    between atoms: C_4  and  O_5 
REMARK    3  A    between atoms: O_5  and  C_6 
REMARK    4  A    between atoms: C_11  and  C_12 
REMARK    5  A    between atoms: C_12  and  N_13 
REMARK       I    between atoms: N_13  and  C_14 
REMARK    6  A    between atoms: C_14  and  C_15 
ROOT
HETATM    1  N   UNL     1      27.101  44.827  51.284  1.00  0.00    -0.353 N 
HETATM    2  C   UNL     1      26.325  44.899  50.147  1.00  0.00     0.252 C 
HETATM    3  O   UNL     1      26.132  43.941  49.408  1.00  0.00    -0.268 OA
HETATM    4  H   UNL     1      27.413  45.679  51.729  1.00  0.00     0.163 HD
ENDROOT
BRANCH   1   5
HETATM    5  C   UNL     1      27.798  43.608  51.617  1.00  0.00     0.161 C 
BRANCH   5   6
HETATM    6  C   UNL     1      28.534  43.764  52.921  1.00  0.00    -0.038 A 
HETATM    7  C   UNL     1      29.707  43.038  53.167  1.00  0.00     0.012 A 
HETATM    8  C   UNL     1      30.412  43.221  54.355  1.00  0.00     0.040 A 
HETATM    9  C   UNL     1      29.943  44.125  55.310  1.00  0.00     0.108 A 
HETATM   10  C   UNL     1      28.788  44.885  55.071  1.00  0.00     0.102 A 
HETATM   11  C   UNL     1      28.087  44.693  53.878  1.00  0.00     0.048 A 
BRANCH   9  12
HETATM   12  O   UNL     1      30.655  44.353  56.461  1.00  0.00    -0.287 OA
BRANCH  12  13
HETATM   13  C   UNL     1      31.559  43.290  56.717  1.00  0.00     0.505 C 
HETATM   14  F   UNL     1      32.565  43.756  57.503  1.00  0.00    -0.184 F 
HETATM   15  F   UNL     1      30.900  42.360  57.453  1.00  0.00    -0.184 F 
ENDBRANCH  12  13
ENDBRANCH   9  12
BRANCH  10  16
HETATM   16  O   UNL     1      28.418  45.750  56.067  1.00  0.00    -0.353 OA
HETATM   17  C   UNL     1      27.837  46.986  55.664  1.00  0.00     0.210 C 
ENDBRANCH  10  16
ENDBRANCH   5   6
ENDBRANCH   1   5
BRANCH   2  18
HETATM   18  C   UNL     1      25.745  46.233  49.816  1.00  0.00     0.034 A 
HETATM   19  C   UNL     1      24.361  46.418  49.671  1.00  0.00     0.051 A 
HETATM   20  C   UNL     1      23.887  47.703  49.367  1.00  0.00     0.085 A 
HETATM   21  C   UNL     1      24.790  48.748  49.201  1.00  0.00     0.062 A 
HETATM   22  N   UNL     1      22.597  48.136  49.187  1.00  0.00    -0.242 NA
HETATM   23  N   UNL     1      24.000  49.832  48.914  1.00  0.00    -0.349 N 
HETATM   24  C   UNL     1      26.171  48.594  49.319  1.00  0.00     0.033 A 
HETATM   25  H   UNL     1      24.324  50.771  48.730  1.00  0.00     0.167 HD
HETATM   26  C   UNL     1      22.698  49.418  48.918  1.00  0.00     0.208 A 
HETATM   27  C   UNL     1      26.630  47.308  49.629  1.00  0.00     0.019 A 
ENDBRANCH   2  18
TORSDOF 6
ENDMDL
MODEL 3
REMARK VINA RESULT:      -8.2      1.779      2.124
REMARK  6 active torsions:
REMARK  status: ('A' for Active; 'I' for Inactive)
REMARK    1  A    between atoms: O_2  and  C_3 
REMARK    2  A    between atoms: C_4  and  O_5 
REMARK    3  A    between atoms: O_5  and  C_6 
REMARK    4  A    between atoms: C_11  and  C_12 
REMARK    5  A    between atoms: C_12  and  N_13 
REMARK       I    between atoms: N_13  and  C_14 
REMARK    6  A    between atoms: C_14  and  C_15 
ROOT
HETATM    1  N   UNL     1      26.716  43.223  51.490  1.00  0.00    -0.353 N 
HETATM    2  C   UNL     1      26.547  43.578  50.170  1.00  0.00     0.252 C 
HETATM    3  O   UNL     1      27.237  43.126  49.263  1.00  0.00    -0.268 OA
HETATM    4  H   UNL     1      26.287  43.780  52.216  1.00  0.00     0.163 HD
ENDROOT
BRANCH   1   5
HETATM    5  C   UNL     1      27.790  42.339  51.878  1.00  0.00     0.161 C 
BRANCH   5   6
HETATM    6  C   UNL     1      28.568  42.929  53.024  1.00  0.00    -0.038 A 
HETATM    7  C   UNL     1      29.873  42.498  53.294  1.00  0.00     0.012 A 
HETATM    8  C   UNL     1      30.607  43.082  54.325  1.00  0.00     0.040 A 
HETATM    9  C   UNL     1      30.036  44.093  55.100  1.00  0.00     0.108 A 
HETATM   10  C   UNL     1      28.742  44.560  54.828  1.00  0.00     0.102 A 
HETATM   11  C   UNL     1      28.013  43.968  53.793  1.00  0.00     0.048 A 
BRANCH   9  12
HETATM   12  O   UNL     1      30.766  44.710  56.085  1.00  0.00    -0.287 OA
BRANCH  12  13
HETATM   13  C   UNL     1      31.121  43.791  57.106  1.00  0.00     0.505 C 
HETATM   14  F   UNL     1      32.461  43.573  57.047  1.00  0.00    -0.184 F 
HETATM   15  F   UNL     1      30.884  44.393  58.299  1.00  0.00    -0.184 F 
ENDBRANCH  12  13
ENDBRANCH   9  12
BRANCH  10  16
HETATM   16  O   UNL     1      28.277  45.560  55.641  1.00  0.00    -0.353 OA
HETATM   17  C   UNL     1      27.993  46.811  55.024  1.00  0.00     0.210 C 
ENDBRANCH  10  16
ENDBRANCH   5   6
ENDBRANCH   1   5
BRANCH   2  18
HETATM   18  C   UNL     1      25.492  44.592  49.879  1.00  0.00     0.034 A 
HETATM   19  C   UNL     1      25.705  45.961  50.106  1.00  0.00     0.051 A 
HETATM   20  C   UNL     1      24.670  46.857  49.800  1.00  0.00     0.085 A 
HETATM   21  C   UNL     1      23.465  46.373  49.300  1.00  0.00     0.062 A 
HETATM   22  N   UNL     1      24.635  48.224  49.922  1.00  0.00    -0.242 NA
HETATM   23  N   UNL     1      22.699  47.497  49.122  1.00  0.00    -0.349 N 
HETATM   24  C   UNL     1      23.215  45.018  49.080  1.00  0.00     0.033 A 
HETATM   25  H   UNL     1      21.752  47.521  48.772  1.00  0.00     0.167 HD
HETATM   26  C   UNL     1      23.441  48.578  49.506  1.00  0.00     0.208 A 
HETATM   27  C   UNL     1      24.259  44.135  49.384  1.00  0.00     0.019 A 
ENDBRANCH   2  18
TORSDOF 6
ENDMDL
MODEL 4
REMARK VINA RESULT:      -8.2      4.872      8.479
REMARK  6 active torsions:
REMARK  status: ('A' for Active; 'I' for Inactive)
REMARK    1  A    between atoms: O_2  and  C_3 
REMARK    2  A    between atoms: C_4  and  O_5 
REMARK    3  A    between atoms: O_5  and  C_6 
REMARK    4  A    between atoms: C_11  and  C_12 
REMARK    5  A    between atoms: C_12  and  N_13 
REMARK       I    between atoms: N_13  and  C_14 
REMARK    6  A    between atoms: C_14  and  C_15 
ROOT
HETATM    1  N   UNL     1      27.739  44.179  51.059  1.00  0.00    -0.353 N 
HETATM    2  C   UNL     1      27.294  43.827  52.315  1.00  0.00     0.252 C 
HETATM    3  O   UNL     1      26.167  43.393  52.526  1.00  0.00    -0.268 OA
HETATM    4  H   UNL     1      28.577  44.736  50.965  1.00  0.00     0.163 HD
ENDROOT
BRANCH   1   5
HETATM    5  C   UNL     1      26.848  44.121  49.924  1.00  0.00     0.161 C 
BRANCH   5   6
HETATM    6  C   UNL     1      26.072  45.405  49.799  1.00  0.00    -0.038 A 
HETATM    7  C   UNL     1      24.674  45.401  49.882  1.00  0.00     0.012 A 
HETATM    8  C   UNL     1      23.962  46.598  49.814  1.00  0.00     0.040 A 
HETATM    9  C   UNL     1      24.645  47.805  49.653  1.00  0.00     0.108 A 
HETATM   10  C   UNL     1      26.046  47.834  49.598  1.00  0.00     0.102 A 
HETATM   11  C   UNL     1      26.751  46.629  49.665  1.00  0.00     0.048 A 
BRANCH   9  12
HETATM   12  O   UNL     1      23.960  48.994  49.636  1.00  0.00    -0.287 OA
BRANCH  12  13
HETATM   13  C   UNL     1      23.312  49.190  48.389  1.00  0.00     0.505 C 
HETATM   14  F   UNL     1      22.194  49.934  48.592  1.00  0.00    -0.184 F 
HETATM   15  F   UNL     1      24.134  49.942  47.613  1.00  0.00    -0.184 F 
ENDBRANCH  12  13
ENDBRANCH   9  12
BRANCH  10  16
HETATM   16  O   UNL     1      26.619  49.070  49.447  1.00  0.00    -0.353 OA
HETATM   17  C   UNL     1      28.016  49.103  49.177  1.00  0.00     0.210 C 
ENDBRANCH  10  16
ENDBRANCH   5   6
ENDBRANCH   1   5
BRANCH   2  18
HETATM   18  C   UNL     1      28.243  44.038  53.446  1.00  0.00     0.034 A 
HETATM   19  C   UNL     1      28.075  45.088  54.362  1.00  0.00     0.051 A 
HETATM   20  C   UNL     1      29.003  45.219  55.405  1.00  0.00     0.085 A 
HETATM   21  C   UNL     1      30.065  44.325  55.498  1.00  0.00     0.062 A 
HETATM   22  N   UNL     1      29.051  46.143  56.419  1.00  0.00    -0.242 NA
HETATM   23  N   UNL     1      30.759  44.742  56.606  1.00  0.00    -0.349 N 
HETATM   24  C   UNL     1      30.272  43.283  54.594  1.00  0.00     0.033 A 
HETATM   25  H   UNL     1      31.600  44.320  56.973  1.00  0.00     0.167 HD
HETATM   26  C   UNL     1      30.114  45.830  57.123  1.00  0.00     0.208 A 
HETATM   27  C   UNL     1      29.334  43.160  53.561  1.00  0.00     0.019 A 
ENDBRANCH   2  18
TORSDOF 6
ENDMDL
MODEL 5
REMARK VINA RESULT:      -7.9      3.836      5.534
REMARK  6 active torsions:
REMARK  status: ('A' for Active; 'I' for Inactive)
REMARK    1  A    between atoms: O_2  and  C_3 
REMARK    2  A    between atoms: C_4  and  O_5 
REMARK    3  A    between atoms: O_5  and  C_6 
REMARK    4  A    between atoms: C_11  and  C_12 
REMARK    5  A    between atoms: C_12  and  N_13 
REMARK       I    between atoms: N_13  and  C_14 
REMARK    6  A    between atoms: C_14  and  C_15 
ROOT
HETATM    1  N   UNL     1      27.146  42.491  51.998  1.00  0.00    -0.353 N 
HETATM    2  C   UNL     1      27.205  42.827  50.663  1.00  0.00     0.252 C 
HETATM    3  O   UNL     1      27.068  43.975  50.257  1.00  0.00    -0.268 OA
HETATM    4  H   UNL     1      27.038  41.522  52.264  1.00  0.00     0.163 HD
ENDROOT
BRANCH   1   5
HETATM    5  C   UNL     1      26.835  43.491  52.991  1.00  0.00     0.161 C 
BRANCH   5   6
HETATM    6  C   UNL     1      28.022  43.728  53.887  1.00  0.00    -0.038 A 
HETATM    7  C   UNL     1      29.098  42.831  53.893  1.00  0.00     0.012 A 
HETATM    8  C   UNL     1      30.216  43.079  54.688  1.00  0.00     0.040 A 
HETATM    9  C   UNL     1      30.261  44.222  55.489  1.00  0.00     0.108 A 
HETATM   10  C   UNL     1      29.208  45.149  55.474  1.00  0.00     0.102 A 
HETATM   11  C   UNL     1      28.090  44.891  54.676  1.00  0.00     0.048 A 
BRANCH   9  12
HETATM   12  O   UNL     1      31.377  44.504  56.236  1.00  0.00    -0.287 OA
BRANCH  12  13
HETATM   13  C   UNL     1      31.444  43.671  57.382  1.00  0.00     0.505 C 
HETATM   14  F   UNL     1      32.503  42.829  57.246  1.00  0.00    -0.184 F 
HETATM   15  F   UNL     1      31.722  44.462  58.449  1.00  0.00    -0.184 F 
ENDBRANCH  12  13
ENDBRANCH   9  12
BRANCH  10  16
HETATM   16  O   UNL     1      29.353  46.241  56.289  1.00  0.00    -0.353 OA
HETATM   17  C   UNL     1      28.694  46.197  57.549  1.00  0.00     0.210 C 
ENDBRANCH  10  16
ENDBRANCH   5   6
ENDBRANCH   1   5
BRANCH   2  18
HETATM   18  C   UNL     1      27.408  41.708  49.698  1.00  0.00     0.034 A 
HETATM   19  C   UNL     1      28.230  40.612  50.004  1.00  0.00     0.051 A 
HETATM   20  C   UNL     1      28.366  39.593  49.050  1.00  0.00     0.085 A 
HETATM   21  C   UNL     1      27.704  39.697  47.832  1.00  0.00     0.062 A 
HETATM   22  N   UNL     1      29.093  38.430  49.115  1.00  0.00    -0.242 NA
HETATM   23  N   UNL     1      28.056  38.555  47.158  1.00  0.00    -0.349 N 
HETATM   24  C   UNL     1      26.895  40.780  47.489  1.00  0.00     0.033 A 
HETATM   25  H   UNL     1      27.758  38.297  46.229  1.00  0.00     0.167 HD
HETATM   26  C   UNL     1      28.887  37.829  47.965  1.00  0.00     0.208 A 
HETATM   27  C   UNL     1      26.763  41.788  48.452  1.00  0.00     0.019 A 
ENDBRANCH   2  18
TORSDOF 6
ENDMDL
MODEL 6
REMARK VINA RESULT:      -7.7      4.837      8.815
REMARK  6 active torsions:
REMARK  status: ('A' for Active; 'I' for Inactive)
REMARK    1  A    between atoms: O_2  and  C_3 
REMARK    2  A    between atoms: C_4  and  O_5 
REMARK    3  A    between atoms: O_5  and  C_6 
REMARK    4  A    between atoms: C_11  and  C_12 
REMARK    5  A    between atoms: C_12  and  N_13 
REMARK       I    between atoms: N_13  and  C_14 
REMARK    6  A    between atoms: C_14  and  C_15 
ROOT
HETATM    1  N   UNL     1      27.529  44.389  51.599  1.00  0.00    -0.353 N 
HETATM    2  C   UNL     1      28.125  43.363  52.299  1.00  0.00     0.252 C 
HETATM    3  O   UNL     1      28.042  42.188  51.961  1.00  0.00    -0.268 OA
HETATM    4  H   UNL     1      27.433  45.298  52.031  1.00  0.00     0.163 HD
ENDROOT
BRANCH   1   5
HETATM    5  C   UNL     1      26.700  44.108  50.452  1.00  0.00     0.161 C 
BRANCH   5   6
HETATM    6  C   UNL     1      25.719  45.227  50.225  1.00  0.00    -0.038 A 
HETATM    7  C   UNL     1      25.899  46.468  50.850  1.00  0.00     0.012 A 
HETATM    8  C   UNL     1      25.016  47.517  50.599  1.00  0.00     0.040 A 
HETATM    9  C   UNL     1      23.940  47.327  49.730  1.00  0.00     0.108 A 
HETATM   10  C   UNL     1      23.758  46.103  49.071  1.00  0.00     0.102 A 
HETATM   11  C   UNL     1      24.648  45.057  49.329  1.00  0.00     0.048 A 
BRANCH   9  12
HETATM   12  O   UNL     1      23.093  48.367  49.435  1.00  0.00    -0.287 OA
BRANCH  12  13
HETATM   13  C   UNL     1      23.803  49.454  48.865  1.00  0.00     0.505 C 
HETATM   14  F   UNL     1      23.503  49.523  47.541  1.00  0.00    -0.184 F 
HETATM   15  F   UNL     1      23.324  50.595  49.423  1.00  0.00    -0.184 F 
ENDBRANCH  12  13
ENDBRANCH   9  12
BRANCH  10  16
HETATM   16  O   UNL     1      22.678  46.023  48.232  1.00  0.00    -0.353 OA
HETATM   17  C   UNL     1      21.666  45.082  48.572  1.00  0.00     0.210 C 
ENDBRANCH  10  16
ENDBRANCH   5   6
ENDBRANCH   1   5
BRANCH   2  18
HETATM   18  C   UNL     1      28.860  43.738  53.542  1.00  0.00     0.034 A 
HETATM   19  C   UNL     1      28.429  44.792  54.363  1.00  0.00     0.051 A 
HETATM   20  C   UNL     1      29.166  45.081  55.520  1.00  0.00     0.085 A 
HETATM   21  C   UNL     1      30.303  44.337  55.816  1.00  0.00     0.062 A 
HETATM   22  N   UNL     1      28.947  46.042  56.476  1.00  0.00    -0.242 NA
HETATM   23  N   UNL     1      30.766  44.881  56.988  1.00  0.00    -0.349 N 
HETATM   24  C   UNL     1      30.769  43.296  55.013  1.00  0.00     0.033 A 
HETATM   25  H   UNL     1      31.587  44.585  57.496  1.00  0.00     0.167 HD
HETATM   26  C   UNL     1      29.922  45.895  57.343  1.00  0.00     0.208 A 
HETATM   27  C   UNL     1      30.020  43.014  53.864  1.00  0.00     0.019 A 
ENDBRANCH   2  18
TORSDOF 6
ENDMDL
MODEL 7
REMARK VINA RESULT:      -7.6      6.899     10.994
REMARK  6 active torsions:
REMARK  status: ('A' for Active; 'I' for Inactive)
REMARK    1  A    between atoms: O_2  and  C_3 
REMARK    2  A    between atoms: C_4  and  O_5 
REMARK    3  A    between atoms: O_5  and  C_6 
REMARK    4  A    between atoms: C_11  and  C_12 
REMARK    5  A    between atoms: C_12  and  N_13 
REMARK       I    between atoms: N_13  and  C_14 
REMARK    6  A    between atoms: C_14  and  C_15 
ROOT
HETATM    1  N   UNL     1      23.114  47.805  49.650  1.00  0.00    -0.353 N 
HETATM    2  C   UNL     1      24.432  47.754  50.046  1.00  0.00     0.252 C 
HETATM    3  O   UNL     1      25.264  48.588  49.709  1.00  0.00    -0.268 OA
HETATM    4  H   UNL     1      22.527  46.990  49.761  1.00  0.00     0.163 HD
ENDROOT
BRANCH   1   5
HETATM    5  C   UNL     1      22.665  48.828  48.734  1.00  0.00     0.161 C 
BRANCH   5   6
HETATM    6  C   UNL     1      21.356  49.409  49.198  1.00  0.00    -0.038 A 
HETATM    7  C   UNL     1      21.209  50.794  49.354  1.00  0.00     0.012 A 
HETATM    8  C   UNL     1      19.981  51.332  49.736  1.00  0.00     0.040 A 
HETATM    9  C   UNL     1      18.895  50.487  49.975  1.00  0.00     0.108 A 
HETATM   10  C   UNL     1      19.012  49.101  49.795  1.00  0.00     0.102 A 
HETATM   11  C   UNL     1      20.248  48.570  49.413  1.00  0.00     0.048 A 
BRANCH   9  12
HETATM   12  O   UNL     1      17.668  51.007  50.302  1.00  0.00    -0.287 OA
BRANCH  12  13
HETATM   13  C   UNL     1      17.196  51.874  49.283  1.00  0.00     0.505 C 
HETATM   14  F   UNL     1      15.915  51.534  48.982  1.00  0.00    -0.184 F 
HETATM   15  F   UNL     1      17.145  53.128  49.802  1.00  0.00    -0.184 F 
ENDBRANCH  12  13
ENDBRANCH   9  12
BRANCH  10  16
HETATM   16  O   UNL     1      17.886  48.362  50.047  1.00  0.00    -0.353 OA
HETATM   17  C   UNL     1      17.306  47.676  48.943  1.00  0.00     0.210 C 
ENDBRANCH  10  16
ENDBRANCH   5   6
ENDBRANCH   1   5
BRANCH   2  18
HETATM   18  C   UNL     1      24.833  46.592  50.892  1.00  0.00     0.034 A 
HETATM   19  C   UNL     1      25.684  46.745  51.998  1.00  0.00     0.051 A 
HETATM   20  C   UNL     1      26.010  45.608  52.752  1.00  0.00     0.085 A 
HETATM   21  C   UNL     1      25.502  44.368  52.381  1.00  0.00     0.062 A 
HETATM   22  N   UNL     1      26.803  45.500  53.867  1.00  0.00    -0.242 NA
HETATM   23  N   UNL     1      26.016  43.502  53.314  1.00  0.00    -0.349 N 
HETATM   24  C   UNL     1      24.670  44.178  51.278  1.00  0.00     0.033 A 
HETATM   25  H   UNL     1      25.856  42.506  53.351  1.00  0.00     0.167 HD
HETATM   26  C   UNL     1      26.786  44.225  54.181  1.00  0.00     0.208 A 
HETATM   27  C   UNL     1      24.347  45.322  50.538  1.00  0.00     0.019 A 
ENDBRANCH   2  18
TORSDOF 6
ENDMDL
MODEL 8
REMARK VINA RESULT:      -7.5      3.694      4.508
REMARK  6 active torsions:
REMARK  status: ('A' for Active; 'I' for Inactive)
REMARK    1  A    between atoms: O_2  and  C_3 
REMARK    2  A    between atoms: C_4  and  O_5 
REMARK    3  A    between atoms: O_5  and  C_6 
REMARK    4  A    between atoms: C_11  and  C_12 
REMARK    5  A    between atoms: C_12  and  N_13 
REMARK       I    between atoms: N_13  and  C_14 
REMARK    6  A    between atoms: C_14  and  C_15 
ROOT
HETATM    1  N   UNL     1      27.260  41.710  52.742  1.00  0.00    -0.353 N 
HETATM    2  C   UNL     1      27.176  41.259  51.442  1.00  0.00     0.252 C 
HETATM    3  O   UNL     1      28.051  40.583  50.913  1.00  0.00    -0.268 OA
HETATM    4  H   UNL     1      26.636  42.440  53.057  1.00  0.00     0.163 HD
ENDROOT
BRANCH   1   5
HETATM    5  C   UNL     1      28.444  41.461  53.528  1.00  0.00     0.161 C 
BRANCH   5   6
HETATM    6  C   UNL     1      28.878  42.717  54.236  1.00  0.00    -0.038 A 
HETATM    7  C   UNL     1      28.006  43.808  54.347  1.00  0.00     0.012 A 
HETATM    8  C   UNL     1      28.394  44.950  55.045  1.00  0.00     0.040 A 
HETATM    9  C   UNL     1      29.660  45.012  55.629  1.00  0.00     0.108 A 
HETATM   10  C   UNL     1      30.537  43.919  55.557  1.00  0.00     0.102 A 
HETATM   11  C   UNL     1      30.140  42.779  54.853  1.00  0.00     0.048 A 
BRANCH   9  12
HETATM   12  O   UNL     1      30.035  46.110  56.363  1.00  0.00    -0.287 OA
BRANCH  12  13
HETATM   13  C   UNL     1      29.421  46.100  57.642  1.00  0.00     0.505 C 
HETATM   14  F   UNL     1      29.377  44.819  58.093  1.00  0.00    -0.184 F 
HETATM   15  F   UNL     1      30.234  46.775  58.492  1.00  0.00    -0.184 F 
ENDBRANCH  12  13
ENDBRANCH   9  12
BRANCH  10  16
HETATM   16  O   UNL     1      31.752  44.078  56.171  1.00  0.00    -0.353 OA
HETATM   17  C   UNL     1      32.046  43.202  57.253  1.00  0.00     0.210 C 
ENDBRANCH  10  16
ENDBRANCH   5   6
ENDBRANCH   1   5
BRANCH   2  18
HETATM   18  C   UNL     1      25.970  41.670  50.666  1.00  0.00     0.034 A 
HETATM   19  C   UNL     1      25.172  42.753  51.066  1.00  0.00     0.051 A 
HETATM   20  C   UNL     1      24.057  43.085  50.281  1.00  0.00     0.085 A 
HETATM   21  C   UNL     1      23.763  42.334  49.149  1.00  0.00     0.062 A 
HETATM   22  N   UNL     1      23.140  44.092  50.453  1.00  0.00    -0.242 NA
HETATM   23  N   UNL     1      22.634  42.922  48.639  1.00  0.00    -0.349 N 
HETATM   24  C   UNL     1      24.525  41.241  48.735  1.00  0.00     0.033 A 
HETATM   25  H   UNL     1      22.135  42.631  47.810  1.00  0.00     0.167 HD
HETATM   26  C   UNL     1      22.300  43.969  49.451  1.00  0.00     0.208 A 
HETATM   27  C   UNL     1      25.638  40.923  49.524  1.00  0.00     0.019 A 
ENDBRANCH   2  18
TORSDOF 6
ENDMDL
MODEL 9
REMARK VINA RESULT:      -7.5      4.327      6.636
REMARK  6 active torsions:
REMARK  status: ('A' for Active; 'I' for Inactive)
REMARK    1  A    between atoms: O_2  and  C_3 
REMARK    2  A    between atoms: C_4  and  O_5 
REMARK    3  A    between atoms: O_5  and  C_6 
REMARK    4  A    between atoms: C_11  and  C_12 
REMARK    5  A    between atoms: C_12  and  N_13 
REMARK       I    between atoms: N_13  and  C_14 
REMARK    6  A    between atoms: C_14  and  C_15 
ROOT
HETATM    1  N   UNL     1      23.146  48.324  49.731  1.00  0.00    -0.353 N 
HETATM    2  C   UNL     1      22.516  48.989  48.702  1.00  0.00     0.252 C 
HETATM    3  O   UNL     1      23.028  49.152  47.600  1.00  0.00    -0.268 OA
HETATM    4  H   UNL     1      22.789  48.410  50.672  1.00  0.00     0.163 HD
ENDROOT
BRANCH   1   5
HETATM    5  C   UNL     1      24.499  47.846  49.574  1.00  0.00     0.161 C 
BRANCH   5   6
HETATM    6  C   UNL     1      24.818  46.816  50.624  1.00  0.00    -0.038 A 
HETATM    7  C   UNL     1      25.580  47.159  51.749  1.00  0.00     0.012 A 
HETATM    8  C   UNL     1      25.831  46.215  52.743  1.00  0.00     0.040 A 
HETATM    9  C   UNL     1      25.331  44.918  52.613  1.00  0.00     0.108 A 
HETATM   10  C   UNL     1      24.541  44.562  51.510  1.00  0.00     0.102 A 
HETATM   11  C   UNL     1      24.295  45.515  50.518  1.00  0.00     0.048 A 
BRANCH   9  12
HETATM   12  O   UNL     1      25.529  43.994  53.608  1.00  0.00    -0.287 OA
BRANCH  12  13
HETATM   13  C   UNL     1      26.874  44.011  54.058  1.00  0.00     0.505 C 
HETATM   14  F   UNL     1      26.905  44.525  55.316  1.00  0.00    -0.184 F 
HETATM   15  F   UNL     1      27.288  42.723  54.163  1.00  0.00    -0.184 F 
ENDBRANCH  12  13
ENDBRANCH   9  12
BRANCH  10  16
HETATM   16  O   UNL     1      24.091  43.268  51.482  1.00  0.00    -0.353 OA
HETATM   17  C   UNL     1      23.695  42.751  50.217  1.00  0.00     0.210 C 
ENDBRANCH  10  16
ENDBRANCH   5   6
ENDBRANCH   1   5
BRANCH   2  18
HETATM   18  C   UNL     1      21.168  49.555  48.995  1.00  0.00     0.034 A 
HETATM   19  C   UNL     1      20.845  50.885  48.685  1.00  0.00     0.051 A 
HETATM   20  C   UNL     1      19.554  51.346  48.983  1.00  0.00     0.085 A 
HETATM   21  C   UNL     1      18.640  50.489  49.586  1.00  0.00     0.062 A 
HETATM   22  N   UNL     1      18.999  52.583  48.771  1.00  0.00    -0.242 NA
HETATM   23  N   UNL     1      17.509  51.252  49.733  1.00  0.00    -0.349 N 
HETATM   24  C   UNL     1      18.934  49.168  49.925  1.00  0.00     0.033 A 
HETATM   25  H   UNL     1      16.637  50.950  50.142  1.00  0.00     0.167 HD
HETATM   26  C   UNL     1      17.772  52.496  49.230  1.00  0.00     0.208 A 
HETATM   27  C   UNL     1      20.225  48.720  49.617  1.00  0.00     0.019 A 
ENDBRANCH   2  18
TORSDOF 6
ENDMDL
MODEL 10
REMARK VINA RESULT:      -7.3      4.730      5.858
REMARK  6 active torsions:
REMARK  status: ('A' for Active; 'I' for Inactive)
REMARK    1  A    between atoms: O_2  and  C_3 
REMARK    2  A    between atoms: C_4  and  O_5 
REMARK    3  A    between atoms: O_5  and  C_6 
REMARK    4  A    between atoms: C_11  and  C_12 
REMARK    5  A    between atoms: C_12  and  N_13 
REMARK       I    between atoms: N_13  and  C_14 
REMARK    6  A    between atoms: C_14  and  C_15 
ROOT
HETATM    1  N   UNL     1      28.291  41.299  51.628  1.00  0.00    -0.353 N 
HETATM    2  C   UNL     1      28.418  40.298  50.690  1.00  0.00     0.252 C 
HETATM    3  O   UNL     1      29.051  39.268  50.894  1.00  0.00    -0.268 OA
HETATM    4  H   UNL     1      27.961  42.210  51.343  1.00  0.00     0.163 HD
ENDROOT
BRANCH   1   5
HETATM    5  C   UNL     1      28.978  41.207  52.894  1.00  0.00     0.161 C 
BRANCH   5   6
HETATM    6  C   UNL     1      28.875  42.508  53.644  1.00  0.00    -0.038 A 
HETATM    7  C   UNL     1      27.673  43.227  53.658  1.00  0.00     0.012 A 
HETATM    8  C   UNL     1      27.568  44.407  54.393  1.00  0.00     0.040 A 
HETATM    9  C   UNL     1      28.668  44.880  55.111  1.00  0.00     0.108 A 
HETATM   10  C   UNL     1      29.871  44.160  55.135  1.00  0.00     0.102 A 
HETATM   11  C   UNL     1      29.968  42.979  54.394  1.00  0.00     0.048 A 
BRANCH   9  12
HETATM   12  O   UNL     1      28.562  46.012  55.879  1.00  0.00    -0.287 OA
BRANCH  12  13
HETATM   13  C   UNL     1      27.771  46.995  55.230  1.00  0.00     0.505 C 
HETATM   14  F   UNL     1      27.158  47.754  56.175  1.00  0.00    -0.184 F 
HETATM   15  F   UNL     1      28.613  47.824  54.562  1.00  0.00    -0.184 F 
ENDBRANCH  12  13
ENDBRANCH   9  12
BRANCH  10  16
HETATM   16  O   UNL     1      30.886  44.705  55.877  1.00  0.00    -0.353 OA
HETATM   17  C   UNL     1      31.378  43.929  56.964  1.00  0.00     0.210 C 
ENDBRANCH  10  16
ENDBRANCH   5   6
ENDBRANCH   1   5
BRANCH   2  18
HETATM   18  C   UNL     1      27.776  40.535  49.365  1.00  0.00     0.034 A 
HETATM   19  C   UNL     1      26.387  40.695  49.238  1.00  0.00     0.051 A 
HETATM   20  C   UNL     1      25.856  40.924  47.960  1.00  0.00     0.085 A 
HETATM   21  C   UNL     1      26.704  40.970  46.860  1.00  0.00     0.062 A 
HETATM   22  N   UNL     1      24.551  41.119  47.582  1.00  0.00    -0.242 NA
HETATM   23  N   UNL     1      25.866  41.201  45.798  1.00  0.00    -0.349 N 
HETATM   24  C   UNL     1      28.085  40.797  46.948  1.00  0.00     0.033 A 
HETATM   25  H   UNL     1      26.143  41.292  44.831  1.00  0.00     0.167 HD
HETATM   26  C   UNL     1      24.590  41.284  46.279  1.00  0.00     0.208 A 
HETATM   27  C   UNL     1      28.604  40.576  48.230  1.00  0.00     0.019 A 
ENDBRANCH   2  18
TORSDOF 6
ENDMDL
