MODEL 1
REMARK VINA RESULT:      -8.4      0.000      0.000
REMARK  6 active torsions:
REMARK  status: ('A' for Active; 'I' for Inactive)
REMARK    1  A    between atoms: C_2  and  O_3 
REMARK    2  A    between atoms: O_3  and  C_4 
REMARK    3  A    between atoms: C_13  and  C_14 
REMARK    4  A    between atoms: C_14  and  N_15 
REMARK    5  A    between atoms: N_15  and  C_16 
REMARK    6  A    between atoms: C_19  and  O_20 
ROOT
HETATM    1  C   UNL     1      24.501  49.657  48.369  1.00  0.00     0.070 A 
HETATM    2  C   UNL     1      23.888  48.587  49.027  1.00  0.00     0.067 A 
HETATM    3  C   UNL     1      24.666  47.629  49.676  1.00  0.00     0.048 A 
HETATM    4  C   UNL     1      26.060  47.727  49.680  1.00  0.00    -0.009 A 
HETATM    5  C   UNL     1      26.672  48.802  49.033  1.00  0.00     0.016 A 
HETATM    6  C   UNL     1      25.894  49.764  48.379  1.00  0.00     0.038 A 
HETATM    7  N   UNL     1      24.055  46.552  50.329  1.00  0.00    -0.322 N 
HETATM    8  C   UNL     1      24.748  45.570  50.987  1.00  0.00     0.253 A 
HETATM    9  O   UNL     1      24.162  44.656  51.560  1.00  0.00    -0.268 OA
HETATM   10  C   UNL     1      26.237  45.663  50.975  1.00  0.00     0.024 A 
HETATM   11  C   UNL     1      26.842  46.690  50.352  1.00  0.00     0.027 A 
HETATM   12  H   UNL     1      23.047  46.472  50.345  1.00  0.00     0.169 HD
ENDROOT
BRANCH  10  13
HETATM   13  C   UNL     1      26.991  44.538  51.624  1.00  0.00     0.136 C 
BRANCH  13  14
HETATM   14  N   UNL     1      26.853  44.655  53.072  1.00  0.00    -0.289 NA
HETATM   15  H   UNL     1      26.025  44.157  53.398  1.00  0.00     0.128 HD
BRANCH  14  16
HETATM   16  C   UNL     1      27.951  44.365  53.894  1.00  0.00     0.008 A 
HETATM   17  C   UNL     1      28.778  43.250  53.731  1.00  0.00     0.026 A 
HETATM   18  C   UNL     1      29.913  43.070  54.531  1.00  0.00     0.038 A 
HETATM   19  C   UNL     1      30.270  44.015  55.492  1.00  0.00     0.068 A 
HETATM   20  C   UNL     1      29.478  45.148  55.644  1.00  0.00     0.038 A 
HETATM   21  C   UNL     1      28.341  45.322  54.842  1.00  0.00     0.026 A 
BRANCH  19  22
HETATM   22  O   UNL     1      31.404  43.720  56.196  1.00  0.00    -0.356 OA
HETATM   23  C   UNL     1      31.396  44.030  57.583  1.00  0.00     0.210 C 
ENDBRANCH  19  22
ENDBRANCH  14  16
ENDBRANCH  13  14
ENDBRANCH  10  13
BRANCH   1  24
HETATM   24  O   UNL     1      23.635  50.522  47.759  1.00  0.00    -0.351 OA
BRANCH  24  25
HETATM   25  C   UNL     1      22.265  50.127  47.685  1.00  0.00     0.171 C 
HETATM   26  C   UNL     1      21.432  51.190  48.378  1.00  0.00     0.034 C 
ENDBRANCH  24  25
ENDBRANCH   1  24
TORSDOF 6
ENDMDL
MODEL 2
REMARK VINA RESULT:      -8.1      1.453      9.019
REMARK  6 active torsions:
REMARK  status: ('A' for Active; 'I' for Inactive)
REMARK    1  A    between atoms: C_2  and  O_3 
REMARK    2  A    between atoms: O_3  and  C_4 
REMARK    3  A    between atoms: C_13  and  C_14 
REMARK    4  A    between atoms: C_14  and  N_15 
REMARK    5  A    between atoms: N_15  and  C_16 
REMARK    6  A    between atoms: C_19  and  O_20 
ROOT
HETATM    1  C   UNL     1      29.968  44.969  55.804  1.00  0.00     0.070 A 
HETATM    2  C   UNL     1      29.066  46.023  55.631  1.00  0.00     0.067 A 
HETATM    3  C   UNL     1      28.048  45.921  54.685  1.00  0.00     0.048 A 
HETATM    4  C   UNL     1      27.913  44.770  53.903  1.00  0.00    -0.009 A 
HETATM    5  C   UNL     1      28.807  43.712  54.084  1.00  0.00     0.016 A 
HETATM    6  C   UNL     1      29.831  43.812  55.033  1.00  0.00     0.038 A 
HETATM    7  N   UNL     1      27.148  46.978  54.504  1.00  0.00    -0.322 N 
HETATM    8  C   UNL     1      26.123  46.957  53.595  1.00  0.00     0.253 A 
HETATM    9  O   UNL     1      25.350  47.905  53.489  1.00  0.00    -0.268 OA
HETATM   10  C   UNL     1      25.991  45.737  52.747  1.00  0.00     0.024 A 
HETATM   11  C   UNL     1      26.846  44.711  52.906  1.00  0.00     0.027 A 
HETATM   12  H   UNL     1      27.224  47.814  55.068  1.00  0.00     0.169 HD
ENDROOT
BRANCH  10  13
HETATM   13  C   UNL     1      24.919  45.755  51.695  1.00  0.00     0.136 C 
BRANCH  13  14
HETATM   14  N   UNL     1      25.535  46.030  50.401  1.00  0.00    -0.289 NA
HETATM   15  H   UNL     1      25.516  45.202  49.807  1.00  0.00     0.128 HD
BRANCH  14  16
HETATM   16  C   UNL     1      25.135  47.160  49.675  1.00  0.00     0.008 A 
HETATM   17  C   UNL     1      23.811  47.433  49.318  1.00  0.00     0.026 A 
HETATM   18  C   UNL     1      23.469  48.627  48.671  1.00  0.00     0.038 A 
HETATM   19  C   UNL     1      24.434  49.595  48.395  1.00  0.00     0.068 A 
HETATM   20  C   UNL     1      25.750  49.355  48.776  1.00  0.00     0.038 A 
HETATM   21  C   UNL     1      26.088  48.157  49.420  1.00  0.00     0.026 A 
BRANCH  19  22
HETATM   22  O   UNL     1      23.963  50.715  47.769  1.00  0.00    -0.356 OA
HETATM   23  C   UNL     1      22.743  51.257  48.257  1.00  0.00     0.210 C 
ENDBRANCH  19  22
ENDBRANCH  14  16
ENDBRANCH  13  14
ENDBRANCH  10  13
BRANCH   1  24
HETATM   24  O   UNL     1      30.929  45.192  56.752  1.00  0.00    -0.351 OA
BRANCH  24  25
HETATM   25  C   UNL     1      31.103  44.188  57.751  1.00  0.00     0.171 C 
HETATM   26  C   UNL     1      32.209  43.255  57.291  1.00  0.00     0.034 C 
ENDBRANCH  24  25
ENDBRANCH   1  24
TORSDOF 6
ENDMDL
MODEL 3
REMARK VINA RESULT:      -8.0      1.636      8.283
REMARK  6 active torsions:
REMARK  status: ('A' for Active; 'I' for Inactive)
REMARK    1  A    between atoms: C_2  and  O_3 
REMARK    2  A    between atoms: O_3  and  C_4 
REMARK    3  A    between atoms: C_13  and  C_14 
REMARK    4  A    between atoms: C_14  and  N_15 
REMARK    5  A    between atoms: N_15  and  C_16 
REMARK    6  A    between atoms: C_19  and  O_20 
ROOT
HETATM    1  C   UNL     1      30.140  44.069  55.211  1.00  0.00     0.070 A 
HETATM    2  C   UNL     1      28.827  44.534  55.102  1.00  0.00     0.067 A 
HETATM    3  C   UNL     1      28.014  44.091  54.060  1.00  0.00     0.048 A 
HETATM    4  C   UNL     1      28.497  43.179  53.118  1.00  0.00    -0.009 A 
HETATM    5  C   UNL     1      29.805  42.705  53.233  1.00  0.00     0.016 A 
HETATM    6  C   UNL     1      30.624  43.149  54.278  1.00  0.00     0.038 A 
HETATM    7  N   UNL     1      26.701  44.562  53.944  1.00  0.00    -0.322 N 
HETATM    8  C   UNL     1      25.841  44.178  52.949  1.00  0.00     0.253 A 
HETATM    9  O   UNL     1      24.691  44.607  52.903  1.00  0.00    -0.268 OA
HETATM   10  C   UNL     1      26.362  43.219  51.931  1.00  0.00     0.024 A 
HETATM   11  C   UNL     1      27.621  42.756  52.026  1.00  0.00     0.027 A 
HETATM   12  H   UNL     1      26.332  45.214  54.623  1.00  0.00     0.169 HD
ENDROOT
BRANCH  10  13
HETATM   13  C   UNL     1      25.442  42.868  50.797  1.00  0.00     0.136 C 
BRANCH  13  14
HETATM   14  N   UNL     1      25.835  43.635  49.620  1.00  0.00    -0.289 NA
HETATM   15  H   UNL     1      25.580  43.143  48.764  1.00  0.00     0.128 HD
BRANCH  14  16
HETATM   16  C   UNL     1      25.478  44.988  49.529  1.00  0.00     0.008 A 
HETATM   17  C   UNL     1      24.161  45.444  49.433  1.00  0.00     0.026 A 
HETATM   18  C   UNL     1      23.869  46.814  49.438  1.00  0.00     0.038 A 
HETATM   19  C   UNL     1      24.882  47.762  49.574  1.00  0.00     0.068 A 
HETATM   20  C   UNL     1      26.196  47.324  49.706  1.00  0.00     0.038 A 
HETATM   21  C   UNL     1      26.482  45.952  49.697  1.00  0.00     0.026 A 
BRANCH  19  22
HETATM   22  O   UNL     1      24.458  49.062  49.572  1.00  0.00    -0.356 OA
HETATM   23  C   UNL     1      24.862  49.866  48.473  1.00  0.00     0.210 C 
ENDBRANCH  19  22
ENDBRANCH  14  16
ENDBRANCH  13  14
ENDBRANCH  10  13
BRANCH   1  24
HETATM   24  O   UNL     1      30.842  44.586  56.266  1.00  0.00    -0.351 OA
BRANCH  24  25
HETATM   25  C   UNL     1      30.229  45.647  56.998  1.00  0.00     0.171 C 
HETATM   26  C   UNL     1      30.474  45.400  58.476  1.00  0.00     0.034 C 
ENDBRANCH  24  25
ENDBRANCH   1  24
TORSDOF 6
ENDMDL
MODEL 4
REMARK VINA RESULT:      -7.8      2.143      8.081
REMARK  6 active torsions:
REMARK  status: ('A' for Active; 'I' for Inactive)
REMARK    1  A    between atoms: C_2  and  O_3 
REMARK    2  A    between atoms: O_3  and  C_4 
REMARK    3  A    between atoms: C_13  and  C_14 
REMARK    4  A    between atoms: C_14  and  N_15 
REMARK    5  A    between atoms: N_15  and  C_16 
REMARK    6  A    between atoms: C_19  and  O_20 
ROOT
HETATM    1  C   UNL     1      29.483  45.313  55.722  1.00  0.00     0.070 A 
HETATM    2  C   UNL     1      29.200  44.291  54.813  1.00  0.00     0.067 A 
HETATM    3  C   UNL     1      28.045  44.349  54.035  1.00  0.00     0.048 A 
HETATM    4  C   UNL     1      27.161  45.426  54.149  1.00  0.00    -0.009 A 
HETATM    5  C   UNL     1      27.450  46.454  55.050  1.00  0.00     0.016 A 
HETATM    6  C   UNL     1      28.608  46.397  55.833  1.00  0.00     0.038 A 
HETATM    7  N   UNL     1      27.755  43.322  53.129  1.00  0.00    -0.322 N 
HETATM    8  C   UNL     1      26.641  43.304  52.331  1.00  0.00     0.253 A 
HETATM    9  O   UNL     1      26.443  42.387  51.538  1.00  0.00    -0.268 OA
HETATM   10  C   UNL     1      25.688  44.444  52.467  1.00  0.00     0.024 A 
HETATM   11  C   UNL     1      25.949  45.440  53.332  1.00  0.00     0.027 A 
HETATM   12  H   UNL     1      28.389  42.541  53.025  1.00  0.00     0.169 HD
ENDROOT
BRANCH  10  13
HETATM   13  C   UNL     1      24.429  44.376  51.651  1.00  0.00     0.136 C 
BRANCH  13  14
HETATM   14  N   UNL     1      24.767  44.587  50.248  1.00  0.00    -0.289 NA
HETATM   15  H   UNL     1      23.954  44.430  49.652  1.00  0.00     0.128 HD
BRANCH  14  16
HETATM   16  C   UNL     1      25.429  45.762  49.868  1.00  0.00     0.008 A 
HETATM   17  C   UNL     1      24.829  47.024  49.838  1.00  0.00     0.026 A 
HETATM   18  C   UNL     1      25.574  48.171  49.538  1.00  0.00     0.038 A 
HETATM   19  C   UNL     1      26.945  48.092  49.293  1.00  0.00     0.068 A 
HETATM   20  C   UNL     1      27.565  46.848  49.354  1.00  0.00     0.038 A 
HETATM   21  C   UNL     1      26.814  45.703  49.652  1.00  0.00     0.026 A 
BRANCH  19  22
HETATM   22  O   UNL     1      27.551  49.287  49.022  1.00  0.00    -0.356 OA
HETATM   23  C   UNL     1      26.774  50.258  48.335  1.00  0.00     0.210 C 
ENDBRANCH  19  22
ENDBRANCH  14  16
ENDBRANCH  13  14
ENDBRANCH  10  13
BRANCH   1  24
HETATM   24  O   UNL     1      30.636  45.137  56.437  1.00  0.00    -0.351 OA
BRANCH  24  25
HETATM   25  C   UNL     1      31.446  44.012  56.098  1.00  0.00     0.171 C 
HETATM   26  C   UNL     1      31.612  43.161  57.345  1.00  0.00     0.034 C 
ENDBRANCH  24  25
ENDBRANCH   1  24
TORSDOF 6
ENDMDL
MODEL 5
REMARK VINA RESULT:      -7.6      1.621      8.665
REMARK  6 active torsions:
REMARK  status: ('A' for Active; 'I' for Inactive)
REMARK    1  A    between atoms: C_2  and  O_3 
REMARK    2  A    between atoms: O_3  and  C_4 
REMARK    3  A    between atoms: C_13  and  C_14 
REMARK    4  A    between atoms: C_14  and  N_15 
REMARK    5  A    between atoms: N_15  and  C_16 
REMARK    6  A    between atoms: C_19  and  O_20 
ROOT
HETATM    1  C   UNL     1      29.301  43.544  54.712  1.00  0.00     0.070 A 
HETATM    2  C   UNL     1      28.787  42.669  53.751  1.00  0.00     0.067 A 
HETATM    3  C   UNL     1      27.643  43.015  53.034  1.00  0.00     0.048 A 
HETATM    4  C   UNL     1      27.000  44.235  53.261  1.00  0.00    -0.009 A 
HETATM    5  C   UNL     1      27.520  45.114  54.213  1.00  0.00     0.016 A 
HETATM    6  C   UNL     1      28.667  44.769  54.936  1.00  0.00     0.038 A 
HETATM    7  N   UNL     1      27.121  42.137  52.076  1.00  0.00    -0.322 N 
HETATM    8  C   UNL     1      26.002  42.401  51.332  1.00  0.00     0.253 A 
HETATM    9  O   UNL     1      25.597  41.604  50.490  1.00  0.00    -0.268 OA
HETATM   10  C   UNL     1      25.304  43.695  51.588  1.00  0.00     0.024 A 
HETATM   11  C   UNL     1      25.790  44.551  52.505  1.00  0.00     0.027 A 
HETATM   12  H   UNL     1      27.580  41.255  51.891  1.00  0.00     0.169 HD
ENDROOT
BRANCH  10  13
HETATM   13  C   UNL     1      24.031  43.940  50.830  1.00  0.00     0.136 C 
BRANCH  13  14
HETATM   14  N   UNL     1      24.363  44.507  49.527  1.00  0.00    -0.289 NA
HETATM   15  H   UNL     1      23.849  44.034  48.784  1.00  0.00     0.128 HD
BRANCH  14  16
HETATM   16  C   UNL     1      24.311  45.896  49.346  1.00  0.00     0.008 A 
HETATM   17  C   UNL     1      23.151  46.599  49.011  1.00  0.00     0.026 A 
HETATM   18  C   UNL     1      23.149  47.997  48.937  1.00  0.00     0.038 A 
HETATM   19  C   UNL     1      24.298  48.731  49.228  1.00  0.00     0.068 A 
HETATM   20  C   UNL     1      25.453  48.050  49.598  1.00  0.00     0.038 A 
HETATM   21  C   UNL     1      25.449  46.650  49.668  1.00  0.00     0.026 A 
BRANCH  19  22
HETATM   22  O   UNL     1      24.156  50.087  49.126  1.00  0.00    -0.356 OA
HETATM   23  C   UNL     1      23.472  50.575  47.980  1.00  0.00     0.210 C 
ENDBRANCH  19  22
ENDBRANCH  14  16
ENDBRANCH  13  14
ENDBRANCH  10  13
BRANCH   1  24
HETATM   24  O   UNL     1      30.417  43.089  55.359  1.00  0.00    -0.351 OA
BRANCH  24  25
HETATM   25  C   UNL     1      31.141  44.031  56.149  1.00  0.00     0.171 C 
HETATM   26  C   UNL     1      31.886  43.264  57.228  1.00  0.00     0.034 C 
ENDBRANCH  24  25
ENDBRANCH   1  24
TORSDOF 6
ENDMDL
MODEL 6
REMARK VINA RESULT:      -7.4      1.848      9.113
REMARK  6 active torsions:
REMARK  status: ('A' for Active; 'I' for Inactive)
REMARK    1  A    between atoms: C_2  and  O_3 
REMARK    2  A    between atoms: O_3  and  C_4 
REMARK    3  A    between atoms: C_13  and  C_14 
REMARK    4  A    between atoms: C_14  and  N_15 
REMARK    5  A    between atoms: N_15  and  C_16 
REMARK    6  A    between atoms: C_19  and  O_20 
ROOT
HETATM    1  C   UNL     1      28.188  45.910  55.225  1.00  0.00     0.070 A 
HETATM    2  C   UNL     1      27.877  45.017  54.196  1.00  0.00     0.067 A 
HETATM    3  C   UNL     1      27.006  45.401  53.178  1.00  0.00     0.048 A 
HETATM    4  C   UNL     1      26.439  46.678  53.170  1.00  0.00    -0.009 A 
HETATM    5  C   UNL     1      26.759  47.575  54.191  1.00  0.00     0.016 A 
HETATM    6  C   UNL     1      27.632  47.191  55.215  1.00  0.00     0.038 A 
HETATM    7  N   UNL     1      26.686  44.505  52.151  1.00  0.00    -0.322 N 
HETATM    8  C   UNL     1      25.839  44.805  51.117  1.00  0.00     0.253 A 
HETATM    9  O   UNL     1      25.606  43.988  50.230  1.00  0.00    -0.268 OA
HETATM   10  C   UNL     1      25.217  46.161  51.118  1.00  0.00     0.024 A 
HETATM   11  C   UNL     1      25.512  47.036  52.097  1.00  0.00     0.027 A 
HETATM   12  H   UNL     1      27.096  43.581  52.136  1.00  0.00     0.169 HD
ENDROOT
BRANCH  10  13
HETATM   13  C   UNL     1      24.225  46.454  50.029  1.00  0.00     0.136 C 
BRANCH  13  14
HETATM   14  N   UNL     1      24.610  47.694  49.364  1.00  0.00    -0.289 NA
HETATM   15  H   UNL     1      25.184  47.502  48.544  1.00  0.00     0.128 HD
BRANCH  14  16
HETATM   16  C   UNL     1      23.626  48.645  49.059  1.00  0.00     0.008 A 
HETATM   17  C   UNL     1      22.253  48.416  49.177  1.00  0.00     0.026 A 
HETATM   18  C   UNL     1      21.327  49.441  48.943  1.00  0.00     0.038 A 
HETATM   19  C   UNL     1      21.751  50.729  48.618  1.00  0.00     0.068 A 
HETATM   20  C   UNL     1      23.115  50.983  48.531  1.00  0.00     0.038 A 
HETATM   21  C   UNL     1      24.037  49.953  48.763  1.00  0.00     0.026 A 
BRANCH  19  22
HETATM   22  O   UNL     1      20.744  51.634  48.425  1.00  0.00    -0.356 OA
HETATM   23  C   UNL     1      19.518  51.129  47.913  1.00  0.00     0.210 C 
ENDBRANCH  19  22
ENDBRANCH  14  16
ENDBRANCH  13  14
ENDBRANCH  10  13
BRANCH   1  24
HETATM   24  O   UNL     1      29.042  45.414  56.172  1.00  0.00    -0.351 OA
BRANCH  24  25
HETATM   25  C   UNL     1      29.015  46.030  57.459  1.00  0.00     0.171 C 
HETATM   26  C   UNL     1      30.294  45.653  58.186  1.00  0.00     0.034 C 
ENDBRANCH  24  25
ENDBRANCH   1  24
TORSDOF 6
ENDMDL
MODEL 7
REMARK VINA RESULT:      -7.3      5.479      9.066
REMARK  6 active torsions:
REMARK  status: ('A' for Active; 'I' for Inactive)
REMARK    1  A    between atoms: C_2  and  O_3 
REMARK    2  A    between atoms: O_3  and  C_4 
REMARK    3  A    between atoms: C_13  and  C_14 
REMARK    4  A    between atoms: C_14  and  N_15 
REMARK    5  A    between atoms: N_15  and  C_16 
REMARK    6  A    between atoms: C_19  and  O_20 
ROOT
HETATM    1  C   UNL     1      29.598  45.048  55.459  1.00  0.00     0.070 A 
HETATM    2  C   UNL     1      28.523  44.904  54.577  1.00  0.00     0.067 A 
HETATM    3  C   UNL     1      28.450  43.789  53.743  1.00  0.00     0.048 A 
HETATM    4  C   UNL     1      29.442  42.805  53.780  1.00  0.00    -0.009 A 
HETATM    5  C   UNL     1      30.509  42.943  54.669  1.00  0.00     0.016 A 
HETATM    6  C   UNL     1      30.586  44.062  55.507  1.00  0.00     0.038 A 
HETATM    7  N   UNL     1      27.380  43.646  52.853  1.00  0.00    -0.322 N 
HETATM    8  C   UNL     1      27.236  42.584  52.000  1.00  0.00     0.253 A 
HETATM    9  O   UNL     1      26.267  42.497  51.252  1.00  0.00    -0.268 OA
HETATM   10  C   UNL     1      28.304  41.542  52.025  1.00  0.00     0.024 A 
HETATM   11  C   UNL     1      29.342  41.663  52.873  1.00  0.00     0.027 A 
HETATM   12  H   UNL     1      26.647  44.344  52.821  1.00  0.00     0.169 HD
ENDROOT
BRANCH  10  13
HETATM   13  C   UNL     1      28.185  40.424  51.030  1.00  0.00     0.136 C 
BRANCH  13  14
HETATM   14  N   UNL     1      28.587  40.920  49.717  1.00  0.00    -0.289 NA
HETATM   15  H   UNL     1      29.490  41.390  49.768  1.00  0.00     0.128 HD
BRANCH  14  16
HETATM   16  C   UNL     1      28.549  40.055  48.614  1.00  0.00     0.008 A 
HETATM   17  C   UNL     1      28.830  38.688  48.681  1.00  0.00     0.026 A 
HETATM   18  C   UNL     1      28.684  37.865  47.557  1.00  0.00     0.038 A 
HETATM   19  C   UNL     1      28.220  38.379  46.348  1.00  0.00     0.068 A 
HETATM   20  C   UNL     1      27.901  39.731  46.273  1.00  0.00     0.038 A 
HETATM   21  C   UNL     1      28.052  40.551  47.400  1.00  0.00     0.026 A 
BRANCH  19  22
HETATM   22  O   UNL     1      28.116  37.466  45.336  1.00  0.00    -0.356 OA
HETATM   23  C   UNL     1      29.322  37.088  44.687  1.00  0.00     0.210 C 
ENDBRANCH  19  22
ENDBRANCH  14  16
ENDBRANCH  13  14
ENDBRANCH  10  13
BRANCH   1  24
HETATM   24  O   UNL     1      29.566  46.188  56.214  1.00  0.00    -0.351 OA
BRANCH  24  25
HETATM   25  C   UNL     1      29.025  46.081  57.531  1.00  0.00     0.171 C 
HETATM   26  C   UNL     1      30.167  45.770  58.483  1.00  0.00     0.034 C 
ENDBRANCH  24  25
ENDBRANCH   1  24
TORSDOF 6
ENDMDL
MODEL 8
REMARK VINA RESULT:      -7.3      5.567     11.764
REMARK  6 active torsions:
REMARK  status: ('A' for Active; 'I' for Inactive)
REMARK    1  A    between atoms: C_2  and  O_3 
REMARK    2  A    between atoms: O_3  and  C_4 
REMARK    3  A    between atoms: C_13  and  C_14 
REMARK    4  A    between atoms: C_14  and  N_15 
REMARK    5  A    between atoms: N_15  and  C_16 
REMARK    6  A    between atoms: C_19  and  O_20 
ROOT
HETATM    1  C   UNL     1      23.982  49.579  48.729  1.00  0.00     0.070 A 
HETATM    2  C   UNL     1      22.886  49.171  49.494  1.00  0.00     0.067 A 
HETATM    3  C   UNL     1      21.700  49.902  49.459  1.00  0.00     0.048 A 
HETATM    4  C   UNL     1      21.589  51.043  48.659  1.00  0.00    -0.009 A 
HETATM    5  C   UNL     1      22.680  51.444  47.885  1.00  0.00     0.016 A 
HETATM    6  C   UNL     1      23.873  50.713  47.920  1.00  0.00     0.038 A 
HETATM    7  N   UNL     1      20.603  49.501  50.231  1.00  0.00    -0.322 N 
HETATM    8  C   UNL     1      19.405  50.165  50.253  1.00  0.00     0.253 A 
HETATM    9  O   UNL     1      18.467  49.760  50.934  1.00  0.00    -0.268 OA
HETATM   10  C   UNL     1      19.293  51.394  49.414  1.00  0.00     0.024 A 
HETATM   11  C   UNL     1      20.336  51.796  48.666  1.00  0.00     0.027 A 
HETATM   12  H   UNL     1      20.662  48.672  50.807  1.00  0.00     0.169 HD
ENDROOT
BRANCH  10  13
HETATM   13  C   UNL     1      18.006  52.164  49.508  1.00  0.00     0.136 C 
BRANCH  13  14
HETATM   14  N   UNL     1      17.601  52.565  48.165  1.00  0.00    -0.289 NA
HETATM   15  H   UNL     1      18.397  52.920  47.637  1.00  0.00     0.128 HD
BRANCH  14  16
HETATM   16  C   UNL     1      16.850  51.680  47.379  1.00  0.00     0.008 A 
HETATM   17  C   UNL     1      16.948  51.593  45.988  1.00  0.00     0.026 A 
HETATM   18  C   UNL     1      16.236  50.622  45.273  1.00  0.00     0.038 A 
HETATM   19  C   UNL     1      15.434  49.691  45.932  1.00  0.00     0.068 A 
HETATM   20  C   UNL     1      15.353  49.741  47.320  1.00  0.00     0.038 A 
HETATM   21  C   UNL     1      16.066  50.716  48.030  1.00  0.00     0.026 A 
BRANCH  19  22
HETATM   22  O   UNL     1      14.803  48.795  45.116  1.00  0.00    -0.356 OA
HETATM   23  C   UNL     1      13.663  48.135  45.650  1.00  0.00     0.210 C 
ENDBRANCH  19  22
ENDBRANCH  14  16
ENDBRANCH  13  14
ENDBRANCH  10  13
BRANCH   1  24
HETATM   24  O   UNL     1      25.092  48.790  48.858  1.00  0.00    -0.351 OA
BRANCH  24  25
HETATM   25  C   UNL     1      26.347  49.370  48.504  1.00  0.00     0.171 C 
HETATM   26  C   UNL     1      27.434  48.647  49.281  1.00  0.00     0.034 C 
ENDBRANCH  24  25
ENDBRANCH   1  24
TORSDOF 6
ENDMDL
MODEL 9
REMARK VINA RESULT:      -7.3      5.616     11.341
REMARK  6 active torsions:
REMARK  status: ('A' for Active; 'I' for Inactive)
REMARK    1  A    between atoms: C_2  and  O_3 
REMARK    2  A    between atoms: O_3  and  C_4 
REMARK    3  A    between atoms: C_13  and  C_14 
REMARK    4  A    between atoms: C_14  and  N_15 
REMARK    5  A    between atoms: N_15  and  C_16 
REMARK    6  A    between atoms: C_19  and  O_20 
ROOT
HETATM    1  C   UNL     1      24.186  49.464  48.786  1.00  0.00     0.070 A 
HETATM    2  C   UNL     1      23.098  48.706  49.230  1.00  0.00     0.067 A 
HETATM    3  C   UNL     1      21.826  49.272  49.275  1.00  0.00     0.048 A 
HETATM    4  C   UNL     1      21.619  50.596  48.876  1.00  0.00    -0.009 A 
HETATM    5  C   UNL     1      22.703  51.350  48.422  1.00  0.00     0.016 A 
HETATM    6  C   UNL     1      23.982  50.784  48.376  1.00  0.00     0.038 A 
HETATM    7  N   UNL     1      20.736  48.518  49.727  1.00  0.00    -0.322 N 
HETATM    8  C   UNL     1      19.457  49.000  49.804  1.00  0.00     0.253 A 
HETATM    9  O   UNL     1      18.533  48.290  50.190  1.00  0.00    -0.268 OA
HETATM   10  C   UNL     1      19.239  50.419  49.397  1.00  0.00     0.024 A 
HETATM   11  C   UNL     1      20.273  51.160  48.961  1.00  0.00     0.027 A 
HETATM   12  H   UNL     1      20.866  47.555  50.009  1.00  0.00     0.169 HD
ENDROOT
BRANCH  10  13
HETATM   13  C   UNL     1      17.850  50.967  49.564  1.00  0.00     0.136 C 
BRANCH  13  14
HETATM   14  N   UNL     1      17.006  50.437  48.498  1.00  0.00    -0.289 NA
HETATM   15  H   UNL     1      16.024  50.645  48.677  1.00  0.00     0.128 HD
BRANCH  14  16
HETATM   16  C   UNL     1      17.327  50.716  47.163  1.00  0.00     0.008 A 
HETATM   17  C   UNL     1      17.729  49.750  46.236  1.00  0.00     0.026 A 
HETATM   18  C   UNL     1      17.946  50.082  44.893  1.00  0.00     0.038 A 
HETATM   19  C   UNL     1      17.734  51.381  44.434  1.00  0.00     0.068 A 
HETATM   20  C   UNL     1      17.300  52.348  45.335  1.00  0.00     0.038 A 
HETATM   21  C   UNL     1      17.087  52.010  46.678  1.00  0.00     0.026 A 
BRANCH  19  22
HETATM   22  O   UNL     1      17.974  51.567  43.101  1.00  0.00    -0.356 OA
HETATM   23  C   UNL     1      18.880  50.664  42.481  1.00  0.00     0.210 C 
ENDBRANCH  19  22
ENDBRANCH  14  16
ENDBRANCH  13  14
ENDBRANCH  10  13
BRANCH   1  24
HETATM   24  O   UNL     1      25.384  48.804  48.799  1.00  0.00    -0.351 OA
BRANCH  24  25
HETATM   25  C   UNL     1      26.546  49.559  48.458  1.00  0.00     0.171 C 
HETATM   26  C   UNL     1      27.738  48.927  49.156  1.00  0.00     0.034 C 
ENDBRANCH  24  25
ENDBRANCH   1  24
TORSDOF 6
ENDMDL
MODEL 10
REMARK VINA RESULT:      -7.2      3.493      6.420
REMARK  6 active torsions:
REMARK  status: ('A' for Active; 'I' for Inactive)
REMARK    1  A    between atoms: C_2  and  O_3 
REMARK    2  A    between atoms: O_3  and  C_4 
REMARK    3  A    between atoms: C_13  and  C_14 
REMARK    4  A    between atoms: C_14  and  N_15 
REMARK    5  A    between atoms: N_15  and  C_16 
REMARK    6  A    between atoms: C_19  and  O_20 
ROOT
HETATM    1  C   UNL     1      17.635  51.416  49.595  1.00  0.00     0.070 A 
HETATM    2  C   UNL     1      18.977  51.792  49.703  1.00  0.00     0.067 A 
HETATM    3  C   UNL     1      19.984  50.849  49.505  1.00  0.00     0.048 A 
HETATM    4  C   UNL     1      19.668  49.523  49.192  1.00  0.00    -0.009 A 
HETATM    5  C   UNL     1      18.328  49.150  49.073  1.00  0.00     0.016 A 
HETATM    6  C   UNL     1      17.315  50.095  49.273  1.00  0.00     0.038 A 
HETATM    7  N   UNL     1      21.328  51.221  49.620  1.00  0.00    -0.322 N 
HETATM    8  C   UNL     1      22.375  50.355  49.443  1.00  0.00     0.253 A 
HETATM    9  O   UNL     1      23.538  50.737  49.537  1.00  0.00    -0.268 OA
HETATM   10  C   UNL     1      22.038  48.936  49.129  1.00  0.00     0.024 A 
HETATM   11  C   UNL     1      20.752  48.559  49.014  1.00  0.00     0.027 A 
HETATM   12  H   UNL     1      21.575  52.178  49.835  1.00  0.00     0.169 HD
ENDROOT
BRANCH  10  13
HETATM   13  C   UNL     1      23.187  47.974  49.019  1.00  0.00     0.136 C 
BRANCH  13  14
HETATM   14  N   UNL     1      23.862  47.900  50.310  1.00  0.00    -0.289 NA
HETATM   15  H   UNL     1      23.191  47.974  51.075  1.00  0.00     0.128 HD
BRANCH  14  16
HETATM   16  C   UNL     1      24.766  46.858  50.555  1.00  0.00     0.008 A 
HETATM   17  C   UNL     1      25.245  45.989  49.570  1.00  0.00     0.026 A 
HETATM   18  C   UNL     1      26.219  45.027  49.867  1.00  0.00     0.038 A 
HETATM   19  C   UNL     1      26.764  44.930  51.146  1.00  0.00     0.068 A 
HETATM   20  C   UNL     1      26.325  45.810  52.130  1.00  0.00     0.038 A 
HETATM   21  C   UNL     1      25.348  46.769  51.828  1.00  0.00     0.026 A 
BRANCH  19  22
HETATM   22  O   UNL     1      27.710  43.955  51.297  1.00  0.00    -0.356 OA
HETATM   23  C   UNL     1      27.332  42.634  50.933  1.00  0.00     0.210 C 
ENDBRANCH  19  22
ENDBRANCH  14  16
ENDBRANCH  13  14
ENDBRANCH  10  13
BRANCH   1  24
HETATM   24  O   UNL     1      16.740  52.425  49.825  1.00  0.00    -0.351 OA
BRANCH  24  25
HETATM   25  C   UNL     1      15.366  52.151  49.551  1.00  0.00     0.171 C 
HETATM   26  C   UNL     1      14.523  53.028  50.460  1.00  0.00     0.034 C 
ENDBRANCH  24  25
ENDBRANCH   1  24
TORSDOF 6
ENDMDL
