MODEL 1
REMARK VINA RESULT:      -8.0      0.000      0.000
REMARK  5 active torsions:
REMARK  status: ('A' for Active; 'I' for Inactive)
REMARK    1  A    between atoms: C_3  and  N_4 
REMARK       I    between atoms: N_4  and  C_5 
REMARK       I    between atoms: C_5  and  N_6 
REMARK    2  A    between atoms: N_6  and  C_7 
REMARK    3  A    between atoms: C_7  and  C_8 
REMARK    4  A    between atoms: C_8  and  C_9 
REMARK    5  A    between atoms: N_15  and  C_16 
ROOT
HETATM    1  C   UNL     1      25.474  42.744  50.412  1.00  0.00     0.054 C 
HETATM    2  C   UNL     1      25.510  44.217  50.569  1.00  0.00     0.003 A 
HETATM    3  C   UNL     1      25.280  44.990  51.732  1.00  0.00     0.159 A 
HETATM    4  N   UNL     1      25.423  46.294  51.488  1.00  0.00    -0.149 NA
HETATM    5  N   UNL     1      25.704  46.398  50.160  1.00  0.00    -0.241 N 
HETATM    6  C   UNL     1      25.804  45.148  49.595  1.00  0.00     0.129 A 
ENDROOT
BRANCH   3   7
HETATM    7  N   UNL     1      24.976  44.466  52.971  1.00  0.00    -0.291 N 
HETATM    8  C   UNL     1      25.742  44.440  54.098  1.00  0.00     0.322 C 
HETATM    9  N   UNL     1      26.932  45.094  54.050  1.00  0.00    -0.339 N 
HETATM   10  O   UNL     1      25.320  43.876  55.106  1.00  0.00    -0.247 OA
HETATM   11  H   UNL     1      27.232  45.363  53.114  1.00  0.00     0.164 HD
HETATM   12  H   UNL     1      24.072  44.037  53.089  1.00  0.00     0.172 HD
BRANCH   9  13
HETATM   13  C   UNL     1      27.886  45.119  55.145  1.00  0.00     0.082 C 
HETATM   14  C   UNL     1      28.008  46.539  55.692  1.00  0.00     0.032 C 
BRANCH  13  15
HETATM   15  C   UNL     1      29.248  44.516  54.749  1.00  0.00     0.029 C 
BRANCH  15  16
HETATM   16  C   UNL     1      29.151  43.201  54.020  1.00  0.00    -0.013 A 
HETATM   17  C   UNL     1      29.239  43.134  52.516  1.00  0.00     0.005 A 
HETATM   18  C   UNL     1      30.381  42.636  53.356  1.00  0.00     0.005 A 
ENDBRANCH  15  16
ENDBRANCH  13  15
ENDBRANCH   9  13
ENDBRANCH   3   7
BRANCH   5  19
HETATM   19  C   UNL     1      25.904  47.690  49.584  1.00  0.00     0.079 A 
HETATM   20  C   UNL     1      24.882  48.520  49.095  1.00  0.00     0.062 A 
HETATM   21 CL   UNL     1      23.185  48.229  49.255  1.00  0.00    -0.082 Cl
HETATM   22  C   UNL     1      25.207  49.755  48.505  1.00  0.00     0.026 A 
HETATM   23  C   UNL     1      26.530  50.182  48.409  1.00  0.00     0.002 A 
HETATM   24  C   UNL     1      27.546  49.384  48.916  1.00  0.00     0.002 A 
HETATM   25  C   UNL     1      27.237  48.155  49.502  1.00  0.00     0.033 A 
ENDBRANCH   5  19
TORSDOF 5
ENDMDL
MODEL 2
REMARK VINA RESULT:      -7.8      1.600      2.214
REMARK  5 active torsions:
REMARK  status: ('A' for Active; 'I' for Inactive)
REMARK    1  A    between atoms: C_3  and  N_4 
REMARK       I    between atoms: N_4  and  C_5 
REMARK       I    between atoms: C_5  and  N_6 
REMARK    2  A    between atoms: N_6  and  C_7 
REMARK    3  A    between atoms: C_7  and  C_8 
REMARK    4  A    between atoms: C_8  and  C_9 
REMARK    5  A    between atoms: N_15  and  C_16 
ROOT
HETATM    1  C   UNL     1      27.294  43.180  50.711  1.00  0.00     0.054 C 
HETATM    2  C   UNL     1      26.533  44.450  50.759  1.00  0.00     0.003 A 
HETATM    3  C   UNL     1      25.724  44.959  51.803  1.00  0.00     0.159 A 
HETATM    4  N   UNL     1      25.215  46.152  51.488  1.00  0.00    -0.149 NA
HETATM    5  N   UNL     1      25.643  46.421  50.223  1.00  0.00    -0.241 N 
HETATM    6  C   UNL     1      26.478  45.422  49.781  1.00  0.00     0.129 A 
ENDROOT
BRANCH   3   7
HETATM    7  N   UNL     1      25.511  44.323  53.007  1.00  0.00    -0.291 N 
HETATM    8  C   UNL     1      26.288  44.332  54.127  1.00  0.00     0.322 C 
HETATM    9  N   UNL     1      27.378  45.144  54.115  1.00  0.00    -0.339 N 
HETATM   10  O   UNL     1      25.960  43.655  55.099  1.00  0.00    -0.247 OA
HETATM   11  H   UNL     1      27.625  45.509  53.196  1.00  0.00     0.164 HD
HETATM   12  H   UNL     1      24.675  43.768  53.102  1.00  0.00     0.172 HD
BRANCH   9  13
HETATM   13  C   UNL     1      28.334  45.232  55.204  1.00  0.00     0.082 C 
HETATM   14  C   UNL     1      28.882  46.654  55.299  1.00  0.00     0.032 C 
BRANCH  13  15
HETATM   15  C   UNL     1      29.445  44.171  55.094  1.00  0.00     0.029 C 
BRANCH  15  16
HETATM   16  C   UNL     1      30.705  44.517  55.844  1.00  0.00    -0.013 A 
HETATM   17  C   UNL     1      30.792  44.351  57.341  1.00  0.00     0.005 A 
HETATM   18  C   UNL     1      31.536  43.408  56.438  1.00  0.00     0.005 A 
ENDBRANCH  15  16
ENDBRANCH  13  15
ENDBRANCH   9  13
ENDBRANCH   3   7
BRANCH   5  19
HETATM   19  C   UNL     1      25.248  47.641  49.594  1.00  0.00     0.079 A 
HETATM   20  C   UNL     1      26.132  48.635  49.141  1.00  0.00     0.062 A 
HETATM   21 CL   UNL     1      27.855  48.503  49.089  1.00  0.00    -0.082 Cl
HETATM   22  C   UNL     1      25.622  49.819  48.579  1.00  0.00     0.026 A 
HETATM   23  C   UNL     1      24.249  50.021  48.446  1.00  0.00     0.002 A 
HETATM   24  C   UNL     1      23.367  49.034  48.862  1.00  0.00     0.002 A 
HETATM   25  C   UNL     1      23.861  47.855  49.425  1.00  0.00     0.033 A 
ENDBRANCH   5  19
TORSDOF 5
ENDMDL
MODEL 3
REMARK VINA RESULT:      -7.7      2.510      6.639
REMARK  5 active torsions:
REMARK  status: ('A' for Active; 'I' for Inactive)
REMARK    1  A    between atoms: C_3  and  N_4 
REMARK       I    between atoms: N_4  and  C_5 
REMARK       I    between atoms: C_5  and  N_6 
REMARK    2  A    between atoms: N_6  and  C_7 
REMARK    3  A    between atoms: C_7  and  C_8 
REMARK    4  A    between atoms: C_8  and  C_9 
REMARK    5  A    between atoms: N_15  and  C_16 
ROOT
HETATM    1  C   UNL     1      27.957  42.016  50.581  1.00  0.00     0.054 C 
HETATM    2  C   UNL     1      28.025  42.667  51.910  1.00  0.00     0.003 A 
HETATM    3  C   UNL     1      26.974  43.216  52.683  1.00  0.00     0.159 A 
HETATM    4  N   UNL     1      27.422  43.698  53.843  1.00  0.00    -0.149 NA
HETATM    5  N   UNL     1      28.771  43.514  53.831  1.00  0.00    -0.241 N 
HETATM    6  C   UNL     1      29.150  42.852  52.687  1.00  0.00     0.129 A 
ENDROOT
BRANCH   3   7
HETATM    7  N   UNL     1      25.649  43.226  52.303  1.00  0.00    -0.291 N 
HETATM    8  C   UNL     1      24.930  44.237  51.738  1.00  0.00     0.322 C 
HETATM    9  N   UNL     1      25.610  45.366  51.406  1.00  0.00    -0.339 N 
HETATM   10  O   UNL     1      23.732  44.078  51.514  1.00  0.00    -0.247 OA
HETATM   11  H   UNL     1      26.546  45.430  51.802  1.00  0.00     0.164 HD
HETATM   12  H   UNL     1      25.113  42.386  52.452  1.00  0.00     0.172 HD
BRANCH   9  13
HETATM   13  C   UNL     1      24.985  46.551  50.844  1.00  0.00     0.082 C 
HETATM   14  C   UNL     1      24.377  46.219  49.484  1.00  0.00     0.032 C 
BRANCH  13  15
HETATM   15  C   UNL     1      25.950  47.751  50.789  1.00  0.00     0.029 C 
BRANCH  15  16
HETATM   16  C   UNL     1      26.473  48.058  49.410  1.00  0.00    -0.013 A 
HETATM   17  C   UNL     1      27.556  49.086  49.198  1.00  0.00     0.005 A 
HETATM   18  C   UNL     1      27.869  47.625  49.039  1.00  0.00     0.005 A 
ENDBRANCH  15  16
ENDBRANCH  13  15
ENDBRANCH   9  13
ENDBRANCH   3   7
BRANCH   5  19
HETATM   19  C   UNL     1      29.549  43.945  54.949  1.00  0.00     0.079 A 
HETATM   20  C   UNL     1      29.480  45.220  55.533  1.00  0.00     0.062 A 
HETATM   21 CL   UNL     1      28.329  46.448  55.139  1.00  0.00    -0.082 Cl
HETATM   22  C   UNL     1      30.333  45.545  56.604  1.00  0.00     0.026 A 
HETATM   23  C   UNL     1      31.239  44.615  57.112  1.00  0.00     0.002 A 
HETATM   24  C   UNL     1      31.295  43.342  56.562  1.00  0.00     0.002 A 
HETATM   25  C   UNL     1      30.456  43.008  55.497  1.00  0.00     0.033 A 
ENDBRANCH   5  19
TORSDOF 5
ENDMDL
MODEL 4
REMARK VINA RESULT:      -7.5      3.879      6.899
REMARK  5 active torsions:
REMARK  status: ('A' for Active; 'I' for Inactive)
REMARK    1  A    between atoms: C_3  and  N_4 
REMARK       I    between atoms: N_4  and  C_5 
REMARK       I    between atoms: C_5  and  N_6 
REMARK    2  A    between atoms: N_6  and  C_7 
REMARK    3  A    between atoms: C_7  and  C_8 
REMARK    4  A    between atoms: C_8  and  C_9 
REMARK    5  A    between atoms: N_15  and  C_16 
ROOT
HETATM    1  C   UNL     1      26.574  44.110  49.981  1.00  0.00     0.054 C 
HETATM    2  C   UNL     1      27.157  43.699  51.280  1.00  0.00     0.003 A 
HETATM    3  C   UNL     1      27.007  42.471  51.967  1.00  0.00     0.159 A 
HETATM    4  N   UNL     1      27.705  42.461  53.105  1.00  0.00    -0.149 NA
HETATM    5  N   UNL     1      28.282  43.691  53.202  1.00  0.00    -0.241 N 
HETATM    6  C   UNL     1      27.997  44.440  52.084  1.00  0.00     0.129 A 
ENDROOT
BRANCH   3   7
HETATM    7  N   UNL     1      26.263  41.405  51.510  1.00  0.00    -0.291 N 
HETATM    8  C   UNL     1      26.685  40.290  50.848  1.00  0.00     0.322 C 
HETATM    9  N   UNL     1      28.025  40.139  50.687  1.00  0.00    -0.339 N 
HETATM   10  O   UNL     1      25.860  39.461  50.469  1.00  0.00    -0.247 OA
HETATM   11  H   UNL     1      28.574  40.973  50.890  1.00  0.00     0.164 HD
HETATM   12  H   UNL     1      25.268  41.423  51.673  1.00  0.00     0.172 HD
BRANCH   9  13
HETATM   13  C   UNL     1      28.634  39.038  49.962  1.00  0.00     0.082 C 
HETATM   14  C   UNL     1      29.728  38.399  50.815  1.00  0.00     0.032 C 
BRANCH  13  15
HETATM   15  C   UNL     1      29.136  39.460  48.568  1.00  0.00     0.029 C 
BRANCH  15  16
HETATM   16  C   UNL     1      28.422  40.654  47.991  1.00  0.00    -0.013 A 
HETATM   17  C   UNL     1      28.351  40.875  46.501  1.00  0.00     0.005 A 
HETATM   18  C   UNL     1      27.122  40.448  47.254  1.00  0.00     0.005 A 
ENDBRANCH  15  16
ENDBRANCH  13  15
ENDBRANCH   9  13
ENDBRANCH   3   7
BRANCH   5  19
HETATM   19  C   UNL     1      29.096  43.997  54.335  1.00  0.00     0.079 A 
HETATM   20  C   UNL     1      29.031  45.189  55.074  1.00  0.00     0.062 A 
HETATM   21 CL   UNL     1      27.845  46.432  54.878  1.00  0.00    -0.082 Cl
HETATM   22  C   UNL     1      29.919  45.397  56.145  1.00  0.00     0.026 A 
HETATM   23  C   UNL     1      30.860  44.431  56.500  1.00  0.00     0.002 A 
HETATM   24  C   UNL     1      30.914  43.236  55.795  1.00  0.00     0.002 A 
HETATM   25  C   UNL     1      30.039  43.018  54.729  1.00  0.00     0.033 A 
ENDBRANCH   5  19
TORSDOF 5
ENDMDL
MODEL 5
REMARK VINA RESULT:      -7.5      4.291      5.865
REMARK  5 active torsions:
REMARK  status: ('A' for Active; 'I' for Inactive)
REMARK    1  A    between atoms: C_3  and  N_4 
REMARK       I    between atoms: N_4  and  C_5 
REMARK       I    between atoms: C_5  and  N_6 
REMARK    2  A    between atoms: N_6  and  C_7 
REMARK    3  A    between atoms: C_7  and  C_8 
REMARK    4  A    between atoms: C_8  and  C_9 
REMARK    5  A    between atoms: N_15  and  C_16 
ROOT
HETATM    1  C   UNL     1      22.799  45.992  48.369  1.00  0.00     0.054 C 
HETATM    2  C   UNL     1      22.402  47.387  48.673  1.00  0.00     0.003 A 
HETATM    3  C   UNL     1      23.227  48.496  48.975  1.00  0.00     0.159 A 
HETATM    4  N   UNL     1      22.506  49.601  49.171  1.00  0.00    -0.149 NA
HETATM    5  N   UNL     1      21.203  49.227  49.045  1.00  0.00    -0.241 N 
HETATM    6  C   UNL     1      21.121  47.898  48.700  1.00  0.00     0.129 A 
ENDROOT
BRANCH   3   7
HETATM    7  N   UNL     1      24.604  48.453  49.031  1.00  0.00    -0.291 N 
HETATM    8  C   UNL     1      25.403  47.834  49.945  1.00  0.00     0.322 C 
HETATM    9  N   UNL     1      24.787  47.071  50.885  1.00  0.00    -0.339 N 
HETATM   10  O   UNL     1      26.624  47.951  49.862  1.00  0.00    -0.247 OA
HETATM   11  H   UNL     1      23.778  47.201  50.945  1.00  0.00     0.164 HD
HETATM   12  H   UNL     1      25.117  48.937  48.311  1.00  0.00     0.172 HD
BRANCH   9  13
HETATM   13  C   UNL     1      25.487  46.387  51.959  1.00  0.00     0.082 C 
HETATM   14  C   UNL     1      24.860  45.015  52.195  1.00  0.00     0.032 C 
BRANCH  13  15
HETATM   15  C   UNL     1      25.562  47.236  53.242  1.00  0.00     0.029 C 
BRANCH  15  16
HETATM   16  C   UNL     1      26.934  47.300  53.860  1.00  0.00    -0.013 A 
HETATM   17  C   UNL     1      27.137  47.825  55.259  1.00  0.00     0.005 A 
HETATM   18  C   UNL     1      27.281  46.355  54.982  1.00  0.00     0.005 A 
ENDBRANCH  15  16
ENDBRANCH  13  15
ENDBRANCH   9  13
ENDBRANCH   3   7
BRANCH   5  19
HETATM   19  C   UNL     1      20.173  50.202  49.213  1.00  0.00     0.079 A 
HETATM   20  C   UNL     1      19.042  50.044  50.031  1.00  0.00     0.062 A 
HETATM   21 CL   UNL     1      18.763  48.734  51.124  1.00  0.00    -0.082 Cl
HETATM   22  C   UNL     1      18.068  51.059  50.079  1.00  0.00     0.026 A 
HETATM   23  C   UNL     1      18.211  52.232  49.339  1.00  0.00     0.002 A 
HETATM   24  C   UNL     1      19.339  52.411  48.551  1.00  0.00     0.002 A 
HETATM   25  C   UNL     1      20.312  51.411  48.492  1.00  0.00     0.033 A 
ENDBRANCH   5  19
TORSDOF 5
ENDMDL
MODEL 6
REMARK VINA RESULT:      -7.3      4.042      8.044
REMARK  5 active torsions:
REMARK  status: ('A' for Active; 'I' for Inactive)
REMARK    1  A    between atoms: C_3  and  N_4 
REMARK       I    between atoms: N_4  and  C_5 
REMARK       I    between atoms: C_5  and  N_6 
REMARK    2  A    between atoms: N_6  and  C_7 
REMARK    3  A    between atoms: C_7  and  C_8 
REMARK    4  A    between atoms: C_8  and  C_9 
REMARK    5  A    between atoms: N_15  and  C_16 
ROOT
HETATM    1  C   UNL     1      23.501  45.183  49.283  1.00  0.00     0.054 C 
HETATM    2  C   UNL     1      24.343  45.951  50.230  1.00  0.00     0.003 A 
HETATM    3  C   UNL     1      24.825  47.276  50.112  1.00  0.00     0.159 A 
HETATM    4  N   UNL     1      25.537  47.634  51.183  1.00  0.00    -0.149 NA
HETATM    5  N   UNL     1      25.570  46.540  51.994  1.00  0.00    -0.241 N 
HETATM    6  C   UNL     1      24.815  45.525  51.454  1.00  0.00     0.129 A 
ENDROOT
BRANCH   3   7
HETATM    7  N   UNL     1      24.568  48.109  49.044  1.00  0.00    -0.291 N 
HETATM    8  C   UNL     1      23.396  48.708  48.690  1.00  0.00     0.322 C 
HETATM    9  N   UNL     1      22.346  48.558  49.539  1.00  0.00    -0.339 N 
HETATM   10  O   UNL     1      23.345  49.382  47.663  1.00  0.00    -0.247 OA
HETATM   11  H   UNL     1      22.475  47.841  50.251  1.00  0.00     0.164 HD
HETATM   12  H   UNL     1      25.333  48.321  48.422  1.00  0.00     0.172 HD
BRANCH   9  13
HETATM   13  C   UNL     1      21.018  49.088  49.286  1.00  0.00     0.082 C 
HETATM   14  C   UNL     1      20.382  48.350  48.110  1.00  0.00     0.032 C 
BRANCH  13  15
HETATM   15  C   UNL     1      21.026  50.617  49.095  1.00  0.00     0.029 C 
BRANCH  15  16
HETATM   16  C   UNL     1      20.003  51.347  49.925  1.00  0.00    -0.013 A 
HETATM   17  C   UNL     1      18.871  52.106  49.278  1.00  0.00     0.005 A 
HETATM   18  C   UNL     1      18.594  50.814  49.993  1.00  0.00     0.005 A 
ENDBRANCH  15  16
ENDBRANCH  13  15
ENDBRANCH   9  13
ENDBRANCH   3   7
BRANCH   5  19
HETATM   19  C   UNL     1      26.277  46.606  53.233  1.00  0.00     0.079 A 
HETATM   20  C   UNL     1      27.197  45.646  53.686  1.00  0.00     0.062 A 
HETATM   21 CL   UNL     1      27.787  44.305  52.770  1.00  0.00    -0.082 Cl
HETATM   22  C   UNL     1      27.797  45.796  54.949  1.00  0.00     0.026 A 
HETATM   23  C   UNL     1      27.509  46.894  55.760  1.00  0.00     0.002 A 
HETATM   24  C   UNL     1      26.625  47.864  55.309  1.00  0.00     0.002 A 
HETATM   25  C   UNL     1      26.019  47.725  54.058  1.00  0.00     0.033 A 
ENDBRANCH   5  19
TORSDOF 5
ENDMDL
MODEL 7
REMARK VINA RESULT:      -7.2      3.691      6.638
REMARK  5 active torsions:
REMARK  status: ('A' for Active; 'I' for Inactive)
REMARK    1  A    between atoms: C_3  and  N_4 
REMARK       I    between atoms: N_4  and  C_5 
REMARK       I    between atoms: C_5  and  N_6 
REMARK    2  A    between atoms: N_6  and  C_7 
REMARK    3  A    between atoms: C_7  and  C_8 
REMARK    4  A    between atoms: C_8  and  C_9 
REMARK    5  A    between atoms: N_15  and  C_16 
ROOT
HETATM    1  C   UNL     1      25.415  45.267  50.920  1.00  0.00     0.054 C 
HETATM    2  C   UNL     1      26.327  44.598  51.878  1.00  0.00     0.003 A 
HETATM    3  C   UNL     1      26.507  43.214  52.110  1.00  0.00     0.159 A 
HETATM    4  N   UNL     1      27.438  42.992  53.040  1.00  0.00    -0.149 NA
HETATM    5  N   UNL     1      27.847  44.221  53.461  1.00  0.00    -0.241 N 
HETATM    6  C   UNL     1      27.217  45.206  52.738  1.00  0.00     0.129 A 
ENDROOT
BRANCH   3   7
HETATM    7  N   UNL     1      25.833  42.215  51.441  1.00  0.00    -0.291 N 
HETATM    8  C   UNL     1      26.297  41.366  50.480  1.00  0.00     0.322 C 
HETATM    9  N   UNL     1      27.623  41.429  50.192  1.00  0.00    -0.339 N 
HETATM   10  O   UNL     1      25.526  40.566  49.954  1.00  0.00    -0.247 OA
HETATM   11  H   UNL     1      28.102  42.244  50.569  1.00  0.00     0.164 HD
HETATM   12  H   UNL     1      24.862  42.069  51.672  1.00  0.00     0.172 HD
BRANCH   9  13
HETATM   13  C   UNL     1      28.265  40.631  49.161  1.00  0.00     0.082 C 
HETATM   14  C   UNL     1      27.638  40.938  47.803  1.00  0.00     0.032 C 
BRANCH  13  15
HETATM   15  C   UNL     1      28.256  39.127  49.495  1.00  0.00     0.029 C 
BRANCH  15  16
HETATM   16  C   UNL     1      29.316  38.706  50.479  1.00  0.00    -0.013 A 
HETATM   17  C   UNL     1      29.538  37.252  50.812  1.00  0.00     0.005 A 
HETATM   18  C   UNL     1      30.544  37.991  49.975  1.00  0.00     0.005 A 
ENDBRANCH  15  16
ENDBRANCH  13  15
ENDBRANCH   9  13
ENDBRANCH   3   7
BRANCH   5  19
HETATM   19  C   UNL     1      28.847  44.317  54.478  1.00  0.00     0.079 A 
HETATM   20  C   UNL     1      29.018  45.416  55.335  1.00  0.00     0.062 A 
HETATM   21 CL   UNL     1      27.957  46.776  55.456  1.00  0.00    -0.082 Cl
HETATM   22  C   UNL     1      30.071  45.416  56.268  1.00  0.00     0.026 A 
HETATM   23  C   UNL     1      30.944  44.334  56.371  1.00  0.00     0.002 A 
HETATM   24  C   UNL     1      30.766  43.230  55.549  1.00  0.00     0.002 A 
HETATM   25  C   UNL     1      29.726  43.218  54.617  1.00  0.00     0.033 A 
ENDBRANCH   5  19
TORSDOF 5
ENDMDL
MODEL 8
REMARK VINA RESULT:      -7.2      2.548      3.967
REMARK  5 active torsions:
REMARK  status: ('A' for Active; 'I' for Inactive)
REMARK    1  A    between atoms: C_3  and  N_4 
REMARK       I    between atoms: N_4  and  C_5 
REMARK       I    between atoms: C_5  and  N_6 
REMARK    2  A    between atoms: N_6  and  C_7 
REMARK    3  A    between atoms: C_7  and  C_8 
REMARK    4  A    between atoms: C_8  and  C_9 
REMARK    5  A    between atoms: N_15  and  C_16 
ROOT
HETATM    1  C   UNL     1      27.691  48.539  49.233  1.00  0.00     0.054 C 
HETATM    2  C   UNL     1      26.218  48.410  49.332  1.00  0.00     0.003 A 
HETATM    3  C   UNL     1      25.458  47.360  49.899  1.00  0.00     0.159 A 
HETATM    4  N   UNL     1      24.149  47.609  49.822  1.00  0.00    -0.149 NA
HETATM    5  N   UNL     1      24.031  48.797  49.168  1.00  0.00    -0.241 N 
HETATM    6  C   UNL     1      25.275  49.319  48.901  1.00  0.00     0.129 A 
ENDROOT
BRANCH   3   7
HETATM    7  N   UNL     1      25.996  46.234  50.486  1.00  0.00    -0.291 N 
HETATM    8  C   UNL     1      26.338  46.031  51.789  1.00  0.00     0.322 C 
HETATM    9  N   UNL     1      26.031  47.021  52.668  1.00  0.00    -0.339 N 
HETATM   10  O   UNL     1      26.859  44.969  52.122  1.00  0.00    -0.247 OA
HETATM   11  H   UNL     1      25.765  47.905  52.237  1.00  0.00     0.164 HD
HETATM   12  H   UNL     1      26.172  45.436  49.895  1.00  0.00     0.172 HD
BRANCH   9  13
HETATM   13  C   UNL     1      26.371  46.984  54.080  1.00  0.00     0.082 C 
HETATM   14  C   UNL     1      25.841  48.237  54.773  1.00  0.00     0.032 C 
BRANCH  13  15
HETATM   15  C   UNL     1      27.879  46.768  54.313  1.00  0.00     0.029 C 
BRANCH  15  16
HETATM   16  C   UNL     1      28.200  45.708  55.332  1.00  0.00    -0.013 A 
HETATM   17  C   UNL     1      29.184  44.605  55.028  1.00  0.00     0.005 A 
HETATM   18  C   UNL     1      29.559  45.702  55.985  1.00  0.00     0.005 A 
ENDBRANCH  15  16
ENDBRANCH  13  15
ENDBRANCH   9  13
ENDBRANCH   3   7
BRANCH   5  19
HETATM   19  C   UNL     1      22.731  49.335  48.919  1.00  0.00     0.079 A 
HETATM   20  C   UNL     1      21.752  48.730  48.113  1.00  0.00     0.062 A 
HETATM   21 CL   UNL     1      21.853  47.150  47.420  1.00  0.00    -0.082 Cl
HETATM   22  C   UNL     1      20.522  49.380  47.903  1.00  0.00     0.026 A 
HETATM   23  C   UNL     1      20.247  50.612  48.494  1.00  0.00     0.002 A 
HETATM   24  C   UNL     1      21.195  51.205  49.316  1.00  0.00     0.002 A 
HETATM   25  C   UNL     1      22.421  50.571  49.531  1.00  0.00     0.033 A 
ENDBRANCH   5  19
TORSDOF 5
ENDMDL
MODEL 9
REMARK VINA RESULT:      -7.1      3.070      7.078
REMARK  5 active torsions:
REMARK  status: ('A' for Active; 'I' for Inactive)
REMARK    1  A    between atoms: C_3  and  N_4 
REMARK       I    between atoms: N_4  and  C_5 
REMARK       I    between atoms: C_5  and  N_6 
REMARK    2  A    between atoms: N_6  and  C_7 
REMARK    3  A    between atoms: C_7  and  C_8 
REMARK    4  A    between atoms: C_8  and  C_9 
REMARK    5  A    between atoms: N_15  and  C_16 
ROOT
HETATM    1  C   UNL     1      24.369  42.548  50.465  1.00  0.00     0.054 C 
HETATM    2  C   UNL     1      24.733  43.812  51.146  1.00  0.00     0.003 A 
HETATM    3  C   UNL     1      24.298  45.128  50.862  1.00  0.00     0.159 A 
HETATM    4  N   UNL     1      24.828  46.011  51.710  1.00  0.00    -0.149 NA
HETATM    5  N   UNL     1      25.649  45.298  52.530  1.00  0.00    -0.241 N 
HETATM    6  C   UNL     1      25.571  43.958  52.232  1.00  0.00     0.129 A 
ENDROOT
BRANCH   3   7
HETATM    7  N   UNL     1      23.413  45.459  49.857  1.00  0.00    -0.291 N 
HETATM    8  C   UNL     1      23.329  46.614  49.139  1.00  0.00     0.322 C 
HETATM    9  N   UNL     1      24.294  47.547  49.357  1.00  0.00    -0.339 N 
HETATM   10  O   UNL     1      22.432  46.750  48.310  1.00  0.00    -0.247 OA
HETATM   11  H   UNL     1      24.866  47.381  50.183  1.00  0.00     0.164 HD
HETATM   12  H   UNL     1      22.723  44.772  49.597  1.00  0.00     0.172 HD
BRANCH   9  13
HETATM   13  C   UNL     1      24.321  48.848  48.713  1.00  0.00     0.082 C 
HETATM   14  C   UNL     1      25.739  49.412  48.745  1.00  0.00     0.032 C 
BRANCH  13  15
HETATM   15  C   UNL     1      23.281  49.817  49.308  1.00  0.00     0.029 C 
BRANCH  15  16
HETATM   16  C   UNL     1      22.534  50.626  48.281  1.00  0.00    -0.013 A 
HETATM   17  C   UNL     1      21.224  50.143  47.709  1.00  0.00     0.005 A 
HETATM   18  C   UNL     1      21.241  51.297  48.672  1.00  0.00     0.005 A 
ENDBRANCH  15  16
ENDBRANCH  13  15
ENDBRANCH   9  13
ENDBRANCH   3   7
BRANCH   5  19
HETATM   19  C   UNL     1      26.379  45.976  53.554  1.00  0.00     0.079 A 
HETATM   20  C   UNL     1      27.551  45.493  54.159  1.00  0.00     0.062 A 
HETATM   21 CL   UNL     1      28.435  44.091  53.668  1.00  0.00    -0.082 Cl
HETATM   22  C   UNL     1      28.157  46.230  55.193  1.00  0.00     0.026 A 
HETATM   23  C   UNL     1      27.624  47.445  55.622  1.00  0.00     0.002 A 
HETATM   24  C   UNL     1      26.483  47.946  55.011  1.00  0.00     0.002 A 
HETATM   25  C   UNL     1      25.870  47.223  53.985  1.00  0.00     0.033 A 
ENDBRANCH   5  19
TORSDOF 5
ENDMDL
MODEL 10
REMARK VINA RESULT:      -6.9      2.638      4.659
REMARK  5 active torsions:
REMARK  status: ('A' for Active; 'I' for Inactive)
REMARK    1  A    between atoms: C_3  and  N_4 
REMARK       I    between atoms: N_4  and  C_5 
REMARK       I    between atoms: C_5  and  N_6 
REMARK    2  A    between atoms: N_6  and  C_7 
REMARK    3  A    between atoms: C_7  and  C_8 
REMARK    4  A    between atoms: C_8  and  C_9 
REMARK    5  A    between atoms: N_15  and  C_16 
ROOT
HETATM    1  C   UNL     1      27.797  48.860  49.057  1.00  0.00     0.054 C 
HETATM    2  C   UNL     1      26.328  48.752  49.219  1.00  0.00     0.003 A 
HETATM    3  C   UNL     1      25.593  47.915  50.092  1.00  0.00     0.159 A 
HETATM    4  N   UNL     1      24.280  48.115  49.969  1.00  0.00    -0.149 NA
HETATM    5  N   UNL     1      24.132  49.048  48.988  1.00  0.00    -0.241 N 
HETATM    6  C   UNL     1      25.364  49.478  48.552  1.00  0.00     0.129 A 
ENDROOT
BRANCH   3   7
HETATM    7  N   UNL     1      26.158  47.026  50.982  1.00  0.00    -0.291 N 
HETATM    8  C   UNL     1      26.151  45.663  50.948  1.00  0.00     0.322 C 
HETATM    9  N   UNL     1      25.602  45.077  49.853  1.00  0.00    -0.339 N 
HETATM   10  O   UNL     1      26.668  45.031  51.867  1.00  0.00    -0.247 OA
HETATM   11  H   UNL     1      25.062  45.705  49.260  1.00  0.00     0.164 HD
HETATM   12  H   UNL     1      26.649  47.406  51.776  1.00  0.00     0.172 HD
BRANCH   9  13
HETATM   13  C   UNL     1      25.470  43.640  49.685  1.00  0.00     0.082 C 
HETATM   14  C   UNL     1      24.533  43.078  50.751  1.00  0.00     0.032 C 
BRANCH  13  15
HETATM   15  C   UNL     1      26.835  42.926  49.657  1.00  0.00     0.029 C 
BRANCH  15  16
HETATM   16  C   UNL     1      26.912  41.707  50.536  1.00  0.00    -0.013 A 
HETATM   17  C   UNL     1      28.089  40.766  50.466  1.00  0.00     0.005 A 
HETATM   18  C   UNL     1      27.921  41.669  51.656  1.00  0.00     0.005 A 
ENDBRANCH  15  16
ENDBRANCH  13  15
ENDBRANCH   9  13
ENDBRANCH   3   7
BRANCH   5  19
HETATM   19  C   UNL     1      22.820  49.471  48.613  1.00  0.00     0.079 A 
HETATM   20  C   UNL     1      21.879  48.672  47.944  1.00  0.00     0.062 A 
HETATM   21 CL   UNL     1      22.046  46.985  47.608  1.00  0.00    -0.082 Cl
HETATM   22  C   UNL     1      20.632  49.216  47.584  1.00  0.00     0.026 A 
HETATM   23  C   UNL     1      20.304  50.535  47.893  1.00  0.00     0.002 A 
HETATM   24  C   UNL     1      21.215  51.325  48.580  1.00  0.00     0.002 A 
HETATM   25  C   UNL     1      22.457  50.798  48.941  1.00  0.00     0.033 A 
ENDBRANCH   5  19
TORSDOF 5
ENDMDL
