MODEL 1
REMARK VINA RESULT:      -9.7      0.000      0.000
REMARK  6 active torsions:
REMARK  status: ('A' for Active; 'I' for Inactive)
REMARK    1  A    between atoms: N_6  and  C_8 
REMARK    2  A    between atoms: C_8  and  C_9 
REMARK    3  A    between atoms: C_9  and  C_10 
REMARK    4  A    between atoms: C_10  and  N_11 
REMARK       I    between atoms: N_11  and  C_12 
REMARK       I    between atoms: C_12  and  N_13 
REMARK    5  A    between atoms: N_13  and  N_14 
REMARK       I    between atoms: N_14  and  C_15 
REMARK    6  A    between atoms: C_15  and  C_16 
ROOT
HETATM    1  N   UNL     1      24.785  46.417  49.686  1.00  0.00    -0.342 N 
HETATM    2  C   UNL     1      24.148  47.629  49.693  1.00  0.00     0.334 C 
HETATM    3  N   UNL     1      22.793  47.518  49.521  1.00  0.00    -0.249 N 
HETATM    4  O   UNL     1      24.761  48.695  49.743  1.00  0.00    -0.246 OA
HETATM    5  H   UNL     1      24.210  45.582  49.733  1.00  0.00     0.164 HD
HETATM    6  H   UNL     1      22.304  46.674  49.824  1.00  0.00     0.192 HD
ENDROOT
BRANCH   1   7
HETATM    7  C   UNL     1      26.205  46.282  49.919  1.00  0.00     0.126 C 
BRANCH   7   8
HETATM    8  C   UNL     1      26.684  44.830  49.955  1.00  0.00     0.047 C 
BRANCH   8   9
HETATM    9  C   UNL     1      26.500  44.069  51.272  1.00  0.00     0.237 C 
BRANCH   9  10
HETATM   10  N   UNL     1      27.738  44.014  52.124  1.00  0.00    -0.067 N 
HETATM   11  C   UNL     1      27.635  44.769  53.423  1.00  0.00     0.274 C 
HETATM   12  C   UNL     1      28.785  44.547  54.368  1.00  0.00    -0.026 A 
HETATM   13  C   UNL     1      29.703  43.498  54.175  1.00  0.00    -0.049 A 
HETATM   14  C   UNL     1      28.914  45.374  55.495  1.00  0.00     0.009 A 
HETATM   15  C   UNL     1      30.753  43.321  55.085  1.00  0.00     0.007 A 
HETATM   16  C   UNL     1      29.598  42.598  52.972  1.00  0.00     0.067 C 
HETATM   17  C   UNL     1      30.873  44.155  56.196  1.00  0.00     0.001 A 
HETATM   18  C   UNL     1      29.953  45.178  56.403  1.00  0.00     0.001 A 
HETATM   19  C   UNL     1      28.193  42.592  52.371  1.00  0.00     0.240 C 
HETATM   20  H   UNL     1      28.505  44.427  51.554  1.00  0.00     0.280 HD
ENDBRANCH   9  10
ENDBRANCH   8   9
ENDBRANCH   7   8
ENDBRANCH   1   7
BRANCH   3  21
HETATM   21  N   UNL     1      22.005  48.677  49.583  1.00  0.00    -0.261 N 
HETATM   22  C   UNL     1      20.781  48.676  48.936  1.00  0.00     0.277 C 
HETATM   23  O   UNL     1      20.386  47.655  48.369  1.00  0.00    -0.265 OA
HETATM   24  H   UNL     1      22.348  49.477  50.106  1.00  0.00     0.190 HD
BRANCH  22  25
HETATM   25  C   UNL     1      20.031  49.921  48.966  1.00  0.00     0.075 A 
HETATM   26  S   UNL     1      18.469  50.035  49.671  1.00  0.00    -0.077 SA
HETATM   27  C   UNL     1      18.372  51.691  49.331  1.00  0.00     0.052 A 
HETATM   28 BR   UNL     1      16.895  52.744  49.796  1.00  0.00    -0.043 Br
HETATM   29  C   UNL     1      19.479  52.179  48.688  1.00  0.00     0.028 A 
HETATM   30  C   UNL     1      20.444  51.149  48.475  1.00  0.00     0.026 A 
ENDBRANCH  22  25
ENDBRANCH   3  21
TORSDOF 6
ENDMDL
MODEL 2
REMARK VINA RESULT:      -9.6      1.074      1.918
REMARK  6 active torsions:
REMARK  status: ('A' for Active; 'I' for Inactive)
REMARK    1  A    between atoms: N_6  and  C_8 
REMARK    2  A    between atoms: C_8  and  C_9 
REMARK    3  A    between atoms: C_9  and  C_10 
REMARK    4  A    between atoms: C_10  and  N_11 
REMARK       I    between atoms: N_11  and  C_12 
REMARK       I    between atoms: C_12  and  N_13 
REMARK    5  A    between atoms: N_13  and  N_14 
REMARK       I    between atoms: N_14  and  C_15 
REMARK    6  A    between atoms: C_15  and  C_16 
ROOT
HETATM    1  N   UNL     1      24.965  46.075  49.731  1.00  0.00    -0.342 N 
HETATM    2  C   UNL     1      24.182  47.194  49.840  1.00  0.00     0.334 C 
HETATM    3  N   UNL     1      22.900  46.989  49.401  1.00  0.00    -0.249 N 
HETATM    4  O   UNL     1      24.634  48.282  50.197  1.00  0.00    -0.246 OA
HETATM    5  H   UNL     1      24.505  45.197  49.518  1.00  0.00     0.164 HD
HETATM    6  H   UNL     1      22.483  46.058  49.449  1.00  0.00     0.192 HD
ENDROOT
BRANCH   1   7
HETATM    7  C   UNL     1      26.333  46.034  50.196  1.00  0.00     0.126 C 
BRANCH   7   8
HETATM    8  C   UNL     1      26.535  45.147  51.426  1.00  0.00     0.047 C 
BRANCH   8   9
HETATM    9  C   UNL     1      25.981  45.666  52.756  1.00  0.00     0.237 C 
BRANCH   9  10
HETATM   10  N   UNL     1      26.912  45.476  53.922  1.00  0.00    -0.067 N 
HETATM   11  C   UNL     1      27.987  44.445  53.701  1.00  0.00     0.274 C 
HETATM   12  C   UNL     1      29.040  44.399  54.775  1.00  0.00    -0.026 A 
HETATM   13  C   UNL     1      29.167  45.430  55.724  1.00  0.00    -0.049 A 
HETATM   14  C   UNL     1      29.948  43.329  54.797  1.00  0.00     0.009 A 
HETATM   15  C   UNL     1      30.168  45.352  56.701  1.00  0.00     0.007 A 
HETATM   16  C   UNL     1      28.203  46.587  55.733  1.00  0.00     0.067 C 
HETATM   17  C   UNL     1      31.058  44.279  56.716  1.00  0.00     0.001 A 
HETATM   18  C   UNL     1      30.951  43.271  55.764  1.00  0.00     0.001 A 
HETATM   19  C   UNL     1      27.518  46.784  54.382  1.00  0.00     0.240 C 
HETATM   20  H   UNL     1      26.319  45.179  54.725  1.00  0.00     0.280 HD
ENDBRANCH   9  10
ENDBRANCH   8   9
ENDBRANCH   7   8
ENDBRANCH   1   7
BRANCH   3  21
HETATM   21  N   UNL     1      21.968  48.030  49.526  1.00  0.00    -0.261 N 
HETATM   22  C   UNL     1      21.568  48.696  48.379  1.00  0.00     0.277 C 
HETATM   23  O   UNL     1      21.990  48.333  47.279  1.00  0.00    -0.265 OA
HETATM   24  H   UNL     1      21.607  48.260  50.447  1.00  0.00     0.190 HD
BRANCH  22  25
HETATM   25  C   UNL     1      20.656  49.812  48.563  1.00  0.00     0.075 A 
HETATM   26  S   UNL     1      19.038  49.599  49.099  1.00  0.00    -0.077 SA
HETATM   27  C   UNL     1      18.747  51.266  49.073  1.00  0.00     0.052 A 
HETATM   28 BR   UNL     1      17.106  52.024  49.563  1.00  0.00    -0.043 Br
HETATM   29  C   UNL     1      19.828  52.001  48.660  1.00  0.00     0.028 A 
HETATM   30  C   UNL     1      20.939  51.154  48.363  1.00  0.00     0.026 A 
ENDBRANCH  22  25
ENDBRANCH   3  21
TORSDOF 6
ENDMDL
MODEL 3
REMARK VINA RESULT:      -9.1      1.416      1.768
REMARK  6 active torsions:
REMARK  status: ('A' for Active; 'I' for Inactive)
REMARK    1  A    between atoms: N_6  and  C_8 
REMARK    2  A    between atoms: C_8  and  C_9 
REMARK    3  A    between atoms: C_9  and  C_10 
REMARK    4  A    between atoms: C_10  and  N_11 
REMARK       I    between atoms: N_11  and  C_12 
REMARK       I    between atoms: C_12  and  N_13 
REMARK    5  A    between atoms: N_13  and  N_14 
REMARK       I    between atoms: N_14  and  C_15 
REMARK    6  A    between atoms: C_15  and  C_16 
ROOT
HETATM    1  N   UNL     1      25.701  45.695  49.896  1.00  0.00    -0.342 N 
HETATM    2  C   UNL     1      24.426  46.136  49.662  1.00  0.00     0.334 C 
HETATM    3  N   UNL     1      24.280  47.480  49.885  1.00  0.00    -0.249 N 
HETATM    4  O   UNL     1      23.504  45.368  49.386  1.00  0.00    -0.246 OA
HETATM    5  H   UNL     1      26.424  46.394  50.030  1.00  0.00     0.164 HD
HETATM    6  H   UNL     1      25.075  48.110  49.768  1.00  0.00     0.192 HD
ENDROOT
BRANCH   1   7
HETATM    7  C   UNL     1      26.108  44.328  49.662  1.00  0.00     0.126 C 
BRANCH   7   8
HETATM    8  C   UNL     1      26.210  43.493  50.939  1.00  0.00     0.047 C 
BRANCH   8   9
HETATM    9  C   UNL     1      27.457  42.618  51.100  1.00  0.00     0.237 C 
BRANCH   9  10
HETATM   10  N   UNL     1      28.432  43.125  52.127  1.00  0.00    -0.067 N 
HETATM   11  C   UNL     1      27.832  44.048  53.154  1.00  0.00     0.274 C 
HETATM   12  C   UNL     1      28.748  44.390  54.298  1.00  0.00    -0.026 A 
HETATM   13  C   UNL     1      29.933  43.669  54.531  1.00  0.00    -0.049 A 
HETATM   14  C   UNL     1      28.386  45.420  55.180  1.00  0.00     0.009 A 
HETATM   15  C   UNL     1      30.753  44.015  55.613  1.00  0.00     0.007 A 
HETATM   16  C   UNL     1      30.356  42.564  53.598  1.00  0.00     0.067 C 
HETATM   17  C   UNL     1      30.384  45.045  56.478  1.00  0.00     0.001 A 
HETATM   18  C   UNL     1      29.200  45.744  56.264  1.00  0.00     0.001 A 
HETATM   19  C   UNL     1      29.183  41.997  52.800  1.00  0.00     0.240 C 
HETATM   20  H   UNL     1      29.169  43.639  51.601  1.00  0.00     0.280 HD
ENDBRANCH   9  10
ENDBRANCH   8   9
ENDBRANCH   7   8
ENDBRANCH   1   7
BRANCH   3  21
HETATM   21  N   UNL     1      23.042  48.080  49.611  1.00  0.00    -0.261 N 
HETATM   22  C   UNL     1      23.023  49.421  49.265  1.00  0.00     0.277 C 
HETATM   23  O   UNL     1      24.083  50.041  49.152  1.00  0.00    -0.265 OA
HETATM   24  H   UNL     1      22.199  47.517  49.666  1.00  0.00     0.190 HD
BRANCH  22  25
HETATM   25  C   UNL     1      21.715  50.019  49.059  1.00  0.00     0.075 A 
HETATM   26  S   UNL     1      20.257  49.134  49.268  1.00  0.00    -0.077 SA
HETATM   27  C   UNL     1      19.312  50.489  48.899  1.00  0.00     0.052 A 
HETATM   28 BR   UNL     1      17.440  50.458  48.895  1.00  0.00    -0.043 Br
HETATM   29  C   UNL     1      20.052  51.606  48.608  1.00  0.00     0.028 A 
HETATM   30  C   UNL     1      21.450  51.331  48.700  1.00  0.00     0.026 A 
ENDBRANCH  22  25
ENDBRANCH   3  21
TORSDOF 6
ENDMDL
MODEL 4
REMARK VINA RESULT:      -8.9      1.441      2.286
REMARK  6 active torsions:
REMARK  status: ('A' for Active; 'I' for Inactive)
REMARK    1  A    between atoms: N_6  and  C_8 
REMARK    2  A    between atoms: C_8  and  C_9 
REMARK    3  A    between atoms: C_9  and  C_10 
REMARK    4  A    between atoms: C_10  and  N_11 
REMARK       I    between atoms: N_11  and  C_12 
REMARK       I    between atoms: C_12  and  N_13 
REMARK    5  A    between atoms: N_13  and  N_14 
REMARK       I    between atoms: N_14  and  C_15 
REMARK    6  A    between atoms: C_15  and  C_16 
ROOT
HETATM    1  N   UNL     1      24.957  45.792  49.736  1.00  0.00    -0.342 N 
HETATM    2  C   UNL     1      23.761  46.340  49.355  1.00  0.00     0.334 C 
HETATM    3  N   UNL     1      23.539  47.571  49.915  1.00  0.00    -0.249 N 
HETATM    4  O   UNL     1      22.945  45.726  48.668  1.00  0.00    -0.246 OA
HETATM    5  H   UNL     1      25.614  46.389  50.226  1.00  0.00     0.164 HD
HETATM    6  H   UNL     1      24.326  48.170  50.168  1.00  0.00     0.192 HD
ENDROOT
BRANCH   1   7
HETATM    7  C   UNL     1      25.436  44.531  49.218  1.00  0.00     0.126 C 
BRANCH   7   8
HETATM    8  C   UNL     1      25.174  43.347  50.150  1.00  0.00     0.047 C 
BRANCH   8   9
HETATM    9  C   UNL     1      24.700  43.671  51.570  1.00  0.00     0.237 C 
BRANCH   9  10
HETATM   10  N   UNL     1      25.792  43.629  52.603  1.00  0.00    -0.067 N 
HETATM   11  C   UNL     1      27.111  43.109  52.097  1.00  0.00     0.274 C 
HETATM   12  C   UNL     1      28.255  43.258  53.062  1.00  0.00    -0.026 A 
HETATM   13  C   UNL     1      28.155  44.083  54.198  1.00  0.00    -0.049 A 
HETATM   14  C   UNL     1      29.466  42.600  52.796  1.00  0.00     0.009 A 
HETATM   15  C   UNL     1      29.248  44.202  55.066  1.00  0.00     0.007 A 
HETATM   16  C   UNL     1      26.867  44.796  54.517  1.00  0.00     0.067 C 
HETATM   17  C   UNL     1      30.442  43.536  54.794  1.00  0.00     0.001 A 
HETATM   18  C   UNL     1      30.553  42.739  53.658  1.00  0.00     0.001 A 
HETATM   19  C   UNL     1      25.976  44.965  53.288  1.00  0.00     0.240 C 
HETATM   20  H   UNL     1      25.452  43.003  53.363  1.00  0.00     0.280 HD
ENDBRANCH   9  10
ENDBRANCH   8   9
ENDBRANCH   7   8
ENDBRANCH   1   7
BRANCH   3  21
HETATM   21  N   UNL     1      22.385  48.281  49.552  1.00  0.00    -0.261 N 
HETATM   22  C   UNL     1      22.482  49.652  49.384  1.00  0.00     0.277 C 
HETATM   23  O   UNL     1      23.575  50.210  49.504  1.00  0.00    -0.265 OA
HETATM   24  H   UNL     1      21.517  47.772  49.414  1.00  0.00     0.190 HD
BRANCH  22  25
HETATM   25  C   UNL     1      21.248  50.357  49.078  1.00  0.00     0.075 A 
HETATM   26  S   UNL     1      20.185  50.923  50.302  1.00  0.00    -0.077 SA
HETATM   27  C   UNL     1      19.131  51.593  49.160  1.00  0.00     0.052 A 
HETATM   28 BR   UNL     1      17.565  52.507  49.628  1.00  0.00    -0.043 Br
HETATM   29  C   UNL     1      19.538  51.400  47.865  1.00  0.00     0.028 A 
HETATM   30  C   UNL     1      20.770  50.680  47.818  1.00  0.00     0.026 A 
ENDBRANCH  22  25
ENDBRANCH   3  21
TORSDOF 6
ENDMDL
MODEL 5
REMARK VINA RESULT:      -8.6      4.995     11.436
REMARK  6 active torsions:
REMARK  status: ('A' for Active; 'I' for Inactive)
REMARK    1  A    between atoms: N_6  and  C_8 
REMARK    2  A    between atoms: C_8  and  C_9 
REMARK    3  A    between atoms: C_9  and  C_10 
REMARK    4  A    between atoms: C_10  and  N_11 
REMARK       I    between atoms: N_11  and  C_12 
REMARK       I    between atoms: C_12  and  N_13 
REMARK    5  A    between atoms: N_13  and  N_14 
REMARK       I    between atoms: N_14  and  C_15 
REMARK    6  A    between atoms: C_15  and  C_16 
ROOT
HETATM    1  N   UNL     1      24.394  45.865  50.906  1.00  0.00    -0.342 N 
HETATM    2  C   UNL     1      25.576  45.364  51.383  1.00  0.00     0.334 C 
HETATM    3  N   UNL     1      25.528  45.077  52.722  1.00  0.00    -0.249 N 
HETATM    4  O   UNL     1      26.588  45.290  50.687  1.00  0.00    -0.246 OA
HETATM    5  H   UNL     1      23.581  45.812  51.510  1.00  0.00     0.164 HD
HETATM    6  H   UNL     1      24.642  44.823  53.162  1.00  0.00     0.192 HD
ENDROOT
BRANCH   1   7
HETATM    7  C   UNL     1      24.188  46.175  49.509  1.00  0.00     0.126 C 
BRANCH   7   8
HETATM    8  C   UNL     1      23.357  47.439  49.279  1.00  0.00     0.047 C 
BRANCH   8   9
HETATM    9  C   UNL     1      21.916  47.247  48.798  1.00  0.00     0.237 C 
BRANCH   9  10
HETATM   10  N   UNL     1      20.961  48.300  49.289  1.00  0.00    -0.067 N 
HETATM   11  C   UNL     1      20.931  49.552  48.454  1.00  0.00     0.274 C 
HETATM   12  C   UNL     1      19.836  50.519  48.814  1.00  0.00    -0.026 A 
HETATM   13  C   UNL     1      18.765  50.139  49.644  1.00  0.00    -0.049 A 
HETATM   14  C   UNL     1      19.858  51.812  48.270  1.00  0.00     0.009 A 
HETATM   15  C   UNL     1      17.761  51.068  49.947  1.00  0.00     0.007 A 
HETATM   16  C   UNL     1      18.716  48.762  50.252  1.00  0.00     0.067 C 
HETATM   17  C   UNL     1      17.799  52.352  49.405  1.00  0.00     0.001 A 
HETATM   18  C   UNL     1      18.845  52.723  48.564  1.00  0.00     0.001 A 
HETATM   19  C   UNL     1      19.563  47.754  49.477  1.00  0.00     0.240 C 
HETATM   20  H   UNL     1      21.267  48.545  50.253  1.00  0.00     0.280 HD
ENDBRANCH   9  10
ENDBRANCH   8   9
ENDBRANCH   7   8
ENDBRANCH   1   7
BRANCH   3  21
HETATM   21  N   UNL     1      26.646  44.486  53.328  1.00  0.00    -0.261 N 
HETATM   22  C   UNL     1      27.506  45.293  54.052  1.00  0.00     0.277 C 
HETATM   23  O   UNL     1      27.250  46.491  54.195  1.00  0.00    -0.265 OA
HETATM   24  H   UNL     1      26.789  43.485  53.227  1.00  0.00     0.190 HD
BRANCH  22  25
HETATM   25  C   UNL     1      28.689  44.652  54.602  1.00  0.00     0.075 A 
HETATM   26  S   UNL     1      29.456  45.212  56.033  1.00  0.00    -0.077 SA
HETATM   27  C   UNL     1      30.611  43.976  55.969  1.00  0.00     0.052 A 
HETATM   28 BR   UNL     1      31.962  43.773  57.249  1.00  0.00    -0.043 Br
HETATM   29  C   UNL     1      30.456  43.143  54.891  1.00  0.00     0.028 A 
HETATM   30  C   UNL     1      29.337  43.537  54.096  1.00  0.00     0.026 A 
ENDBRANCH  22  25
ENDBRANCH   3  21
TORSDOF 6
ENDMDL
MODEL 6
REMARK VINA RESULT:      -8.3      1.881      2.185
REMARK  6 active torsions:
REMARK  status: ('A' for Active; 'I' for Inactive)
REMARK    1  A    between atoms: N_6  and  C_8 
REMARK    2  A    between atoms: C_8  and  C_9 
REMARK    3  A    between atoms: C_9  and  C_10 
REMARK    4  A    between atoms: C_10  and  N_11 
REMARK       I    between atoms: N_11  and  C_12 
REMARK       I    between atoms: C_12  and  N_13 
REMARK    5  A    between atoms: N_13  and  N_14 
REMARK       I    between atoms: N_14  and  C_15 
REMARK    6  A    between atoms: C_15  and  C_16 
ROOT
HETATM    1  N   UNL     1      23.465  47.507  49.984  1.00  0.00    -0.342 N 
HETATM    2  C   UNL     1      22.736  48.283  49.123  1.00  0.00     0.334 C 
HETATM    3  N   UNL     1      21.491  48.589  49.608  1.00  0.00    -0.249 N 
HETATM    4  O   UNL     1      23.138  48.572  47.996  1.00  0.00    -0.246 OA
HETATM    5  H   UNL     1      23.108  47.386  50.926  1.00  0.00     0.164 HD
HETATM    6  H   UNL     1      21.330  48.642  50.615  1.00  0.00     0.192 HD
ENDROOT
BRANCH   1   7
HETATM    7  C   UNL     1      24.831  47.119  49.716  1.00  0.00     0.126 C 
BRANCH   7   8
HETATM    8  C   UNL     1      25.724  47.125  50.958  1.00  0.00     0.047 C 
BRANCH   8   9
HETATM    9  C   UNL     1      25.577  45.949  51.927  1.00  0.00     0.237 C 
BRANCH   9  10
HETATM   10  N   UNL     1      26.884  45.327  52.337  1.00  0.00    -0.067 N 
HETATM   11  C   UNL     1      27.288  45.606  53.760  1.00  0.00     0.274 C 
HETATM   12  C   UNL     1      28.480  44.821  54.237  1.00  0.00    -0.026 A 
HETATM   13  C   UNL     1      28.968  43.715  53.517  1.00  0.00    -0.049 A 
HETATM   14  C   UNL     1      29.087  45.170  55.454  1.00  0.00     0.009 A 
HETATM   15  C   UNL     1      30.074  43.006  54.002  1.00  0.00     0.007 A 
HETATM   16  C   UNL     1      28.346  43.320  52.203  1.00  0.00     0.067 C 
HETATM   17  C   UNL     1      30.672  43.369  55.208  1.00  0.00     0.001 A 
HETATM   18  C   UNL     1      30.177  44.447  55.935  1.00  0.00     0.001 A 
HETATM   19  C   UNL     1      26.917  43.841  52.057  1.00  0.00     0.240 C 
HETATM   20  H   UNL     1      27.608  45.718  51.698  1.00  0.00     0.280 HD
ENDBRANCH   9  10
ENDBRANCH   8   9
ENDBRANCH   7   8
ENDBRANCH   1   7
BRANCH   3  21
HETATM   21  N   UNL     1      20.665  49.441  48.862  1.00  0.00    -0.261 N 
HETATM   22  C   UNL     1      19.292  49.302  48.985  1.00  0.00     0.277 C 
HETATM   23  O   UNL     1      18.827  48.480  49.778  1.00  0.00    -0.265 OA
HETATM   24  H   UNL     1      21.092  50.139  48.261  1.00  0.00     0.190 HD
BRANCH  22  25
HETATM   25  C   UNL     1      18.475  50.157  48.141  1.00  0.00     0.075 A 
HETATM   26  S   UNL     1      18.860  50.460  46.494  1.00  0.00    -0.077 SA
HETATM   27  C   UNL     1      17.487  51.430  46.290  1.00  0.00     0.052 A 
HETATM   28 BR   UNL     1      17.047  52.247  44.664  1.00  0.00    -0.043 Br
HETATM   29  C   UNL     1      16.734  51.553  47.429  1.00  0.00     0.028 A 
HETATM   30  C   UNL     1      17.310  50.813  48.506  1.00  0.00     0.026 A 
ENDBRANCH  22  25
ENDBRANCH   3  21
TORSDOF 6
ENDMDL
MODEL 7
REMARK VINA RESULT:      -8.2      7.539      9.705
REMARK  6 active torsions:
REMARK  status: ('A' for Active; 'I' for Inactive)
REMARK    1  A    between atoms: N_6  and  C_8 
REMARK    2  A    between atoms: C_8  and  C_9 
REMARK    3  A    between atoms: C_9  and  C_10 
REMARK    4  A    between atoms: C_10  and  N_11 
REMARK       I    between atoms: N_11  and  C_12 
REMARK       I    between atoms: C_12  and  N_13 
REMARK    5  A    between atoms: N_13  and  N_14 
REMARK       I    between atoms: N_14  and  C_15 
REMARK    6  A    between atoms: C_15  and  C_16 
ROOT
HETATM    1  N   UNL     1      25.837  41.994  51.834  1.00  0.00    -0.342 N 
HETATM    2  C   UNL     1      25.996  41.250  50.695  1.00  0.00     0.334 C 
HETATM    3  N   UNL     1      26.257  39.930  50.956  1.00  0.00    -0.249 N 
HETATM    4  O   UNL     1      26.005  41.756  49.573  1.00  0.00    -0.246 OA
HETATM    5  H   UNL     1      25.752  41.496  52.714  1.00  0.00     0.164 HD
HETATM    6  H   UNL     1      25.911  39.497  51.813  1.00  0.00     0.192 HD
ENDROOT
BRANCH   1   7
HETATM    7  C   UNL     1      25.487  43.396  51.806  1.00  0.00     0.126 C 
BRANCH   7   8
HETATM    8  C   UNL     1      26.477  44.289  52.554  1.00  0.00     0.047 C 
BRANCH   8   9
HETATM    9  C   UNL     1      27.924  44.297  52.053  1.00  0.00     0.237 C 
BRANCH   9  10
HETATM   10  N   UNL     1      28.951  44.202  53.147  1.00  0.00    -0.067 N 
HETATM   11  C   UNL     1      28.658  45.054  54.354  1.00  0.00     0.274 C 
HETATM   12  C   UNL     1      29.565  44.808  55.529  1.00  0.00    -0.026 A 
HETATM   13  C   UNL     1      30.400  43.676  55.588  1.00  0.00    -0.049 A 
HETATM   14  C   UNL     1      29.539  45.700  56.612  1.00  0.00     0.009 A 
HETATM   15  C   UNL     1      31.222  43.480  56.706  1.00  0.00     0.007 A 
HETATM   16  C   UNL     1      30.458  42.704  54.439  1.00  0.00     0.067 C 
HETATM   17  C   UNL     1      31.192  44.379  57.771  1.00  0.00     0.001 A 
HETATM   18  C   UNL     1      30.349  45.486  57.726  1.00  0.00     0.001 A 
HETATM   19  C   UNL     1      29.211  42.770  53.559  1.00  0.00     0.240 C 
HETATM   20  H   UNL     1      29.854  44.510  52.729  1.00  0.00     0.280 HD
ENDBRANCH   9  10
ENDBRANCH   8   9
ENDBRANCH   7   8
ENDBRANCH   1   7
BRANCH   3  21
HETATM   21  N   UNL     1      26.368  39.037  49.880  1.00  0.00    -0.261 N 
HETATM   22  C   UNL     1      27.626  38.568  49.540  1.00  0.00     0.277 C 
HETATM   23  O   UNL     1      28.606  38.898  50.211  1.00  0.00    -0.265 OA
HETATM   24  H   UNL     1      25.526  38.753  49.388  1.00  0.00     0.190 HD
BRANCH  22  25
HETATM   25  C   UNL     1      27.702  37.702  48.375  1.00  0.00     0.075 A 
HETATM   26  S   UNL     1      26.486  36.545  48.010  1.00  0.00    -0.077 SA
HETATM   27  C   UNL     1      27.288  36.059  46.601  1.00  0.00     0.052 A 
HETATM   28 BR   UNL     1      26.627  34.735  45.454  1.00  0.00    -0.043 Br
HETATM   29  C   UNL     1      28.463  36.732  46.385  1.00  0.00     0.028 A 
HETATM   30  C   UNL     1      28.703  37.687  47.418  1.00  0.00     0.026 A 
ENDBRANCH  22  25
ENDBRANCH   3  21
TORSDOF 6
ENDMDL
MODEL 8
REMARK VINA RESULT:      -8.0      1.844      2.533
REMARK  6 active torsions:
REMARK  status: ('A' for Active; 'I' for Inactive)
REMARK    1  A    between atoms: N_6  and  C_8 
REMARK    2  A    between atoms: C_8  and  C_9 
REMARK    3  A    between atoms: C_9  and  C_10 
REMARK    4  A    between atoms: C_10  and  N_11 
REMARK       I    between atoms: N_11  and  C_12 
REMARK       I    between atoms: C_12  and  N_13 
REMARK    5  A    between atoms: N_13  and  N_14 
REMARK       I    between atoms: N_14  and  C_15 
REMARK    6  A    between atoms: C_15  and  C_16 
ROOT
HETATM    1  N   UNL     1      22.973  46.109  49.458  1.00  0.00    -0.342 N 
HETATM    2  C   UNL     1      22.459  47.182  48.779  1.00  0.00     0.334 C 
HETATM    3  N   UNL     1      21.471  47.826  49.475  1.00  0.00    -0.249 N 
HETATM    4  O   UNL     1      22.792  47.451  47.625  1.00  0.00    -0.246 OA
HETATM    5  H   UNL     1      22.718  46.003  50.433  1.00  0.00     0.164 HD
HETATM    6  H   UNL     1      21.466  47.809  50.496  1.00  0.00     0.192 HD
ENDROOT
BRANCH   1   7
HETATM    7  C   UNL     1      24.073  45.320  48.950  1.00  0.00     0.126 C 
BRANCH   7   8
HETATM    8  C   UNL     1      25.030  44.831  50.038  1.00  0.00     0.047 C 
BRANCH   8   9
HETATM    9  C   UNL     1      25.093  45.653  51.329  1.00  0.00     0.237 C 
BRANCH   9  10
HETATM   10  N   UNL     1      26.043  45.104  52.358  1.00  0.00    -0.067 N 
HETATM   11  C   UNL     1      27.206  44.337  51.787  1.00  0.00     0.274 C 
HETATM   12  C   UNL     1      28.264  43.966  52.790  1.00  0.00    -0.026 A 
HETATM   13  C   UNL     1      28.300  44.551  54.070  1.00  0.00    -0.049 A 
HETATM   14  C   UNL     1      29.266  43.055  52.423  1.00  0.00     0.009 A 
HETATM   15  C   UNL     1      29.309  44.184  54.970  1.00  0.00     0.007 A 
HETATM   16  C   UNL     1      27.235  45.525  54.499  1.00  0.00     0.067 C 
HETATM   17  C   UNL     1      30.294  43.271  54.594  1.00  0.00     0.001 A 
HETATM   18  C   UNL     1      30.275  42.711  53.321  1.00  0.00     0.001 A 
HETATM   19  C   UNL     1      26.528  46.175  53.310  1.00  0.00     0.240 C 
HETATM   20  H   UNL     1      25.483  44.466  52.962  1.00  0.00     0.280 HD
ENDBRANCH   9  10
ENDBRANCH   8   9
ENDBRANCH   7   8
ENDBRANCH   1   7
BRANCH   3  21
HETATM   21  N   UNL     1      20.907  48.989  48.930  1.00  0.00    -0.261 N 
HETATM   22  C   UNL     1      19.577  48.958  48.544  1.00  0.00     0.277 C 
HETATM   23  O   UNL     1      18.907  47.940  48.732  1.00  0.00    -0.265 OA
HETATM   24  H   UNL     1      21.484  49.821  48.841  1.00  0.00     0.190 HD
BRANCH  22  25
HETATM   25  C   UNL     1      19.055  50.161  47.919  1.00  0.00     0.075 A 
HETATM   26  S   UNL     1      18.037  50.111  46.536  1.00  0.00    -0.077 SA
HETATM   27  C   UNL     1      17.887  51.797  46.512  1.00  0.00     0.052 A 
HETATM   28 BR   UNL     1      16.858  52.713  45.244  1.00  0.00    -0.043 Br
HETATM   29  C   UNL     1      18.590  52.420  47.511  1.00  0.00     0.028 A 
HETATM   30  C   UNL     1      19.270  51.467  48.329  1.00  0.00     0.026 A 
ENDBRANCH  22  25
ENDBRANCH   3  21
TORSDOF 6
ENDMDL
MODEL 9
REMARK VINA RESULT:      -7.9      2.534      3.232
REMARK  6 active torsions:
REMARK  status: ('A' for Active; 'I' for Inactive)
REMARK    1  A    between atoms: N_6  and  C_8 
REMARK    2  A    between atoms: C_8  and  C_9 
REMARK    3  A    between atoms: C_9  and  C_10 
REMARK    4  A    between atoms: C_10  and  N_11 
REMARK       I    between atoms: N_11  and  C_12 
REMARK       I    between atoms: C_12  and  N_13 
REMARK    5  A    between atoms: N_13  and  N_14 
REMARK       I    between atoms: N_14  and  C_15 
REMARK    6  A    between atoms: C_15  and  C_16 
ROOT
HETATM    1  N   UNL     1      22.719  44.351  48.986  1.00  0.00    -0.342 N 
HETATM    2  C   UNL     1      21.929  45.454  48.798  1.00  0.00     0.334 C 
HETATM    3  N   UNL     1      20.655  45.282  49.272  1.00  0.00    -0.249 N 
HETATM    4  O   UNL     1      22.315  46.442  48.172  1.00  0.00    -0.246 OA
HETATM    5  H   UNL     1      22.364  43.614  49.586  1.00  0.00     0.164 HD
HETATM    6  H   UNL     1      20.478  44.644  50.050  1.00  0.00     0.192 HD
ENDROOT
BRANCH   1   7
HETATM    7  C   UNL     1      24.119  44.326  48.628  1.00  0.00     0.126 C 
BRANCH   7   8
HETATM    8  C   UNL     1      24.972  43.458  49.555  1.00  0.00     0.047 C 
BRANCH   8   9
HETATM    9  C   UNL     1      24.409  43.169  50.949  1.00  0.00     0.237 C 
BRANCH   9  10
HETATM   10  N   UNL     1      25.449  43.148  52.037  1.00  0.00    -0.067 N 
HETATM   11  C   UNL     1      26.849  42.875  51.555  1.00  0.00     0.274 C 
HETATM   12  C   UNL     1      27.916  43.058  52.600  1.00  0.00    -0.026 A 
HETATM   13  C   UNL     1      27.650  43.716  53.815  1.00  0.00    -0.049 A 
HETATM   14  C   UNL     1      29.218  42.606  52.335  1.00  0.00     0.009 A 
HETATM   15  C   UNL     1      28.676  43.873  54.756  1.00  0.00     0.007 A 
HETATM   16  C   UNL     1      26.262  44.205  54.135  1.00  0.00     0.067 C 
HETATM   17  C   UNL     1      29.963  43.412  54.482  1.00  0.00     0.001 A 
HETATM   18  C   UNL     1      30.235  42.783  53.272  1.00  0.00     0.001 A 
HETATM   19  C   UNL     1      25.412  44.403  52.880  1.00  0.00     0.240 C 
HETATM   20  H   UNL     1      25.166  42.393  52.696  1.00  0.00     0.280 HD
ENDBRANCH   9  10
ENDBRANCH   8   9
ENDBRANCH   7   8
ENDBRANCH   1   7
BRANCH   3  21
HETATM   21  N   UNL     1      19.760  46.359  49.213  1.00  0.00    -0.261 N 
HETATM   22  C   UNL     1      18.558  46.182  48.546  1.00  0.00     0.277 C 
HETATM   23  O   UNL     1      18.278  45.081  48.068  1.00  0.00    -0.265 OA
HETATM   24  H   UNL     1      20.010  47.233  49.667  1.00  0.00     0.190 HD
BRANCH  22  25
HETATM   25  C   UNL     1      17.693  47.346  48.449  1.00  0.00     0.075 A 
HETATM   26  S   UNL     1      18.237  48.929  48.834  1.00  0.00    -0.077 SA
HETATM   27  C   UNL     1      16.736  49.605  48.438  1.00  0.00     0.052 A 
HETATM   28 BR   UNL     1      16.380  51.440  48.548  1.00  0.00    -0.043 Br
HETATM   29  C   UNL     1      15.813  48.677  48.028  1.00  0.00     0.028 A 
HETATM   30  C   UNL     1      16.371  47.363  48.036  1.00  0.00     0.026 A 
ENDBRANCH  22  25
ENDBRANCH   3  21
TORSDOF 6
ENDMDL
MODEL 10
REMARK VINA RESULT:      -7.8      2.224      3.041
REMARK  6 active torsions:
REMARK  status: ('A' for Active; 'I' for Inactive)
REMARK    1  A    between atoms: N_6  and  C_8 
REMARK    2  A    between atoms: C_8  and  C_9 
REMARK    3  A    between atoms: C_9  and  C_10 
REMARK    4  A    between atoms: C_10  and  N_11 
REMARK       I    between atoms: N_11  and  C_12 
REMARK       I    between atoms: C_12  and  N_13 
REMARK    5  A    between atoms: N_13  and  N_14 
REMARK       I    between atoms: N_14  and  C_15 
REMARK    6  A    between atoms: C_15  and  C_16 
ROOT
HETATM    1  N   UNL     1      24.196  42.254  49.430  1.00  0.00    -0.342 N 
HETATM    2  C   UNL     1      24.001  43.588  49.187  1.00  0.00     0.334 C 
HETATM    3  N   UNL     1      22.676  43.938  49.179  1.00  0.00    -0.249 N 
HETATM    4  O   UNL     1      24.927  44.348  48.903  1.00  0.00    -0.246 OA
HETATM    5  H   UNL     1      23.400  41.711  49.744  1.00  0.00     0.164 HD
HETATM    6  H   UNL     1      22.001  43.408  49.734  1.00  0.00     0.192 HD
ENDROOT
BRANCH   1   7
HETATM    7  C   UNL     1      25.513  41.670  49.553  1.00  0.00     0.126 C 
BRANCH   7   8
HETATM    8  C   UNL     1      26.050  41.667  50.985  1.00  0.00     0.047 C 
BRANCH   8   9
HETATM    9  C   UNL     1      27.514  42.069  51.179  1.00  0.00     0.237 C 
BRANCH   9  10
HETATM   10  N   UNL     1      27.784  42.794  52.470  1.00  0.00    -0.067 N 
HETATM   11  C   UNL     1      29.172  42.596  53.018  1.00  0.00     0.274 C 
HETATM   12  C   UNL     1      29.514  43.477  54.188  1.00  0.00    -0.026 A 
HETATM   13  C   UNL     1      28.719  44.587  54.530  1.00  0.00    -0.049 A 
HETATM   14  C   UNL     1      30.680  43.216  54.924  1.00  0.00     0.009 A 
HETATM   15  C   UNL     1      29.079  45.387  55.621  1.00  0.00     0.007 A 
HETATM   16  C   UNL     1      27.457  44.890  53.766  1.00  0.00     0.067 C 
HETATM   17  C   UNL     1      30.237  45.111  56.349  1.00  0.00     0.001 A 
HETATM   18  C   UNL     1      31.038  44.029  55.998  1.00  0.00     0.001 A 
HETATM   19  C   UNL     1      27.457  44.268  52.371  1.00  0.00     0.240 C 
HETATM   20  H   UNL     1      27.094  42.430  53.159  1.00  0.00     0.280 HD
ENDBRANCH   9  10
ENDBRANCH   8   9
ENDBRANCH   7   8
ENDBRANCH   1   7
BRANCH   3  21
HETATM   21  N   UNL     1      22.333  45.288  49.018  1.00  0.00    -0.261 N 
HETATM   22  C   UNL     1      21.061  45.594  48.562  1.00  0.00     0.277 C 
HETATM   23  O   UNL     1      20.247  44.691  48.361  1.00  0.00    -0.265 OA
HETATM   24  H   UNL     1      23.020  46.001  49.245  1.00  0.00     0.190 HD
BRANCH  22  25
HETATM   25  C   UNL     1      20.774  47.002  48.342  1.00  0.00     0.075 A 
HETATM   26  S   UNL     1      19.307  47.731  48.857  1.00  0.00    -0.077 SA
HETATM   27  C   UNL     1      19.790  49.249  48.283  1.00  0.00     0.052 A 
HETATM   28 BR   UNL     1      18.732  50.785  48.440  1.00  0.00    -0.043 Br
HETATM   29  C   UNL     1      21.029  49.238  47.696  1.00  0.00     0.028 A 
HETATM   30  C   UNL     1      21.601  47.930  47.730  1.00  0.00     0.026 A 
ENDBRANCH  22  25
ENDBRANCH   3  21
TORSDOF 6
ENDMDL
