MODEL 1
REMARK VINA RESULT:     -10.4      0.000      0.000
REMARK  6 active torsions:
REMARK  status: ('A' for Active; 'I' for Inactive)
REMARK    1  A    between atoms: C_8  and  C_9 
REMARK    2  A    between atoms: C_9  and  C_10 
REMARK    3  A    between atoms: C_10  and  N_11 
REMARK       I    between atoms: N_11  and  C_12 
REMARK    4  A    between atoms: C_12  and  C_13 
REMARK    5  A    between atoms: C_18  and  C_19 
REMARK    6  A    between atoms: C_29  and  C_30 
ROOT
HETATM    1  C   UNL     1      24.307  47.423  50.155  1.00  0.00     0.148 A 
HETATM    2  N   UNL     1      23.945  48.723  50.062  1.00  0.00    -0.165 NA
HETATM    3  N   UNL     1      22.996  48.718  49.107  1.00  0.00    -0.240 N 
HETATM    4  C   UNL     1      22.763  47.487  48.563  1.00  0.00     0.123 A 
HETATM    5  N   UNL     1      21.877  47.303  47.563  1.00  0.00    -0.366 N 
HETATM    6  C   UNL     1      21.043  48.379  47.049  1.00  0.00     0.118 C 
HETATM    7  C   UNL     1      21.704  49.750  47.280  1.00  0.00     0.066 C 
HETATM    8  C   UNL     1      22.351  49.940  48.666  1.00  0.00     0.221 C 
HETATM    9  C   UNL     1      23.586  46.620  49.230  1.00  0.00     0.088 A 
HETATM   10  H   UNL     1      21.624  46.366  47.254  1.00  0.00     0.161 HD
ENDROOT
BRANCH   1  11
HETATM   11  C   UNL     1      25.324  46.946  51.104  1.00  0.00     0.272 C 
HETATM   12  N   UNL     1      25.438  45.574  51.162  1.00  0.00    -0.355 N 
HETATM   13  H   UNL     1      24.958  45.071  50.417  1.00  0.00     0.162 HD
HETATM   14  O   UNL     1      26.022  47.711  51.765  1.00  0.00    -0.266 OA
BRANCH  12  15
HETATM   15  C   UNL     1      26.521  44.947  51.889  1.00  0.00     0.127 C 
BRANCH  15  16
HETATM   16  C   UNL     1      26.207  44.716  53.367  1.00  0.00     0.060 C 
BRANCH  16  17
HETATM   17  C   UNL     1      27.226  45.316  54.286  1.00  0.00    -0.029 A 
HETATM   18  C   UNL     1      28.455  44.723  54.720  1.00  0.00    -0.002 A 
HETATM   19  C   UNL     1      29.096  43.493  54.470  1.00  0.00     0.014 A 
HETATM   20  C   UNL     1      29.081  45.636  55.572  1.00  0.00     0.042 A 
HETATM   21  C   UNL     1      30.329  43.221  55.076  1.00  0.00     0.001 A 
HETATM   22  C   UNL     1      30.925  44.154  55.921  1.00  0.00     0.002 A 
HETATM   23  C   UNL     1      30.313  45.381  56.186  1.00  0.00     0.030 A 
HETATM   24  N   UNL     1      28.266  46.741  55.650  1.00  0.00    -0.365 N 
HETATM   25  H   UNL     1      28.472  47.565  56.197  1.00  0.00     0.165 HD
HETATM   26  C   UNL     1      27.147  46.559  54.885  1.00  0.00     0.096 A 
ENDBRANCH  16  17
ENDBRANCH  15  16
ENDBRANCH  12  15
ENDBRANCH   1  11
BRANCH   8  27
HETATM   27  C   UNL     1      21.396  50.451  49.720  1.00  0.00     0.409 C 
HETATM   28  F   UNL     1      22.043  51.074  50.732  1.00  0.00    -0.169 F 
HETATM   29  F   UNL     1      20.563  51.380  49.180  1.00  0.00    -0.169 F 
HETATM   30  F   UNL     1      20.621  49.495  50.263  1.00  0.00    -0.169 F 
ENDBRANCH   8  27
BRANCH   6  31
HETATM   31  C   UNL     1      19.598  48.266  47.504  1.00  0.00    -0.033 A 
HETATM   32  C   UNL     1      18.674  49.238  47.073  1.00  0.00     0.049 A 
HETATM   33  C   UNL     1      17.353  49.112  47.451  1.00  0.00     0.105 A 
HETATM   34  C   UNL     1      16.921  48.075  48.242  1.00  0.00     0.105 A 
HETATM   35  O   UNL     1      16.343  49.952  47.101  1.00  0.00    -0.323 OA
HETATM   36  O   UNL     1      15.587  48.133  48.493  1.00  0.00    -0.323 OA
HETATM   37  C   UNL     1      17.787  47.107  48.695  1.00  0.00     0.040 A 
HETATM   38  C   UNL     1      15.224  49.315  47.751  1.00  0.00     0.352 A 
HETATM   39  C   UNL     1      19.130  47.202  48.315  1.00  0.00     0.012 A 
ENDBRANCH   6  31
TORSDOF 6
ENDMDL
MODEL 2
REMARK VINA RESULT:      -9.9      8.074     10.428
REMARK  6 active torsions:
REMARK  status: ('A' for Active; 'I' for Inactive)
REMARK    1  A    between atoms: C_8  and  C_9 
REMARK    2  A    between atoms: C_9  and  C_10 
REMARK    3  A    between atoms: C_10  and  N_11 
REMARK       I    between atoms: N_11  and  C_12 
REMARK    4  A    between atoms: C_12  and  C_13 
REMARK    5  A    between atoms: C_18  and  C_19 
REMARK    6  A    between atoms: C_29  and  C_30 
ROOT
HETATM    1  C   UNL     1      26.312  41.417  50.513  1.00  0.00     0.148 A 
HETATM    2  N   UNL     1      27.162  40.391  50.743  1.00  0.00    -0.165 NA
HETATM    3  N   UNL     1      26.961  39.573  49.693  1.00  0.00    -0.240 N 
HETATM    4  C   UNL     1      26.000  40.011  48.826  1.00  0.00     0.123 A 
HETATM    5  N   UNL     1      25.636  39.296  47.741  1.00  0.00    -0.366 N 
HETATM    6  C   UNL     1      26.297  38.055  47.365  1.00  0.00     0.118 C 
HETATM    7  C   UNL     1      26.928  37.370  48.591  1.00  0.00     0.066 C 
HETATM    8  C   UNL     1      27.666  38.313  49.562  1.00  0.00     0.221 C 
HETATM    9  C   UNL     1      25.567  41.212  49.320  1.00  0.00     0.088 A 
HETATM   10  H   UNL     1      25.011  39.690  47.040  1.00  0.00     0.161 HD
ENDROOT
BRANCH   1  11
HETATM   11  C   UNL     1      26.201  42.577  51.412  1.00  0.00     0.272 C 
HETATM   12  N   UNL     1      26.842  42.413  52.620  1.00  0.00    -0.355 N 
HETATM   13  H   UNL     1      27.469  41.611  52.668  1.00  0.00     0.162 HD
HETATM   14  O   UNL     1      25.606  43.603  51.096  1.00  0.00    -0.266 OA
BRANCH  12  15
HETATM   15  C   UNL     1      27.003  43.524  53.534  1.00  0.00     0.127 C 
BRANCH  15  16
HETATM   16  C   UNL     1      28.383  44.177  53.458  1.00  0.00     0.060 C 
BRANCH  16  17
HETATM   17  C   UNL     1      28.771  44.881  54.723  1.00  0.00    -0.029 A 
HETATM   18  C   UNL     1      29.776  44.483  55.662  1.00  0.00    -0.002 A 
HETATM   19  C   UNL     1      30.680  43.404  55.736  1.00  0.00     0.014 A 
HETATM   20  C   UNL     1      29.786  45.430  56.688  1.00  0.00     0.042 A 
HETATM   21  C   UNL     1      31.554  43.311  56.826  1.00  0.00     0.001 A 
HETATM   22  C   UNL     1      31.538  44.272  57.834  1.00  0.00     0.002 A 
HETATM   23  C   UNL     1      30.653  45.352  57.785  1.00  0.00     0.030 A 
HETATM   24  N   UNL     1      28.828  46.367  56.384  1.00  0.00    -0.365 N 
HETATM   25  H   UNL     1      28.617  47.174  56.954  1.00  0.00     0.165 HD
HETATM   26  C   UNL     1      28.207  46.047  55.208  1.00  0.00     0.096 A 
ENDBRANCH  16  17
ENDBRANCH  15  16
ENDBRANCH  12  15
ENDBRANCH   1  11
BRANCH   8  27
HETATM   27  C   UNL     1      29.115  38.546  49.201  1.00  0.00     0.409 C 
HETATM   28  F   UNL     1      29.305  39.749  48.613  1.00  0.00    -0.169 F 
HETATM   29  F   UNL     1      29.877  38.557  50.328  1.00  0.00    -0.169 F 
HETATM   30  F   UNL     1      29.631  37.609  48.386  1.00  0.00    -0.169 F 
ENDBRANCH   8  27
BRANCH   6  31
HETATM   31  C   UNL     1      27.216  38.223  46.167  1.00  0.00    -0.033 A 
HETATM   32  C   UNL     1      27.378  39.509  45.613  1.00  0.00     0.049 A 
HETATM   33  C   UNL     1      28.246  39.669  44.552  1.00  0.00     0.105 A 
HETATM   34  C   UNL     1      28.943  38.613  44.019  1.00  0.00     0.105 A 
HETATM   35  O   UNL     1      28.525  40.843  43.925  1.00  0.00    -0.323 OA
HETATM   36  O   UNL     1      29.745  38.985  42.987  1.00  0.00    -0.323 OA
HETATM   37  C   UNL     1      28.812  37.338  44.520  1.00  0.00     0.040 A 
HETATM   38  C   UNL     1      29.489  40.403  42.945  1.00  0.00     0.352 A 
HETATM   39  C   UNL     1      27.949  37.149  45.606  1.00  0.00     0.012 A 
ENDBRANCH   6  31
TORSDOF 6
ENDMDL
MODEL 3
REMARK VINA RESULT:      -9.6      8.350     11.764
REMARK  6 active torsions:
REMARK  status: ('A' for Active; 'I' for Inactive)
REMARK    1  A    between atoms: C_8  and  C_9 
REMARK    2  A    between atoms: C_9  and  C_10 
REMARK    3  A    between atoms: C_10  and  N_11 
REMARK       I    between atoms: N_11  and  C_12 
REMARK    4  A    between atoms: C_12  and  C_13 
REMARK    5  A    between atoms: C_18  and  C_19 
REMARK    6  A    between atoms: C_29  and  C_30 
ROOT
HETATM    1  C   UNL     1      15.252  53.970  49.896  1.00  0.00     0.148 A 
HETATM    2  N   UNL     1      14.654  55.128  49.537  1.00  0.00    -0.165 NA
HETATM    3  N   UNL     1      14.207  55.629  50.704  1.00  0.00    -0.240 N 
HETATM    4  C   UNL     1      14.459  54.828  51.782  1.00  0.00     0.123 A 
HETATM    5  N   UNL     1      14.044  55.150  53.024  1.00  0.00    -0.366 N 
HETATM    6  C   UNL     1      13.377  56.409  53.324  1.00  0.00     0.118 C 
HETATM    7  C   UNL     1      12.662  56.967  52.080  1.00  0.00     0.066 C 
HETATM    8  C   UNL     1      13.463  56.872  50.766  1.00  0.00     0.221 C 
HETATM    9  C   UNL     1      15.149  53.751  51.297  1.00  0.00     0.088 A 
HETATM   10  H   UNL     1      14.345  54.610  53.833  1.00  0.00     0.161 HD
ENDROOT
BRANCH   1  11
HETATM   11  C   UNL     1      15.910  53.080  48.927  1.00  0.00     0.272 C 
HETATM   12  N   UNL     1      17.282  53.040  49.044  1.00  0.00    -0.355 N 
HETATM   13  H   UNL     1      17.654  53.465  49.893  1.00  0.00     0.162 HD
HETATM   14  O   UNL     1      15.282  52.417  48.106  1.00  0.00    -0.266 OA
BRANCH  12  15
HETATM   15  C   UNL     1      18.064  52.069  48.309  1.00  0.00     0.127 C 
BRANCH  15  16
HETATM   16  C   UNL     1      19.568  52.191  48.552  1.00  0.00     0.060 C 
BRANCH  16  17
HETATM   17  C   UNL     1      20.209  50.894  48.942  1.00  0.00    -0.029 A 
HETATM   18  C   UNL     1      21.569  50.501  48.728  1.00  0.00    -0.002 A 
HETATM   19  C   UNL     1      22.690  51.120  48.140  1.00  0.00     0.014 A 
HETATM   20  C   UNL     1      21.717  49.213  49.246  1.00  0.00     0.042 A 
HETATM   21  C   UNL     1      23.910  50.435  48.090  1.00  0.00     0.001 A 
HETATM   22  C   UNL     1      24.024  49.150  48.616  1.00  0.00     0.002 A 
HETATM   23  C   UNL     1      22.929  48.513  49.204  1.00  0.00     0.030 A 
HETATM   24  N   UNL     1      20.497  48.839  49.757  1.00  0.00    -0.365 N 
HETATM   25  H   UNL     1      20.312  47.950  50.200  1.00  0.00     0.165 HD
HETATM   26  C   UNL     1      19.581  49.839  49.577  1.00  0.00     0.096 A 
ENDBRANCH  16  17
ENDBRANCH  15  16
ENDBRANCH  12  15
ENDBRANCH   1  11
BRANCH   8  27
HETATM   27  C   UNL     1      14.374  58.053  50.521  1.00  0.00     0.409 C 
HETATM   28  F   UNL     1      14.340  58.462  49.232  1.00  0.00    -0.169 F 
HETATM   29  F   UNL     1      13.963  59.116  51.262  1.00  0.00    -0.169 F 
HETATM   30  F   UNL     1      15.661  57.824  50.840  1.00  0.00    -0.169 F 
ENDBRANCH   8  27
BRANCH   6  31
HETATM   31  C   UNL     1      14.281  57.390  54.053  1.00  0.00    -0.033 A 
HETATM   32  C   UNL     1      13.694  58.482  54.721  1.00  0.00     0.049 A 
HETATM   33  C   UNL     1      14.511  59.349  55.418  1.00  0.00     0.105 A 
HETATM   34  C   UNL     1      15.873  59.181  55.467  1.00  0.00     0.105 A 
HETATM   35  O   UNL     1      14.097  60.432  56.128  1.00  0.00    -0.323 OA
HETATM   36  O   UNL     1      16.490  60.138  56.209  1.00  0.00    -0.323 OA
HETATM   37  C   UNL     1      16.492  58.135  54.824  1.00  0.00     0.040 A 
HETATM   38  C   UNL     1      15.355  60.917  56.640  1.00  0.00     0.352 A 
HETATM   39  C   UNL     1      15.686  57.232  54.120  1.00  0.00     0.012 A 
ENDBRANCH   6  31
TORSDOF 6
ENDMDL
MODEL 4
REMARK VINA RESULT:      -9.5      2.872      4.477
REMARK  6 active torsions:
REMARK  status: ('A' for Active; 'I' for Inactive)
REMARK    1  A    between atoms: C_8  and  C_9 
REMARK    2  A    between atoms: C_9  and  C_10 
REMARK    3  A    between atoms: C_10  and  N_11 
REMARK       I    between atoms: N_11  and  C_12 
REMARK    4  A    between atoms: C_12  and  C_13 
REMARK    5  A    between atoms: C_18  and  C_19 
REMARK    6  A    between atoms: C_29  and  C_30 
ROOT
HETATM    1  C   UNL     1      21.747  49.636  48.889  1.00  0.00     0.148 A 
HETATM    2  N   UNL     1      20.617  49.094  49.397  1.00  0.00    -0.165 NA
HETATM    3  N   UNL     1      19.697  50.062  49.227  1.00  0.00    -0.240 N 
HETATM    4  C   UNL     1      20.195  51.206  48.670  1.00  0.00     0.123 A 
HETATM    5  N   UNL     1      19.426  52.296  48.467  1.00  0.00    -0.366 N 
HETATM    6  C   UNL     1      17.997  52.307  48.742  1.00  0.00     0.118 C 
HETATM    7  C   UNL     1      17.633  51.269  49.820  1.00  0.00     0.066 C 
HETATM    8  C   UNL     1      18.328  49.901  49.673  1.00  0.00     0.221 C 
HETATM    9  C   UNL     1      21.518  50.960  48.424  1.00  0.00     0.088 A 
HETATM   10  H   UNL     1      19.777  53.093  47.939  1.00  0.00     0.161 HD
ENDROOT
BRANCH   1  11
HETATM   11  C   UNL     1      23.028  48.914  48.847  1.00  0.00     0.272 C 
HETATM   12  N   UNL     1      23.160  47.950  49.823  1.00  0.00    -0.355 N 
HETATM   13  H   UNL     1      22.301  47.719  50.319  1.00  0.00     0.162 HD
HETATM   14  O   UNL     1      23.887  49.141  48.000  1.00  0.00    -0.266 OA
BRANCH  12  15
HETATM   15  C   UNL     1      24.265  47.015  49.800  1.00  0.00     0.127 C 
BRANCH  15  16
HETATM   16  C   UNL     1      25.194  47.145  51.008  1.00  0.00     0.060 C 
BRANCH  16  17
HETATM   17  C   UNL     1      25.361  45.861  51.762  1.00  0.00    -0.029 A 
HETATM   18  C   UNL     1      26.162  45.639  52.927  1.00  0.00    -0.002 A 
HETATM   19  C   UNL     1      26.996  46.456  53.717  1.00  0.00     0.014 A 
HETATM   20  C   UNL     1      26.021  44.296  53.281  1.00  0.00     0.042 A 
HETATM   21  C   UNL     1      27.656  45.904  54.822  1.00  0.00     0.001 A 
HETATM   22  C   UNL     1      27.494  44.560  55.147  1.00  0.00     0.002 A 
HETATM   23  C   UNL     1      26.673  43.728  54.383  1.00  0.00     0.030 A 
HETATM   24  N   UNL     1      25.166  43.724  52.369  1.00  0.00    -0.365 N 
HETATM   25  H   UNL     1      24.880  42.755  52.383  1.00  0.00     0.165 HD
HETATM   26  C   UNL     1      24.765  44.653  51.448  1.00  0.00     0.096 A 
ENDBRANCH  16  17
ENDBRANCH  15  16
ENDBRANCH  12  15
ENDBRANCH   1  11
BRANCH   8  27
HETATM   27  C   UNL     1      17.585  48.933  48.781  1.00  0.00     0.409 C 
HETATM   28  F   UNL     1      16.279  49.261  48.652  1.00  0.00    -0.169 F 
HETATM   29  F   UNL     1      18.105  48.968  47.525  1.00  0.00    -0.169 F 
HETATM   30  F   UNL     1      17.643  47.655  49.196  1.00  0.00    -0.169 F 
ENDBRANCH   8  27
BRANCH   6  31
HETATM   31  C   UNL     1      17.158  52.255  47.477  1.00  0.00    -0.033 A 
HETATM   32  C   UNL     1      17.809  52.084  46.239  1.00  0.00     0.049 A 
HETATM   33  C   UNL     1      17.044  51.993  45.094  1.00  0.00     0.105 A 
HETATM   34  C   UNL     1      15.674  52.076  45.129  1.00  0.00     0.105 A 
HETATM   35  O   UNL     1      17.520  51.808  43.834  1.00  0.00    -0.323 OA
HETATM   36  O   UNL     1      15.114  51.958  43.897  1.00  0.00    -0.323 OA
HETATM   37  C   UNL     1      14.994  52.251  46.312  1.00  0.00     0.040 A 
HETATM   38  C   UNL     1      16.289  51.769  43.083  1.00  0.00     0.352 A 
HETATM   39  C   UNL     1      15.744  52.332  47.491  1.00  0.00     0.012 A 
ENDBRANCH   6  31
TORSDOF 6
ENDMDL
MODEL 5
REMARK VINA RESULT:      -9.5      6.251     11.955
REMARK  6 active torsions:
REMARK  status: ('A' for Active; 'I' for Inactive)
REMARK    1  A    between atoms: C_8  and  C_9 
REMARK    2  A    between atoms: C_9  and  C_10 
REMARK    3  A    between atoms: C_10  and  N_11 
REMARK       I    between atoms: N_11  and  C_12 
REMARK    4  A    between atoms: C_12  and  C_13 
REMARK    5  A    between atoms: C_18  and  C_19 
REMARK    6  A    between atoms: C_29  and  C_30 
ROOT
HETATM    1  C   UNL     1      16.535  52.062  49.174  1.00  0.00     0.148 A 
HETATM    2  N   UNL     1      16.620  50.773  49.575  1.00  0.00    -0.165 NA
HETATM    3  N   UNL     1      17.643  50.284  48.849  1.00  0.00    -0.240 N 
HETATM    4  C   UNL     1      18.188  51.187  47.981  1.00  0.00     0.123 A 
HETATM    5  N   UNL     1      19.193  50.858  47.144  1.00  0.00    -0.366 N 
HETATM    6  C   UNL     1      19.828  49.548  47.161  1.00  0.00     0.118 C 
HETATM    7  C   UNL     1      18.871  48.476  47.711  1.00  0.00     0.066 C 
HETATM    8  C   UNL     1      18.055  48.897  48.950  1.00  0.00     0.221 C 
HETATM    9  C   UNL     1      17.503  52.356  48.176  1.00  0.00     0.088 A 
HETATM   10  H   UNL     1      19.671  51.569  46.594  1.00  0.00     0.161 HD
ENDROOT
BRANCH   1  11
HETATM   11  C   UNL     1      15.548  53.004  49.726  1.00  0.00     0.272 C 
HETATM   12  N   UNL     1      15.778  54.319  49.386  1.00  0.00    -0.355 N 
HETATM   13  H   UNL     1      16.468  54.458  48.649  1.00  0.00     0.162 HD
HETATM   14  O   UNL     1      14.596  52.638  50.408  1.00  0.00    -0.266 OA
BRANCH  12  15
HETATM   15  C   UNL     1      14.797  55.344  49.673  1.00  0.00     0.127 C 
BRANCH  15  16
HETATM   16  C   UNL     1      15.318  56.438  50.606  1.00  0.00     0.060 C 
BRANCH  16  17
HETATM   17  C   UNL     1      14.732  56.365  51.982  1.00  0.00    -0.029 A 
HETATM   18  C   UNL     1      14.757  57.383  52.989  1.00  0.00    -0.002 A 
HETATM   19  C   UNL     1      15.282  58.690  53.052  1.00  0.00     0.014 A 
HETATM   20  C   UNL     1      14.099  56.877  54.111  1.00  0.00     0.042 A 
HETATM   21  C   UNL     1      15.130  59.438  54.226  1.00  0.00     0.001 A 
HETATM   22  C   UNL     1      14.468  58.903  55.328  1.00  0.00     0.002 A 
HETATM   23  C   UNL     1      13.938  57.611  55.293  1.00  0.00     0.030 A 
HETATM   24  N   UNL     1      13.685  55.604  53.798  1.00  0.00    -0.365 N 
HETATM   25  H   UNL     1      13.177  54.998  54.426  1.00  0.00     0.165 HD
HETATM   26  C   UNL     1      14.063  55.283  52.523  1.00  0.00     0.096 A 
ENDBRANCH  16  17
ENDBRANCH  15  16
ENDBRANCH  12  15
ENDBRANCH   1  11
BRANCH   8  27
HETATM   27  C   UNL     1      18.764  48.645  50.261  1.00  0.00     0.409 C 
HETATM   28  F   UNL     1      17.899  48.335  51.254  1.00  0.00    -0.169 F 
HETATM   29  F   UNL     1      19.593  47.573  50.140  1.00  0.00    -0.169 F 
HETATM   30  F   UNL     1      19.514  49.678  50.683  1.00  0.00    -0.169 F 
ENDBRANCH   8  27
BRANCH   6  31
HETATM   31  C   UNL     1      21.209  49.578  47.797  1.00  0.00    -0.033 A 
HETATM   32  C   UNL     1      21.806  48.359  48.173  1.00  0.00     0.049 A 
HETATM   33  C   UNL     1      23.078  48.382  48.710  1.00  0.00     0.105 A 
HETATM   34  C   UNL     1      23.765  49.556  48.896  1.00  0.00     0.105 A 
HETATM   35  O   UNL     1      23.794  47.294  49.100  1.00  0.00    -0.323 OA
HETATM   36  O   UNL     1      24.998  49.358  49.431  1.00  0.00    -0.323 OA
HETATM   37  C   UNL     1      23.220  50.771  48.553  1.00  0.00     0.040 A 
HETATM   38  C   UNL     1      25.017  47.920  49.541  1.00  0.00     0.352 A 
HETATM   39  C   UNL     1      21.937  50.776  47.992  1.00  0.00     0.012 A 
ENDBRANCH   6  31
TORSDOF 6
ENDMDL
MODEL 6
REMARK VINA RESULT:      -9.2      3.312     10.794
REMARK  6 active torsions:
REMARK  status: ('A' for Active; 'I' for Inactive)
REMARK    1  A    between atoms: C_8  and  C_9 
REMARK    2  A    between atoms: C_9  and  C_10 
REMARK    3  A    between atoms: C_10  and  N_11 
REMARK       I    between atoms: N_11  and  C_12 
REMARK    4  A    between atoms: C_12  and  C_13 
REMARK    5  A    between atoms: C_18  and  C_19 
REMARK    6  A    between atoms: C_29  and  C_30 
ROOT
HETATM    1  C   UNL     1      23.146  47.462  49.192  1.00  0.00     0.148 A 
HETATM    2  N   UNL     1      22.994  46.118  49.177  1.00  0.00    -0.165 NA
HETATM    3  N   UNL     1      24.238  45.657  49.406  1.00  0.00    -0.240 N 
HETATM    4  C   UNL     1      25.179  46.640  49.528  1.00  0.00     0.123 A 
HETATM    5  N   UNL     1      26.485  46.360  49.715  1.00  0.00    -0.366 N 
HETATM    6  C   UNL     1      26.977  45.001  49.888  1.00  0.00     0.118 C 
HETATM    7  C   UNL     1      26.036  43.983  49.220  1.00  0.00     0.066 C 
HETATM    8  C   UNL     1      24.532  44.238  49.439  1.00  0.00     0.221 C 
HETATM    9  C   UNL     1      24.503  47.824  49.409  1.00  0.00     0.088 A 
HETATM   10  H   UNL     1      27.154  47.099  49.929  1.00  0.00     0.161 HD
ENDROOT
BRANCH   1  11
HETATM   11  C   UNL     1      22.023  48.392  48.999  1.00  0.00     0.272 C 
HETATM   12  N   UNL     1      22.149  49.575  49.694  1.00  0.00    -0.355 N 
HETATM   13  H   UNL     1      23.073  49.745  50.089  1.00  0.00     0.162 HD
HETATM   14  O   UNL     1      21.073  48.138  48.263  1.00  0.00    -0.266 OA
BRANCH  12  15
HETATM   15  C   UNL     1      21.240  50.676  49.459  1.00  0.00     0.127 C 
BRANCH  15  16
HETATM   16  C   UNL     1      20.085  50.734  50.460  1.00  0.00     0.060 C 
BRANCH  16  17
HETATM   17  C   UNL     1      18.768  51.046  49.820  1.00  0.00    -0.029 A 
HETATM   18  C   UNL     1      17.838  50.117  49.253  1.00  0.00    -0.002 A 
HETATM   19  C   UNL     1      17.815  48.715  49.106  1.00  0.00     0.014 A 
HETATM   20  C   UNL     1      16.756  50.852  48.767  1.00  0.00     0.042 A 
HETATM   21  C   UNL     1      16.721  48.104  48.483  1.00  0.00     0.001 A 
HETATM   22  C   UNL     1      15.657  48.867  48.008  1.00  0.00     0.002 A 
HETATM   23  C   UNL     1      15.653  50.258  48.140  1.00  0.00     0.030 A 
HETATM   24  N   UNL     1      17.015  52.176  49.030  1.00  0.00    -0.365 N 
HETATM   25  H   UNL     1      16.397  52.938  48.789  1.00  0.00     0.165 HD
HETATM   26  C   UNL     1      18.223  52.307  49.659  1.00  0.00     0.096 A 
ENDBRANCH  16  17
ENDBRANCH  15  16
ENDBRANCH  12  15
ENDBRANCH   1  11
BRANCH   8  27
HETATM   27  C   UNL     1      23.985  43.608  50.700  1.00  0.00     0.409 C 
HETATM   28  F   UNL     1      23.832  44.513  51.694  1.00  0.00    -0.169 F 
HETATM   29  F   UNL     1      22.745  43.100  50.464  1.00  0.00    -0.169 F 
HETATM   30  F   UNL     1      24.738  42.603  51.178  1.00  0.00    -0.169 F 
ENDBRANCH   8  27
BRANCH   6  31
HETATM   31  C   UNL     1      27.352  44.695  51.329  1.00  0.00    -0.033 A 
HETATM   32  C   UNL     1      28.370  43.754  51.577  1.00  0.00     0.049 A 
HETATM   33  C   UNL     1      28.741  43.507  52.884  1.00  0.00     0.105 A 
HETATM   34  C   UNL     1      28.138  44.144  53.941  1.00  0.00     0.105 A 
HETATM   35  O   UNL     1      29.715  42.648  53.284  1.00  0.00    -0.323 OA
HETATM   36  O   UNL     1      28.652  43.764  55.140  1.00  0.00    -0.323 OA
HETATM   37  C   UNL     1      27.134  45.064  53.749  1.00  0.00     0.040 A 
HETATM   38  C   UNL     1      29.664  42.829  54.715  1.00  0.00     0.352 A 
HETATM   39  C   UNL     1      26.747  45.344  52.433  1.00  0.00     0.012 A 
ENDBRANCH   6  31
TORSDOF 6
ENDMDL
MODEL 7
REMARK VINA RESULT:      -9.2     13.421     14.512
REMARK  6 active torsions:
REMARK  status: ('A' for Active; 'I' for Inactive)
REMARK    1  A    between atoms: C_8  and  C_9 
REMARK    2  A    between atoms: C_9  and  C_10 
REMARK    3  A    between atoms: C_10  and  N_11 
REMARK       I    between atoms: N_11  and  C_12 
REMARK    4  A    between atoms: C_12  and  C_13 
REMARK    5  A    between atoms: C_18  and  C_19 
REMARK    6  A    between atoms: C_29  and  C_30 
ROOT
HETATM    1  C   UNL     1      33.329  52.282  39.527  1.00  0.00     0.148 A 
HETATM    2  N   UNL     1      32.395  52.865  40.313  1.00  0.00    -0.165 NA
HETATM    3  N   UNL     1      31.230  52.476  39.762  1.00  0.00    -0.240 N 
HETATM    4  C   UNL     1      31.378  51.706  38.643  1.00  0.00     0.123 A 
HETATM    5  N   UNL     1      30.318  51.263  37.935  1.00  0.00    -0.366 N 
HETATM    6  C   UNL     1      28.944  51.497  38.355  1.00  0.00     0.118 C 
HETATM    7  C   UNL     1      28.840  52.757  39.233  1.00  0.00     0.066 C 
HETATM    8  C   UNL     1      29.953  52.914  40.289  1.00  0.00     0.221 C 
HETATM    9  C   UNL     1      32.726  51.548  38.470  1.00  0.00     0.088 A 
HETATM   10  H   UNL     1      30.437  50.590  37.180  1.00  0.00     0.161 HD
ENDROOT
BRANCH   1  11
HETATM   11  C   UNL     1      34.773  52.421  39.769  1.00  0.00     0.272 C 
HETATM   12  N   UNL     1      35.125  52.381  41.101  1.00  0.00    -0.355 N 
HETATM   13  H   UNL     1      34.388  52.068  41.730  1.00  0.00     0.162 HD
HETATM   14  O   UNL     1      35.587  52.539  38.857  1.00  0.00    -0.266 OA
BRANCH  12  15
HETATM   15  C   UNL     1      36.513  52.301  41.501  1.00  0.00     0.127 C 
BRANCH  15  16
HETATM   16  C   UNL     1      36.709  52.303  43.018  1.00  0.00     0.060 C 
BRANCH  16  17
HETATM   17  C   UNL     1      37.385  53.541  43.522  1.00  0.00    -0.029 A 
HETATM   18  C   UNL     1      37.895  53.774  44.839  1.00  0.00    -0.002 A 
HETATM   19  C   UNL     1      37.949  53.009  46.022  1.00  0.00     0.014 A 
HETATM   20  C   UNL     1      38.432  55.062  44.857  1.00  0.00     0.042 A 
HETATM   21  C   UNL     1      38.533  53.555  47.171  1.00  0.00     0.001 A 
HETATM   22  C   UNL     1      39.059  54.844  47.155  1.00  0.00     0.002 A 
HETATM   23  C   UNL     1      39.019  55.625  45.997  1.00  0.00     0.030 A 
HETATM   24  N   UNL     1      38.259  55.591  43.600  1.00  0.00    -0.365 N 
HETATM   25  H   UNL     1      38.557  56.515  43.323  1.00  0.00     0.165 HD
HETATM   26  C   UNL     1      37.627  54.688  42.789  1.00  0.00     0.096 A 
ENDBRANCH  16  17
ENDBRANCH  15  16
ENDBRANCH  12  15
ENDBRANCH   1  11
BRANCH   8  27
HETATM   27  C   UNL     1      29.651  52.224  41.599  1.00  0.00     0.409 C 
HETATM   28  F   UNL     1      30.172  52.890  42.655  1.00  0.00    -0.169 F 
HETATM   29  F   UNL     1      28.307  52.190  41.806  1.00  0.00    -0.169 F 
HETATM   30  F   UNL     1      30.091  50.955  41.662  1.00  0.00    -0.169 F 
ENDBRANCH   8  27
BRANCH   6  31
HETATM   31  C   UNL     1      28.287  50.250  38.924  1.00  0.00    -0.033 A 
HETATM   32  C   UNL     1      29.032  49.055  38.973  1.00  0.00     0.049 A 
HETATM   33  C   UNL     1      28.451  47.934  39.529  1.00  0.00     0.105 A 
HETATM   34  C   UNL     1      27.169  47.950  40.022  1.00  0.00     0.105 A 
HETATM   35  O   UNL     1      29.044  46.718  39.668  1.00  0.00    -0.323 OA
HETATM   36  O   UNL     1      26.791  46.747  40.528  1.00  0.00    -0.323 OA
HETATM   37  C   UNL     1      26.400  49.090  39.988  1.00  0.00     0.040 A 
HETATM   38  C   UNL     1      27.991  45.976  40.317  1.00  0.00     0.352 A 
HETATM   39  C   UNL     1      26.969  50.246  39.442  1.00  0.00     0.012 A 
ENDBRANCH   6  31
TORSDOF 6
ENDMDL
MODEL 8
REMARK VINA RESULT:      -9.1     13.371     14.455
REMARK  6 active torsions:
REMARK  status: ('A' for Active; 'I' for Inactive)
REMARK    1  A    between atoms: C_8  and  C_9 
REMARK    2  A    between atoms: C_9  and  C_10 
REMARK    3  A    between atoms: C_10  and  N_11 
REMARK       I    between atoms: N_11  and  C_12 
REMARK    4  A    between atoms: C_12  and  C_13 
REMARK    5  A    between atoms: C_18  and  C_19 
REMARK    6  A    between atoms: C_29  and  C_30 
ROOT
HETATM    1  C   UNL     1      33.483  52.009  39.894  1.00  0.00     0.148 A 
HETATM    2  N   UNL     1      32.559  52.610  40.677  1.00  0.00    -0.165 NA
HETATM    3  N   UNL     1      31.414  52.461  39.984  1.00  0.00    -0.240 N 
HETATM    4  C   UNL     1      31.571  51.828  38.784  1.00  0.00     0.123 A 
HETATM    5  N   UNL     1      30.539  51.633  37.938  1.00  0.00    -0.366 N 
HETATM    6  C   UNL     1      29.171  52.000  38.274  1.00  0.00     0.118 C 
HETATM    7  C   UNL     1      29.143  53.139  39.310  1.00  0.00     0.066 C 
HETATM    8  C   UNL     1      30.157  53.002  40.463  1.00  0.00     0.221 C 
HETATM    9  C   UNL     1      32.899  51.508  38.699  1.00  0.00     0.088 A 
HETATM   10  H   UNL     1      30.645  51.052  37.107  1.00  0.00     0.161 HD
ENDROOT
BRANCH   1  11
HETATM   11  C   UNL     1      34.902  51.912  40.269  1.00  0.00     0.272 C 
HETATM   12  N   UNL     1      35.571  53.117  40.249  1.00  0.00    -0.355 N 
HETATM   13  H   UNL     1      34.973  53.939  40.175  1.00  0.00     0.162 HD
HETATM   14  O   UNL     1      35.430  50.851  40.591  1.00  0.00    -0.266 OA
BRANCH  12  15
HETATM   15  C   UNL     1      36.911  53.233  40.782  1.00  0.00     0.127 C 
BRANCH  15  16
HETATM   16  C   UNL     1      37.018  54.218  41.947  1.00  0.00     0.060 C 
BRANCH  16  17
HETATM   17  C   UNL     1      37.173  53.544  43.275  1.00  0.00    -0.029 A 
HETATM   18  C   UNL     1      37.768  54.088  44.458  1.00  0.00    -0.002 A 
HETATM   19  C   UNL     1      38.361  55.326  44.781  1.00  0.00     0.014 A 
HETATM   20  C   UNL     1      37.701  53.106  45.449  1.00  0.00     0.042 A 
HETATM   21  C   UNL     1      38.861  55.535  46.072  1.00  0.00     0.001 A 
HETATM   22  C   UNL     1      38.779  54.534  47.036  1.00  0.00     0.002 A 
HETATM   23  C   UNL     1      38.197  53.299  46.744  1.00  0.00     0.030 A 
HETATM   24  N   UNL     1      37.087  52.010  44.891  1.00  0.00    -0.365 N 
HETATM   25  H   UNL     1      36.902  51.147  45.383  1.00  0.00     0.165 HD
HETATM   26  C   UNL     1      36.768  52.258  43.584  1.00  0.00     0.096 A 
ENDBRANCH  16  17
ENDBRANCH  15  16
ENDBRANCH  12  15
ENDBRANCH   1  11
BRANCH   8  27
HETATM   27  C   UNL     1      29.641  52.198  41.635  1.00  0.00     0.409 C 
HETATM   28  F   UNL     1      30.125  50.935  41.637  1.00  0.00    -0.169 F 
HETATM   29  F   UNL     1      30.059  52.760  42.801  1.00  0.00    -0.169 F 
HETATM   30  F   UNL     1      28.300  52.119  41.694  1.00  0.00    -0.169 F 
ENDBRANCH   8  27
BRANCH   6  31
HETATM   31  C   UNL     1      28.308  50.794  38.607  1.00  0.00    -0.033 A 
HETATM   32  C   UNL     1      28.940  49.596  38.996  1.00  0.00     0.049 A 
HETATM   33  C   UNL     1      28.155  48.514  39.340  1.00  0.00     0.105 A 
HETATM   34  C   UNL     1      26.784  48.572  39.302  1.00  0.00     0.105 A 
HETATM   35  O   UNL     1      28.612  47.303  39.754  1.00  0.00    -0.323 OA
HETATM   36  O   UNL     1      26.203  47.404  39.682  1.00  0.00    -0.323 OA
HETATM   37  C   UNL     1      26.122  49.716  38.920  1.00  0.00     0.040 A 
HETATM   38  C   UNL     1      27.368  46.610  39.985  1.00  0.00     0.352 A 
HETATM   39  C   UNL     1      26.893  50.834  38.580  1.00  0.00     0.012 A 
ENDBRANCH   6  31
TORSDOF 6
ENDMDL
MODEL 9
REMARK VINA RESULT:      -9.1     13.466     14.516
REMARK  6 active torsions:
REMARK  status: ('A' for Active; 'I' for Inactive)
REMARK    1  A    between atoms: C_8  and  C_9 
REMARK    2  A    between atoms: C_9  and  C_10 
REMARK    3  A    between atoms: C_10  and  N_11 
REMARK       I    between atoms: N_11  and  C_12 
REMARK    4  A    between atoms: C_12  and  C_13 
REMARK    5  A    between atoms: C_18  and  C_19 
REMARK    6  A    between atoms: C_29  and  C_30 
ROOT
HETATM    1  C   UNL     1      34.269  51.309  41.589  1.00  0.00     0.148 A 
HETATM    2  N   UNL     1      33.162  52.054  41.806  1.00  0.00    -0.165 NA
HETATM    3  N   UNL     1      32.347  51.714  40.790  1.00  0.00    -0.240 N 
HETATM    4  C   UNL     1      32.896  50.817  39.918  1.00  0.00     0.123 A 
HETATM    5  N   UNL     1      32.239  50.397  38.817  1.00  0.00    -0.366 N 
HETATM    6  C   UNL     1      30.871  50.797  38.522  1.00  0.00     0.118 C 
HETATM    7  C   UNL     1      30.536  52.149  39.177  1.00  0.00     0.066 C 
HETATM    8  C   UNL     1      31.040  52.319  40.624  1.00  0.00     0.221 C 
HETATM    9  C   UNL     1      34.136  50.521  40.413  1.00  0.00     0.088 A 
HETATM   10  H   UNL     1      32.607  49.638  38.245  1.00  0.00     0.161 HD
ENDROOT
BRANCH   1  11
HETATM   11  C   UNL     1      35.439  51.343  42.479  1.00  0.00     0.272 C 
HETATM   12  N   UNL     1      35.500  52.460  43.283  1.00  0.00    -0.355 N 
HETATM   13  H   UNL     1      34.647  53.017  43.310  1.00  0.00     0.162 HD
HETATM   14  O   UNL     1      36.271  50.441  42.512  1.00  0.00    -0.266 OA
BRANCH  12  15
HETATM   15  C   UNL     1      36.469  52.555  44.354  1.00  0.00     0.127 C 
BRANCH  15  16
HETATM   16  C   UNL     1      37.029  53.966  44.543  1.00  0.00     0.060 C 
BRANCH  16  17
HETATM   17  C   UNL     1      38.448  53.976  45.023  1.00  0.00    -0.029 A 
HETATM   18  C   UNL     1      38.903  53.938  46.379  1.00  0.00    -0.002 A 
HETATM   19  C   UNL     1      38.259  53.877  47.632  1.00  0.00     0.014 A 
HETATM   20  C   UNL     1      40.299  53.973  46.352  1.00  0.00     0.042 A 
HETATM   21  C   UNL     1      39.026  53.855  48.802  1.00  0.00     0.001 A 
HETATM   22  C   UNL     1      40.417  53.892  48.740  1.00  0.00     0.002 A 
HETATM   23  C   UNL     1      41.082  53.951  47.513  1.00  0.00     0.030 A 
HETATM   24  N   UNL     1      40.677  54.027  45.032  1.00  0.00    -0.365 N 
HETATM   25  H   UNL     1      41.635  54.058  44.713  1.00  0.00     0.165 HD
HETATM   26  C   UNL     1      39.574  54.034  44.223  1.00  0.00     0.096 A 
ENDBRANCH  16  17
ENDBRANCH  15  16
ENDBRANCH  12  15
ENDBRANCH   1  11
BRANCH   8  27
HETATM   27  C   UNL     1      30.077  51.805  41.669  1.00  0.00     0.409 C 
HETATM   28  F   UNL     1      30.357  50.534  42.037  1.00  0.00    -0.169 F 
HETATM   29  F   UNL     1      30.178  52.553  42.801  1.00  0.00    -0.169 F 
HETATM   30  F   UNL     1      28.788  51.841  41.288  1.00  0.00    -0.169 F 
ENDBRANCH   8  27
BRANCH   6  31
HETATM   31  C   UNL     1      29.869  49.682  38.776  1.00  0.00    -0.033 A 
HETATM   32  C   UNL     1      30.350  48.418  39.172  1.00  0.00     0.049 A 
HETATM   33  C   UNL     1      29.438  47.419  39.445  1.00  0.00     0.105 A 
HETATM   34  C   UNL     1      28.084  47.620  39.331  1.00  0.00     0.105 A 
HETATM   35  O   UNL     1      29.741  46.159  39.856  1.00  0.00    -0.323 OA
HETATM   36  O   UNL     1      27.364  46.513  39.650  1.00  0.00    -0.323 OA
HETATM   37  C   UNL     1      27.569  48.834  38.940  1.00  0.00     0.040 A 
HETATM   38  C   UNL     1      28.420  45.596  40.000  1.00  0.00     0.352 A 
HETATM   39  C   UNL     1      28.470  49.871  38.670  1.00  0.00     0.012 A 
ENDBRANCH   6  31
TORSDOF 6
ENDMDL
MODEL 10
REMARK VINA RESULT:      -9.0     13.391     14.358
REMARK  6 active torsions:
REMARK  status: ('A' for Active; 'I' for Inactive)
REMARK    1  A    between atoms: C_8  and  C_9 
REMARK    2  A    between atoms: C_9  and  C_10 
REMARK    3  A    between atoms: C_10  and  N_11 
REMARK       I    between atoms: N_11  and  C_12 
REMARK    4  A    between atoms: C_12  and  C_13 
REMARK    5  A    between atoms: C_18  and  C_19 
REMARK    6  A    between atoms: C_29  and  C_30 
ROOT
HETATM    1  C   UNL     1      32.973  51.406  42.286  1.00  0.00     0.148 A 
HETATM    2  N   UNL     1      32.449  52.340  41.460  1.00  0.00    -0.165 NA
HETATM    3  N   UNL     1      31.807  51.612  40.527  1.00  0.00    -0.240 N 
HETATM    4  C   UNL     1      31.927  50.262  40.699  1.00  0.00     0.123 A 
HETATM    5  N   UNL     1      31.385  49.380  39.834  1.00  0.00    -0.366 N 
HETATM    6  C   UNL     1      30.561  49.794  38.708  1.00  0.00     0.118 C 
HETATM    7  C   UNL     1      30.909  51.227  38.265  1.00  0.00     0.066 C 
HETATM    8  C   UNL     1      31.120  52.235  39.413  1.00  0.00     0.221 C 
HETATM    9  C   UNL     1      32.665  50.093  41.839  1.00  0.00     0.088 A 
HETATM   10  H   UNL     1      31.376  48.382  40.041  1.00  0.00     0.161 HD
ENDROOT
BRANCH   1  11
HETATM   11  C   UNL     1      33.759  51.751  43.481  1.00  0.00     0.272 C 
HETATM   12  N   UNL     1      35.079  52.046  43.219  1.00  0.00    -0.355 N 
HETATM   13  H   UNL     1      35.301  52.182  42.234  1.00  0.00     0.162 HD
HETATM   14  O   UNL     1      33.267  51.792  44.605  1.00  0.00    -0.266 OA
BRANCH  12  15
HETATM   15  C   UNL     1      35.936  52.597  44.246  1.00  0.00     0.127 C 
BRANCH  15  16
HETATM   16  C   UNL     1      36.995  53.556  43.701  1.00  0.00     0.060 C 
BRANCH  16  17
HETATM   17  C   UNL     1      37.957  54.026  44.750  1.00  0.00    -0.029 A 
HETATM   18  C   UNL     1      38.433  55.361  44.952  1.00  0.00    -0.002 A 
HETATM   19  C   UNL     1      38.197  56.597  44.315  1.00  0.00     0.014 A 
HETATM   20  C   UNL     1      39.315  55.331  46.034  1.00  0.00     0.042 A 
HETATM   21  C   UNL     1      38.847  57.747  44.778  1.00  0.00     0.001 A 
HETATM   22  C   UNL     1      39.721  57.682  45.859  1.00  0.00     0.002 A 
HETATM   23  C   UNL     1      39.973  56.471  46.510  1.00  0.00     0.030 A 
HETATM   24  N   UNL     1      39.371  54.030  46.474  1.00  0.00    -0.365 N 
HETATM   25  H   UNL     1      39.932  53.713  47.252  1.00  0.00     0.165 HD
HETATM   26  C   UNL     1      38.563  53.235  45.708  1.00  0.00     0.096 A 
ENDBRANCH  16  17
ENDBRANCH  15  16
ENDBRANCH  12  15
ENDBRANCH   1  11
BRANCH   8  27
HETATM   27  C   UNL     1      29.847  52.906  39.876  1.00  0.00     0.409 C 
HETATM   28  F   UNL     1      29.209  52.183  40.826  1.00  0.00    -0.169 F 
HETATM   29  F   UNL     1      30.137  54.104  40.450  1.00  0.00    -0.169 F 
HETATM   30  F   UNL     1      28.966  53.145  38.888  1.00  0.00    -0.169 F 
ENDBRANCH   8  27
BRANCH   6  31
HETATM   31  C   UNL     1      29.084  49.522  38.934  1.00  0.00    -0.033 A 
HETATM   32  C   UNL     1      28.713  48.528  39.862  1.00  0.00     0.049 A 
HETATM   33  C   UNL     1      27.371  48.311  40.099  1.00  0.00     0.105 A 
HETATM   34  C   UNL     1      26.394  49.026  39.451  1.00  0.00     0.105 A 
HETATM   35  O   UNL     1      26.856  47.408  40.975  1.00  0.00    -0.323 OA
HETATM   36  O   UNL     1      25.142  48.662  39.831  1.00  0.00    -0.323 OA
HETATM   37  C   UNL     1      26.707  50.000  38.531  1.00  0.00     0.040 A 
HETATM   38  C   UNL     1      25.442  47.648  40.812  1.00  0.00     0.352 A 
HETATM   39  C   UNL     1      28.061  50.252  38.281  1.00  0.00     0.012 A 
ENDBRANCH   6  31
TORSDOF 6
ENDMDL
