MODEL 1
REMARK VINA RESULT:      -8.4      0.000      0.000
REMARK  5 active torsions:
REMARK  status: ('A' for Active; 'I' for Inactive)
REMARK    1  A    between atoms: C_2  and  O_3 
REMARK    2  A    between atoms: O_3  and  C_4 
REMARK    3  A    between atoms: C_5  and  C_6 
REMARK       I    between atoms: C_6  and  N_7 
REMARK    4  A    between atoms: N_7  and  N_8 
REMARK    5  A    between atoms: C_9  and  C_10 
ROOT
HETATM    1  C   UNL     1      25.448  47.440  50.956  1.00  0.00     0.274 C 
HETATM    2  N   UNL     1      25.189  47.010  52.248  1.00  0.00    -0.243 N 
HETATM    3  O   UNL     1      26.488  47.980  50.586  1.00  0.00    -0.266 OA
HETATM    4  H   UNL     1      24.298  46.571  52.462  1.00  0.00     0.192 HD
ENDROOT
BRANCH   2   5
HETATM    5  N   UNL     1      26.194  47.022  53.171  1.00  0.00    -0.183 NA
HETATM    6  C   UNL     1      26.479  45.888  53.722  1.00  0.00     0.152 C 
BRANCH   6   7
HETATM    7  C   UNL     1      27.583  45.818  54.659  1.00  0.00     0.011 A 
HETATM    8  C   UNL     1      28.608  44.821  54.738  1.00  0.00     0.004 A 
HETATM    9  C   UNL     1      29.477  45.196  55.765  1.00  0.00     0.043 A 
HETATM   10  C   UNL     1      28.894  43.640  54.020  1.00  0.00     0.014 A 
HETATM   11  C   UNL     1      30.615  44.455  56.108  1.00  0.00     0.030 A 
HETATM   12  N   UNL     1      28.992  46.366  56.301  1.00  0.00    -0.364 N 
HETATM   13  C   UNL     1      30.875  43.293  55.379  1.00  0.00     0.002 A 
HETATM   14  C   UNL     1      30.029  42.887  54.351  1.00  0.00     0.001 A 
HETATM   15  H   UNL     1      29.423  46.874  57.061  1.00  0.00     0.165 HD
HETATM   16  C   UNL     1      27.859  46.751  55.642  1.00  0.00     0.102 A 
ENDBRANCH   6   7
ENDBRANCH   2   5
BRANCH   1  17
HETATM   17  C   UNL     1      24.402  47.115  49.945  1.00  0.00     0.067 A 
HETATM   18  C   UNL     1      23.638  48.077  49.266  1.00  0.00     0.084 A 
HETATM   19  C   UNL     1      22.622  47.659  48.395  1.00  0.00     0.038 A 
HETATM   20  C   UNL     1      22.398  46.299  48.165  1.00  0.00     0.003 A 
HETATM   21  C   UNL     1      23.183  45.345  48.805  1.00  0.00     0.001 A 
HETATM   22  C   UNL     1      24.180  45.751  49.691  1.00  0.00     0.020 A 
BRANCH  18  23
HETATM   23  O   UNL     1      23.882  49.408  49.504  1.00  0.00    -0.350 OA
BRANCH  23  24
HETATM   24  C   UNL     1      24.117  50.178  48.316  1.00  0.00     0.171 C 
HETATM   25  C   UNL     1      25.576  50.030  47.931  1.00  0.00     0.034 C 
ENDBRANCH  23  24
ENDBRANCH  18  23
ENDBRANCH   1  17
TORSDOF 5
ENDMDL
MODEL 2
REMARK VINA RESULT:      -8.4      5.161      7.108
REMARK  5 active torsions:
REMARK  status: ('A' for Active; 'I' for Inactive)
REMARK    1  A    between atoms: C_2  and  O_3 
REMARK    2  A    between atoms: O_3  and  C_4 
REMARK    3  A    between atoms: C_5  and  C_6 
REMARK       I    between atoms: C_6  and  N_7 
REMARK    4  A    between atoms: N_7  and  N_8 
REMARK    5  A    between atoms: C_9  and  C_10 
ROOT
HETATM    1  C   UNL     1      27.593  41.339  51.175  1.00  0.00     0.274 C 
HETATM    2  N   UNL     1      28.710  41.502  51.978  1.00  0.00    -0.243 N 
HETATM    3  O   UNL     1      26.457  41.713  51.458  1.00  0.00    -0.266 OA
HETATM    4  H   UNL     1      29.612  41.160  51.659  1.00  0.00     0.192 HD
ENDROOT
BRANCH   2   5
HETATM    5  N   UNL     1      28.620  42.271  53.102  1.00  0.00    -0.183 NA
HETATM    6  C   UNL     1      29.442  43.266  53.182  1.00  0.00     0.152 C 
BRANCH   6   7
HETATM    7  C   UNL     1      29.351  44.163  54.317  1.00  0.00     0.011 A 
HETATM    8  C   UNL     1      30.112  44.129  55.529  1.00  0.00     0.004 A 
HETATM    9  C   UNL     1      29.709  45.218  56.306  1.00  0.00     0.043 A 
HETATM   10  C   UNL     1      31.124  43.286  56.036  1.00  0.00     0.014 A 
HETATM   11  C   UNL     1      30.266  45.506  57.559  1.00  0.00     0.030 A 
HETATM   12  N   UNL     1      28.730  45.879  55.603  1.00  0.00    -0.364 N 
HETATM   13  C   UNL     1      31.267  44.657  58.034  1.00  0.00     0.002 A 
HETATM   14  C   UNL     1      31.691  43.562  57.287  1.00  0.00     0.001 A 
HETATM   15  H   UNL     1      28.255  46.713  55.921  1.00  0.00     0.165 HD
HETATM   16  C   UNL     1      28.510  45.258  54.406  1.00  0.00     0.102 A 
ENDBRANCH   6   7
ENDBRANCH   2   5
BRANCH   1  17
HETATM   17  C   UNL     1      27.844  40.748  49.829  1.00  0.00     0.067 A 
HETATM   18  C   UNL     1      28.537  39.547  49.613  1.00  0.00     0.084 A 
HETATM   19  C   UNL     1      28.790  39.125  48.300  1.00  0.00     0.038 A 
HETATM   20  C   UNL     1      28.318  39.865  47.213  1.00  0.00     0.003 A 
HETATM   21  C   UNL     1      27.595  41.034  47.425  1.00  0.00     0.001 A 
HETATM   22  C   UNL     1      27.359  41.474  48.728  1.00  0.00     0.020 A 
BRANCH  18  23
HETATM   23  O   UNL     1      28.983  38.834  50.699  1.00  0.00    -0.350 OA
BRANCH  23  24
HETATM   24  C   UNL     1      29.896  37.778  50.366  1.00  0.00     0.171 C 
HETATM   25  C   UNL     1      29.865  36.751  51.481  1.00  0.00     0.034 C 
ENDBRANCH  23  24
ENDBRANCH  18  23
ENDBRANCH   1  17
TORSDOF 5
ENDMDL
MODEL 3
REMARK VINA RESULT:      -8.1      4.813      8.485
REMARK  5 active torsions:
REMARK  status: ('A' for Active; 'I' for Inactive)
REMARK    1  A    between atoms: C_2  and  O_3 
REMARK    2  A    between atoms: O_3  and  C_4 
REMARK    3  A    between atoms: C_5  and  C_6 
REMARK       I    between atoms: C_6  and  N_7 
REMARK    4  A    between atoms: N_7  and  N_8 
REMARK    5  A    between atoms: C_9  and  C_10 
ROOT
HETATM    1  C   UNL     1      29.685  43.092  53.924  1.00  0.00     0.274 C 
HETATM    2  N   UNL     1      28.344  42.781  53.761  1.00  0.00    -0.243 N 
HETATM    3  O   UNL     1      30.563  42.902  53.086  1.00  0.00    -0.266 OA
HETATM    4  H   UNL     1      27.688  42.977  54.511  1.00  0.00     0.192 HD
ENDROOT
BRANCH   2   5
HETATM    5  N   UNL     1      27.896  42.381  52.535  1.00  0.00    -0.183 NA
HETATM    6  C   UNL     1      27.779  41.106  52.356  1.00  0.00     0.152 C 
BRANCH   6   7
HETATM    7  C   UNL     1      27.241  40.618  51.102  1.00  0.00     0.011 A 
HETATM    8  C   UNL     1      27.836  39.684  50.193  1.00  0.00     0.004 A 
HETATM    9  C   UNL     1      26.931  39.484  49.148  1.00  0.00     0.043 A 
HETATM   10  C   UNL     1      29.054  38.971  50.167  1.00  0.00     0.014 A 
HETATM   11  C   UNL     1      27.179  38.608  48.083  1.00  0.00     0.030 A 
HETATM   12  N   UNL     1      25.836  40.276  49.401  1.00  0.00    -0.364 N 
HETATM   13  C   UNL     1      28.391  37.913  48.085  1.00  0.00     0.002 A 
HETATM   14  C   UNL     1      29.316  38.091  49.109  1.00  0.00     0.001 A 
HETATM   15  H   UNL     1      25.016  40.332  48.812  1.00  0.00     0.165 HD
HETATM   16  C   UNL     1      26.009  40.957  50.572  1.00  0.00     0.102 A 
ENDBRANCH   6   7
ENDBRANCH   2   5
BRANCH   1  17
HETATM   17  C   UNL     1      30.034  43.802  55.188  1.00  0.00     0.067 A 
HETATM   18  C   UNL     1      29.491  45.037  55.573  1.00  0.00     0.084 A 
HETATM   19  C   UNL     1      29.952  45.657  56.744  1.00  0.00     0.038 A 
HETATM   20  C   UNL     1      30.908  45.032  57.549  1.00  0.00     0.003 A 
HETATM   21  C   UNL     1      31.416  43.787  57.191  1.00  0.00     0.001 A 
HETATM   22  C   UNL     1      30.981  43.176  56.016  1.00  0.00     0.020 A 
BRANCH  18  23
HETATM   23  O   UNL     1      28.546  45.627  54.769  1.00  0.00    -0.350 OA
BRANCH  23  24
HETATM   24  C   UNL     1      28.092  46.902  55.243  1.00  0.00     0.171 C 
HETATM   25  C   UNL     1      26.866  47.300  54.444  1.00  0.00     0.034 C 
ENDBRANCH  23  24
ENDBRANCH  18  23
ENDBRANCH   1  17
TORSDOF 5
ENDMDL
MODEL 4
REMARK VINA RESULT:      -8.0      1.571      2.204
REMARK  5 active torsions:
REMARK  status: ('A' for Active; 'I' for Inactive)
REMARK    1  A    between atoms: C_2  and  O_3 
REMARK    2  A    between atoms: O_3  and  C_4 
REMARK    3  A    between atoms: C_5  and  C_6 
REMARK       I    between atoms: C_6  and  N_7 
REMARK    4  A    between atoms: N_7  and  N_8 
REMARK    5  A    between atoms: C_9  and  C_10 
ROOT
HETATM    1  C   UNL     1      25.643  46.382  50.082  1.00  0.00     0.274 C 
HETATM    2  N   UNL     1      25.624  46.044  51.426  1.00  0.00    -0.243 N 
HETATM    3  O   UNL     1      26.644  46.402  49.371  1.00  0.00    -0.266 OA
HETATM    4  H   UNL     1      24.745  46.054  51.935  1.00  0.00     0.192 HD
ENDROOT
BRANCH   2   5
HETATM    5  N   UNL     1      26.752  45.533  52.002  1.00  0.00    -0.183 NA
HETATM    6  C   UNL     1      26.744  44.264  52.249  1.00  0.00     0.152 C 
BRANCH   6   7
HETATM    7  C   UNL     1      27.936  43.647  52.795  1.00  0.00     0.011 A 
HETATM    8  C   UNL     1      28.725  44.087  53.907  1.00  0.00     0.004 A 
HETATM    9  C   UNL     1      29.746  43.152  54.092  1.00  0.00     0.043 A 
HETATM   10  C   UNL     1      28.659  45.186  54.791  1.00  0.00     0.014 A 
HETATM   11  C   UNL     1      30.699  43.257  55.113  1.00  0.00     0.030 A 
HETATM   12  N   UNL     1      29.595  42.189  53.122  1.00  0.00    -0.364 N 
HETATM   13  C   UNL     1      30.607  44.352  55.974  1.00  0.00     0.002 A 
HETATM   14  C   UNL     1      29.605  45.305  55.817  1.00  0.00     0.001 A 
HETATM   15  H   UNL     1      30.192  41.380  53.015  1.00  0.00     0.165 HD
HETATM   16  C   UNL     1      28.510  42.473  52.342  1.00  0.00     0.102 A 
ENDBRANCH   6   7
ENDBRANCH   2   5
BRANCH   1  17
HETATM   17  C   UNL     1      24.311  46.640  49.463  1.00  0.00     0.067 A 
HETATM   18  C   UNL     1      23.792  47.920  49.218  1.00  0.00     0.084 A 
HETATM   19  C   UNL     1      22.492  48.050  48.707  1.00  0.00     0.038 A 
HETATM   20  C   UNL     1      21.735  46.916  48.398  1.00  0.00     0.003 A 
HETATM   21  C   UNL     1      22.264  45.646  48.600  1.00  0.00     0.001 A 
HETATM   22  C   UNL     1      23.546  45.509  49.131  1.00  0.00     0.020 A 
BRANCH  18  23
HETATM   23  O   UNL     1      24.559  49.018  49.523  1.00  0.00    -0.350 OA
BRANCH  23  24
HETATM   24  C   UNL     1      24.964  49.781  48.378  1.00  0.00     0.171 C 
HETATM   25  C   UNL     1      26.479  49.825  48.343  1.00  0.00     0.034 C 
ENDBRANCH  23  24
ENDBRANCH  18  23
ENDBRANCH   1  17
TORSDOF 5
ENDMDL
MODEL 5
REMARK VINA RESULT:      -7.9      2.167      8.516
REMARK  5 active torsions:
REMARK  status: ('A' for Active; 'I' for Inactive)
REMARK    1  A    between atoms: C_2  and  O_3 
REMARK    2  A    between atoms: O_3  and  C_4 
REMARK    3  A    between atoms: C_5  and  C_6 
REMARK       I    between atoms: C_6  and  N_7 
REMARK    4  A    between atoms: N_7  and  N_8 
REMARK    5  A    between atoms: C_9  and  C_10 
ROOT
HETATM    1  C   UNL     1      26.117  47.191  53.301  1.00  0.00     0.274 C 
HETATM    2  N   UNL     1      25.987  46.935  51.945  1.00  0.00    -0.243 N 
HETATM    3  O   UNL     1      25.377  47.919  53.959  1.00  0.00    -0.266 OA
HETATM    4  H   UNL     1      26.648  46.316  51.485  1.00  0.00     0.192 HD
ENDROOT
BRANCH   2   5
HETATM    5  N   UNL     1      24.876  47.376  51.285  1.00  0.00    -0.183 NA
HETATM    6  C   UNL     1      24.766  47.017  50.049  1.00  0.00     0.152 C 
BRANCH   6   7
HETATM    7  C   UNL     1      23.575  47.392  49.311  1.00  0.00     0.011 A 
HETATM    8  C   UNL     1      23.135  48.709  48.961  1.00  0.00     0.004 A 
HETATM    9  C   UNL     1      21.963  48.573  48.214  1.00  0.00     0.043 A 
HETATM   10  C   UNL     1      23.632  50.010  49.192  1.00  0.00     0.014 A 
HETATM   11  C   UNL     1      21.267  49.668  47.684  1.00  0.00     0.030 A 
HETATM   12  N   UNL     1      21.691  47.228  48.125  1.00  0.00    -0.364 N 
HETATM   13  C   UNL     1      21.783  50.942  47.926  1.00  0.00     0.002 A 
HETATM   14  C   UNL     1      22.947  51.115  48.669  1.00  0.00     0.001 A 
HETATM   15  H   UNL     1      20.901  46.831  47.635  1.00  0.00     0.165 HD
HETATM   16  C   UNL     1      22.653  46.510  48.776  1.00  0.00     0.102 A 
ENDBRANCH   6   7
ENDBRANCH   2   5
BRANCH   1  17
HETATM   17  C   UNL     1      27.189  46.428  54.002  1.00  0.00     0.067 A 
HETATM   18  C   UNL     1      27.455  45.067  53.789  1.00  0.00     0.084 A 
HETATM   19  C   UNL     1      28.433  44.427  54.564  1.00  0.00     0.038 A 
HETATM   20  C   UNL     1      29.172  45.144  55.508  1.00  0.00     0.003 A 
HETATM   21  C   UNL     1      28.939  46.503  55.692  1.00  0.00     0.001 A 
HETATM   22  C   UNL     1      27.952  47.142  54.942  1.00  0.00     0.020 A 
BRANCH  18  23
HETATM   23  O   UNL     1      26.720  44.386  52.849  1.00  0.00    -0.350 OA
BRANCH  23  24
HETATM   24  C   UNL     1      27.513  43.607  51.943  1.00  0.00     0.171 C 
HETATM   25  C   UNL     1      26.590  42.677  51.179  1.00  0.00     0.034 C 
ENDBRANCH  23  24
ENDBRANCH  18  23
ENDBRANCH   1  17
TORSDOF 5
ENDMDL
MODEL 6
REMARK VINA RESULT:      -7.9      4.205      8.543
REMARK  5 active torsions:
REMARK  status: ('A' for Active; 'I' for Inactive)
REMARK    1  A    between atoms: C_2  and  O_3 
REMARK    2  A    between atoms: O_3  and  C_4 
REMARK    3  A    between atoms: C_5  and  C_6 
REMARK       I    between atoms: C_6  and  N_7 
REMARK    4  A    between atoms: N_7  and  N_8 
REMARK    5  A    between atoms: C_9  and  C_10 
ROOT
HETATM    1  C   UNL     1      29.708  43.166  54.056  1.00  0.00     0.274 C 
HETATM    2  N   UNL     1      28.341  43.084  53.849  1.00  0.00    -0.243 N 
HETATM    3  O   UNL     1      30.568  42.839  53.242  1.00  0.00    -0.266 OA
HETATM    4  H   UNL     1      27.702  43.380  54.582  1.00  0.00     0.192 HD
ENDROOT
BRANCH   2   5
HETATM    5  N   UNL     1      27.870  42.774  52.605  1.00  0.00    -0.183 NA
HETATM    6  C   UNL     1      27.464  41.559  52.433  1.00  0.00     0.152 C 
BRANCH   6   7
HETATM    7  C   UNL     1      26.887  41.184  51.157  1.00  0.00     0.011 A 
HETATM    8  C   UNL     1      25.685  41.678  50.555  1.00  0.00     0.004 A 
HETATM    9  C   UNL     1      25.559  41.062  49.308  1.00  0.00     0.043 A 
HETATM   10  C   UNL     1      24.697  42.609  50.943  1.00  0.00     0.014 A 
HETATM   11  C   UNL     1      24.500  41.329  48.430  1.00  0.00     0.030 A 
HETATM   12  N   UNL     1      26.632  40.214  49.163  1.00  0.00    -0.364 N 
HETATM   13  C   UNL     1      23.539  42.257  48.839  1.00  0.00     0.002 A 
HETATM   14  C   UNL     1      23.632  42.887  50.076  1.00  0.00     0.001 A 
HETATM   15  H   UNL     1      26.805  39.638  48.351  1.00  0.00     0.165 HD
HETATM   16  C   UNL     1      27.438  40.283  50.264  1.00  0.00     0.102 A 
ENDBRANCH   6   7
ENDBRANCH   2   5
BRANCH   1  17
HETATM   17  C   UNL     1      30.130  43.797  55.339  1.00  0.00     0.067 A 
HETATM   18  C   UNL     1      29.750  45.085  55.745  1.00  0.00     0.084 A 
HETATM   19  C   UNL     1      30.273  45.615  56.934  1.00  0.00     0.038 A 
HETATM   20  C   UNL     1      31.127  44.853  57.735  1.00  0.00     0.003 A 
HETATM   21  C   UNL     1      31.472  43.560  57.356  1.00  0.00     0.001 A 
HETATM   22  C   UNL     1      30.976  43.035  56.163  1.00  0.00     0.020 A 
BRANCH  18  23
HETATM   23  O   UNL     1      28.903  45.811  54.944  1.00  0.00    -0.350 OA
BRANCH  23  24
HETATM   24  C   UNL     1      27.982  46.638  55.669  1.00  0.00     0.171 C 
HETATM   25  C   UNL     1      27.301  47.571  54.686  1.00  0.00     0.034 C 
ENDBRANCH  23  24
ENDBRANCH  18  23
ENDBRANCH   1  17
TORSDOF 5
ENDMDL
MODEL 7
REMARK VINA RESULT:      -7.9      2.649      4.028
REMARK  5 active torsions:
REMARK  status: ('A' for Active; 'I' for Inactive)
REMARK    1  A    between atoms: C_2  and  O_3 
REMARK    2  A    between atoms: O_3  and  C_4 
REMARK    3  A    between atoms: C_5  and  C_6 
REMARK       I    between atoms: C_6  and  N_7 
REMARK    4  A    between atoms: N_7  and  N_8 
REMARK    5  A    between atoms: C_9  and  C_10 
ROOT
HETATM    1  C   UNL     1      25.314  47.133  50.482  1.00  0.00     0.274 C 
HETATM    2  N   UNL     1      25.000  45.892  49.951  1.00  0.00    -0.243 N 
HETATM    3  O   UNL     1      25.727  47.331  51.622  1.00  0.00    -0.266 OA
HETATM    4  H   UNL     1      24.666  45.825  48.994  1.00  0.00     0.192 HD
ENDROOT
BRANCH   2   5
HETATM    5  N   UNL     1      25.308  44.765  50.658  1.00  0.00    -0.183 NA
HETATM    6  C   UNL     1      26.223  44.005  50.152  1.00  0.00     0.152 C 
BRANCH   6   7
HETATM    7  C   UNL     1      26.647  42.830  50.887  1.00  0.00     0.011 A 
HETATM    8  C   UNL     1      27.691  42.731  51.862  1.00  0.00     0.004 A 
HETATM    9  C   UNL     1      27.702  41.415  52.331  1.00  0.00     0.043 A 
HETATM   10  C   UNL     1      28.622  43.641  52.408  1.00  0.00     0.014 A 
HETATM   11  C   UNL     1      28.590  40.965  53.317  1.00  0.00     0.030 A 
HETATM   12  N   UNL     1      26.714  40.736  51.657  1.00  0.00    -0.364 N 
HETATM   13  C   UNL     1      29.497  41.888  53.842  1.00  0.00     0.002 A 
HETATM   14  C   UNL     1      29.516  43.206  53.395  1.00  0.00     0.001 A 
HETATM   15  H   UNL     1      26.488  39.761  51.796  1.00  0.00     0.165 HD
HETATM   16  C   UNL     1      26.072  41.575  50.792  1.00  0.00     0.102 A 
ENDBRANCH   6   7
ENDBRANCH   2   5
BRANCH   1  17
HETATM   17  C   UNL     1      25.228  48.282  49.535  1.00  0.00     0.067 A 
HETATM   18  C   UNL     1      24.025  48.789  49.021  1.00  0.00     0.084 A 
HETATM   19  C   UNL     1      24.063  49.820  48.071  1.00  0.00     0.038 A 
HETATM   20  C   UNL     1      25.283  50.373  47.672  1.00  0.00     0.003 A 
HETATM   21  C   UNL     1      26.474  49.900  48.212  1.00  0.00     0.001 A 
HETATM   22  C   UNL     1      26.447  48.858  49.139  1.00  0.00     0.020 A 
BRANCH  18  23
HETATM   23  O   UNL     1      22.839  48.234  49.436  1.00  0.00    -0.350 OA
BRANCH  23  24
HETATM   24  C   UNL     1      22.126  47.544  48.400  1.00  0.00     0.171 C 
HETATM   25  C   UNL     1      20.728  48.125  48.314  1.00  0.00     0.034 C 
ENDBRANCH  23  24
ENDBRANCH  18  23
ENDBRANCH   1  17
TORSDOF 5
ENDMDL
MODEL 8
REMARK VINA RESULT:      -7.8      2.649      7.971
REMARK  5 active torsions:
REMARK  status: ('A' for Active; 'I' for Inactive)
REMARK    1  A    between atoms: C_2  and  O_3 
REMARK    2  A    between atoms: O_3  and  C_4 
REMARK    3  A    between atoms: C_5  and  C_6 
REMARK       I    between atoms: C_6  and  N_7 
REMARK    4  A    between atoms: N_7  and  N_8 
REMARK    5  A    between atoms: C_9  and  C_10 
ROOT
HETATM    1  C   UNL     1      26.894  44.248  50.836  1.00  0.00     0.274 C 
HETATM    2  N   UNL     1      25.990  45.185  51.308  1.00  0.00    -0.243 N 
HETATM    3  O   UNL     1      27.280  44.159  49.673  1.00  0.00    -0.266 OA
HETATM    4  H   UNL     1      25.730  45.184  52.290  1.00  0.00     0.192 HD
ENDROOT
BRANCH   2   5
HETATM    5  N   UNL     1      25.594  46.204  50.489  1.00  0.00    -0.183 NA
HETATM    6  C   UNL     1      26.380  47.228  50.430  1.00  0.00     0.152 C 
BRANCH   6   7
HETATM    7  C   UNL     1      26.054  48.314  49.526  1.00  0.00     0.011 A 
HETATM    8  C   UNL     1      24.755  48.782  49.146  1.00  0.00     0.004 A 
HETATM    9  C   UNL     1      24.938  49.874  48.294  1.00  0.00     0.043 A 
HETATM   10  C   UNL     1      23.435  48.394  49.460  1.00  0.00     0.014 A 
HETATM   11  C   UNL     1      23.871  50.597  47.744  1.00  0.00     0.030 A 
HETATM   12  N   UNL     1      26.293  50.053  48.148  1.00  0.00    -0.364 N 
HETATM   13  C   UNL     1      22.576  50.193  48.074  1.00  0.00     0.002 A 
HETATM   14  C   UNL     1      22.358  49.108  48.917  1.00  0.00     0.001 A 
HETATM   15  H   UNL     1      26.721  50.778  47.588  1.00  0.00     0.165 HD
HETATM   16  C   UNL     1      26.973  49.127  48.886  1.00  0.00     0.102 A 
ENDBRANCH   6   7
ENDBRANCH   2   5
BRANCH   1  17
HETATM   17  C   UNL     1      27.502  43.360  51.868  1.00  0.00     0.067 A 
HETATM   18  C   UNL     1      27.940  43.800  53.126  1.00  0.00     0.084 A 
HETATM   19  C   UNL     1      28.573  42.894  53.990  1.00  0.00     0.038 A 
HETATM   20  C   UNL     1      28.726  41.554  53.626  1.00  0.00     0.003 A 
HETATM   21  C   UNL     1      28.254  41.107  52.396  1.00  0.00     0.001 A 
HETATM   22  C   UNL     1      27.645  42.006  51.521  1.00  0.00     0.020 A 
BRANCH  18  23
HETATM   23  O   UNL     1      27.770  45.120  53.464  1.00  0.00    -0.350 OA
BRANCH  23  24
HETATM   24  C   UNL     1      27.225  45.320  54.776  1.00  0.00     0.171 C 
HETATM   25  C   UNL     1      28.138  46.265  55.534  1.00  0.00     0.034 C 
ENDBRANCH  23  24
ENDBRANCH  18  23
ENDBRANCH   1  17
TORSDOF 5
ENDMDL
MODEL 9
REMARK VINA RESULT:      -7.8      2.291      8.382
REMARK  5 active torsions:
REMARK  status: ('A' for Active; 'I' for Inactive)
REMARK    1  A    between atoms: C_2  and  O_3 
REMARK    2  A    between atoms: O_3  and  C_4 
REMARK    3  A    between atoms: C_5  and  C_6 
REMARK       I    between atoms: C_6  and  N_7 
REMARK    4  A    between atoms: N_7  and  N_8 
REMARK    5  A    between atoms: C_9  and  C_10 
ROOT
HETATM    1  C   UNL     1      26.300  44.694  53.016  1.00  0.00     0.274 C 
HETATM    2  N   UNL     1      26.335  45.792  52.172  1.00  0.00    -0.243 N 
HETATM    3  O   UNL     1      25.278  44.137  53.411  1.00  0.00    -0.266 OA
HETATM    4  H   UNL     1      27.231  46.186  51.897  1.00  0.00     0.192 HD
ENDROOT
BRANCH   2   5
HETATM    5  N   UNL     1      25.180  46.220  51.582  1.00  0.00    -0.183 NA
HETATM    6  C   UNL     1      25.243  46.470  50.316  1.00  0.00     0.152 C 
BRANCH   6   7
HETATM    7  C   UNL     1      24.035  46.860  49.616  1.00  0.00     0.011 A 
HETATM    8  C   UNL     1      23.725  48.134  49.039  1.00  0.00     0.004 A 
HETATM    9  C   UNL     1      22.472  48.023  48.432  1.00  0.00     0.043 A 
HETATM   10  C   UNL     1      24.400  49.371  48.956  1.00  0.00     0.014 A 
HETATM   11  C   UNL     1      21.862  49.082  47.747  1.00  0.00     0.030 A 
HETATM   12  N   UNL     1      22.029  46.739  48.645  1.00  0.00    -0.364 N 
HETATM   13  C   UNL     1      22.554  50.293  47.678  1.00  0.00     0.002 A 
HETATM   14  C   UNL     1      23.803  50.439  48.274  1.00  0.00     0.001 A 
HETATM   15  H   UNL     1      21.149  46.370  48.312  1.00  0.00     0.165 HD
HETATM   16  C   UNL     1      22.960  46.031  49.350  1.00  0.00     0.102 A 
ENDBRANCH   6   7
ENDBRANCH   2   5
BRANCH   1  17
HETATM   17  C   UNL     1      27.625  44.110  53.373  1.00  0.00     0.067 A 
HETATM   18  C   UNL     1      28.297  44.363  54.578  1.00  0.00     0.084 A 
HETATM   19  C   UNL     1      29.579  43.828  54.777  1.00  0.00     0.038 A 
HETATM   20  C   UNL     1      30.165  43.011  53.806  1.00  0.00     0.003 A 
HETATM   21  C   UNL     1      29.482  42.725  52.629  1.00  0.00     0.001 A 
HETATM   22  C   UNL     1      28.218  43.272  52.413  1.00  0.00     0.020 A 
BRANCH  18  23
HETATM   23  O   UNL     1      27.696  45.162  55.519  1.00  0.00    -0.350 OA
BRANCH  23  24
HETATM   24  C   UNL     1      28.448  46.338  55.851  1.00  0.00     0.171 C 
HETATM   25  C   UNL     1      28.000  47.464  54.940  1.00  0.00     0.034 C 
ENDBRANCH  23  24
ENDBRANCH  18  23
ENDBRANCH   1  17
TORSDOF 5
ENDMDL
MODEL 10
REMARK VINA RESULT:      -7.8      1.328      2.678
REMARK  5 active torsions:
REMARK  status: ('A' for Active; 'I' for Inactive)
REMARK    1  A    between atoms: C_2  and  O_3 
REMARK    2  A    between atoms: O_3  and  C_4 
REMARK    3  A    between atoms: C_5  and  C_6 
REMARK       I    between atoms: C_6  and  N_7 
REMARK    4  A    between atoms: N_7  and  N_8 
REMARK    5  A    between atoms: C_9  and  C_10 
ROOT
HETATM    1  C   UNL     1      25.063  47.154  50.654  1.00  0.00     0.274 C 
HETATM    2  N   UNL     1      25.198  46.214  51.663  1.00  0.00    -0.243 N 
HETATM    3  O   UNL     1      25.812  48.111  50.473  1.00  0.00    -0.266 OA
HETATM    4  H   UNL     1      24.528  45.453  51.734  1.00  0.00     0.192 HD
ENDROOT
BRANCH   2   5
HETATM    5  N   UNL     1      26.322  46.221  52.438  1.00  0.00    -0.183 NA
HETATM    6  C   UNL     1      26.156  45.944  53.689  1.00  0.00     0.152 C 
BRANCH   6   7
HETATM    7  C   UNL     1      27.319  45.866  54.552  1.00  0.00     0.011 A 
HETATM    8  C   UNL     1      28.321  44.843  54.588  1.00  0.00     0.004 A 
HETATM    9  C   UNL     1      29.266  45.218  55.545  1.00  0.00     0.043 A 
HETATM   10  C   UNL     1      28.527  43.638  53.883  1.00  0.00     0.014 A 
HETATM   11  C   UNL     1      30.405  44.454  55.831  1.00  0.00     0.030 A 
HETATM   12  N   UNL     1      28.848  46.413  56.082  1.00  0.00    -0.364 N 
HETATM   13  C   UNL     1      30.586  43.269  55.115  1.00  0.00     0.002 A 
HETATM   14  C   UNL     1      29.662  42.863  54.157  1.00  0.00     0.001 A 
HETATM   15  H   UNL     1      29.343  46.927  56.799  1.00  0.00     0.165 HD
HETATM   16  C   UNL     1      27.684  46.814  55.491  1.00  0.00     0.102 A 
ENDBRANCH   6   7
ENDBRANCH   2   5
BRANCH   1  17
HETATM   17  C   UNL     1      23.971  46.895  49.672  1.00  0.00     0.067 A 
HETATM   18  C   UNL     1      23.702  45.640  49.106  1.00  0.00     0.084 A 
HETATM   19  C   UNL     1      22.704  45.525  48.128  1.00  0.00     0.038 A 
HETATM   20  C   UNL     1      21.947  46.638  47.751  1.00  0.00     0.003 A 
HETATM   21  C   UNL     1      22.184  47.875  48.342  1.00  0.00     0.001 A 
HETATM   22  C   UNL     1      23.191  48.003  49.297  1.00  0.00     0.020 A 
BRANCH  18  23
HETATM   23  O   UNL     1      24.454  44.559  49.500  1.00  0.00    -0.350 OA
BRANCH  23  24
HETATM   24  C   UNL     1      24.302  43.408  48.659  1.00  0.00     0.171 C 
HETATM   25  C   UNL     1      24.382  42.167  49.528  1.00  0.00     0.034 C 
ENDBRANCH  23  24
ENDBRANCH  18  23
ENDBRANCH   1  17
TORSDOF 5
ENDMDL
