MODEL 1
REMARK VINA RESULT:      -9.8      0.000      0.000
REMARK  7 active torsions:
REMARK  status: ('A' for Active; 'I' for Inactive)
REMARK    1  A    between atoms: C_2  and  N_3 
REMARK    2  A    between atoms: C_2  and  C_12 
REMARK       I    between atoms: N_3  and  C_4 
REMARK    3  A    between atoms: C_4  and  C_5 
REMARK    4  A    between atoms: N_17  and  C_19 
REMARK    5  A    between atoms: C_19  and  C_20 
REMARK    6  A    between atoms: C_22  and  C_23 
REMARK    7  A    between atoms: C_23  and  N_24 
ROOT
HETATM    1  C   UNL     1      22.320  48.853  48.910  1.00  0.00     0.152 A 
HETATM    2  N   UNL     1      23.305  47.908  49.113  1.00  0.00    -0.317 N 
HETATM    3  C   UNL     1      24.473  48.614  49.272  1.00  0.00     0.131 A 
HETATM    4  C   UNL     1      25.801  48.051  49.616  1.00  0.00     0.108 C 
HETATM    5  C   UNL     1      25.699  47.150  50.837  1.00  0.00     0.243 C 
HETATM    6  N   UNL     1      25.220  45.739  50.503  1.00  0.00    -0.065 N 
HETATM    7  H   UNL     1      26.072  45.208  50.277  1.00  0.00     0.280 HD
HETATM    8  C   UNL     1      24.345  45.597  49.258  1.00  0.00     0.255 C 
HETATM    9  C   UNL     1      23.100  46.484  49.255  1.00  0.00     0.159 C 
HETATM   10  N   UNL     1      24.214  49.895  49.171  1.00  0.00    -0.135 NA
HETATM   11  N   UNL     1      22.877  50.047  48.954  1.00  0.00    -0.133 NA
ENDROOT
BRANCH   6  12
HETATM   12  C   UNL     1      24.631  45.035  51.726  1.00  0.00     0.280 C 
BRANCH  12  13
HETATM   13  C   UNL     1      25.671  44.680  52.757  1.00  0.00     0.009 A 
HETATM   14  S   UNL     1      27.317  44.496  52.303  1.00  0.00    -0.096 SA
HETATM   15  C   UNL     1      27.797  44.068  53.892  1.00  0.00     0.009 A 
HETATM   16  C   UNL     1      26.722  44.101  54.760  1.00  0.00     0.017 A 
HETATM   17  C   UNL     1      25.504  44.467  54.111  1.00  0.00     0.017 A 
BRANCH  15  18
HETATM   18  C   UNL     1      29.223  43.695  54.189  1.00  0.00     0.280 C 
BRANCH  18  19
HETATM   19  N   UNL     1      29.652  43.961  55.618  1.00  0.00    -0.067 N 
HETATM   20  H   UNL     1      28.934  43.539  56.220  1.00  0.00     0.280 HD
HETATM   21  C   UNL     1      30.978  43.320  55.962  1.00  0.00     0.235 C 
HETATM   22  C   UNL     1      31.305  43.566  57.428  1.00  0.00     0.028 C 
HETATM   23  C   UNL     1      31.305  45.051  57.765  1.00  0.00     0.003 C 
HETATM   24  C   UNL     1      29.985  45.697  57.367  1.00  0.00     0.028 C 
HETATM   25  C   UNL     1      29.657  45.450  55.902  1.00  0.00     0.235 C 
ENDBRANCH  18  19
ENDBRANCH  15  18
ENDBRANCH  12  13
ENDBRANCH   6  12
BRANCH   1  26
HETATM   26  C   UNL     1      20.848  48.589  48.756  1.00  0.00     0.152 C 
HETATM   27  C   UNL     1      20.562  47.785  47.491  1.00  0.00     0.040 C 
BRANCH  26  28
HETATM   28  N   UNL     1      20.185  49.883  48.702  1.00  0.00    -0.349 N 
HETATM   29  C   UNL     1      19.394  50.336  49.728  1.00  0.00     0.222 C 
HETATM   30  O   UNL     1      19.076  49.619  50.675  1.00  0.00    -0.273 OA
HETATM   31  H   UNL     1      20.552  50.548  48.030  1.00  0.00     0.163 HD
BRANCH  29  32
HETATM   32  C   UNL     1      18.996  51.809  49.627  1.00  0.00     0.082 C 
HETATM   33  C   UNL     1      19.197  52.347  48.206  1.00  0.00     0.040 C 
HETATM   34  C   UNL     1      18.149  51.812  47.234  1.00  0.00     0.168 C 
HETATM   35  O   UNL     1      16.817  52.008  47.709  1.00  0.00    -0.391 OA
HETATM   36  C   UNL     1      16.589  51.432  48.994  1.00  0.00     0.168 C 
HETATM   37  C   UNL     1      17.535  52.009  50.040  1.00  0.00     0.040 C 
ENDBRANCH  29  32
ENDBRANCH  26  28
ENDBRANCH   1  26
TORSDOF 7
ENDMDL
MODEL 2
REMARK VINA RESULT:      -9.2      3.824     12.209
REMARK  7 active torsions:
REMARK  status: ('A' for Active; 'I' for Inactive)
REMARK    1  A    between atoms: C_2  and  N_3 
REMARK    2  A    between atoms: C_2  and  C_12 
REMARK       I    between atoms: N_3  and  C_4 
REMARK    3  A    between atoms: C_4  and  C_5 
REMARK    4  A    between atoms: N_17  and  C_19 
REMARK    5  A    between atoms: C_19  and  C_20 
REMARK    6  A    between atoms: C_22  and  C_23 
REMARK    7  A    between atoms: C_23  and  N_24 
ROOT
HETATM    1  C   UNL     1      24.442  46.493  49.933  1.00  0.00     0.152 A 
HETATM    2  N   UNL     1      23.494  47.181  49.203  1.00  0.00    -0.317 N 
HETATM    3  C   UNL     1      22.861  46.238  48.430  1.00  0.00     0.131 A 
HETATM    4  C   UNL     1      21.695  46.466  47.542  1.00  0.00     0.108 C 
HETATM    5  C   UNL     1      20.586  47.188  48.293  1.00  0.00     0.243 C 
HETATM    6  N   UNL     1      20.794  48.700  48.360  1.00  0.00    -0.065 N 
HETATM    7  H   UNL     1      20.356  49.073  47.508  1.00  0.00     0.280 HD
HETATM    8  C   UNL     1      22.240  49.189  48.288  1.00  0.00     0.255 C 
HETATM    9  C   UNL     1      23.167  48.582  49.340  1.00  0.00     0.159 C 
HETATM   10  N   UNL     1      23.389  45.063  48.673  1.00  0.00    -0.135 NA
HETATM   11  N   UNL     1      24.366  45.217  49.612  1.00  0.00    -0.133 NA
ENDROOT
BRANCH   6  12
HETATM   12  C   UNL     1      20.011  49.329  49.513  1.00  0.00     0.280 C 
BRANCH  12  13
HETATM   13  C   UNL     1      19.167  50.500  49.080  1.00  0.00     0.009 A 
HETATM   14  S   UNL     1      17.495  50.289  48.745  1.00  0.00    -0.096 SA
HETATM   15  C   UNL     1      17.291  51.931  48.297  1.00  0.00     0.009 A 
HETATM   16  C   UNL     1      18.472  52.634  48.436  1.00  0.00     0.017 A 
HETATM   17  C   UNL     1      19.546  51.816  48.900  1.00  0.00     0.017 A 
BRANCH  15  18
HETATM   18  C   UNL     1      15.962  52.432  47.803  1.00  0.00     0.280 C 
BRANCH  18  19
HETATM   19  N   UNL     1      15.259  53.378  48.754  1.00  0.00    -0.067 N 
HETATM   20  H   UNL     1      15.972  54.043  49.081  1.00  0.00     0.280 HD
HETATM   21  C   UNL     1      14.158  54.172  48.088  1.00  0.00     0.235 C 
HETATM   22  C   UNL     1      13.551  55.151  49.083  1.00  0.00     0.028 C 
HETATM   23  C   UNL     1      13.044  54.443  50.333  1.00  0.00     0.003 C 
HETATM   24  C   UNL     1      14.146  53.605  50.966  1.00  0.00     0.028 C 
HETATM   25  C   UNL     1      14.753  52.628  49.971  1.00  0.00     0.235 C 
ENDBRANCH  18  19
ENDBRANCH  15  18
ENDBRANCH  12  13
ENDBRANCH   6  12
BRANCH   1  26
HETATM   26  C   UNL     1      25.349  47.070  50.984  1.00  0.00     0.152 C 
HETATM   27  C   UNL     1      26.534  47.792  50.353  1.00  0.00     0.040 C 
BRANCH  26  28
HETATM   28  N   UNL     1      25.804  45.962  51.811  1.00  0.00    -0.349 N 
HETATM   29  C   UNL     1      25.900  46.066  53.175  1.00  0.00     0.222 C 
HETATM   30  O   UNL     1      25.759  47.138  53.761  1.00  0.00    -0.273 OA
HETATM   31  H   UNL     1      25.766  45.040  51.387  1.00  0.00     0.163 HD
BRANCH  29  32
HETATM   32  C   UNL     1      26.135  44.742  53.904  1.00  0.00     0.082 C 
HETATM   33  C   UNL     1      26.644  43.659  52.948  1.00  0.00     0.040 C 
HETATM   34  C   UNL     1      28.094  43.893  52.532  1.00  0.00     0.168 C 
HETATM   35  O   UNL     1      28.956  44.081  53.654  1.00  0.00    -0.391 OA
HETATM   36  C   UNL     1      28.545  45.147  54.507  1.00  0.00     0.168 C 
HETATM   37  C   UNL     1      27.139  44.918  55.047  1.00  0.00     0.040 C 
ENDBRANCH  29  32
ENDBRANCH  26  28
ENDBRANCH   1  26
TORSDOF 7
ENDMDL
MODEL 3
REMARK VINA RESULT:      -9.0      3.163      4.237
REMARK  7 active torsions:
REMARK  status: ('A' for Active; 'I' for Inactive)
REMARK    1  A    between atoms: C_2  and  N_3 
REMARK    2  A    between atoms: C_2  and  C_12 
REMARK       I    between atoms: N_3  and  C_4 
REMARK    3  A    between atoms: C_4  and  C_5 
REMARK    4  A    between atoms: N_17  and  C_19 
REMARK    5  A    between atoms: C_19  and  C_20 
REMARK    6  A    between atoms: C_22  and  C_23 
REMARK    7  A    between atoms: C_23  and  N_24 
ROOT
HETATM    1  C   UNL     1      22.467  49.167  49.129  1.00  0.00     0.152 A 
HETATM    2  N   UNL     1      23.523  48.278  49.134  1.00  0.00    -0.317 N 
HETATM    3  C   UNL     1      24.660  49.047  49.061  1.00  0.00     0.131 A 
HETATM    4  C   UNL     1      26.058  48.559  49.137  1.00  0.00     0.108 C 
HETATM    5  C   UNL     1      26.247  47.667  50.355  1.00  0.00     0.243 C 
HETATM    6  N   UNL     1      25.789  46.229  50.121  1.00  0.00    -0.065 N 
HETATM    7  H   UNL     1      26.607  45.742  49.732  1.00  0.00     0.280 HD
HETATM    8  C   UNL     1      24.695  46.027  49.073  1.00  0.00     0.255 C 
HETATM    9  C   UNL     1      23.428  46.847  49.314  1.00  0.00     0.159 C 
HETATM   10  N   UNL     1      24.317  50.311  49.012  1.00  0.00    -0.135 NA
HETATM   11  N   UNL     1      22.957  50.389  49.062  1.00  0.00    -0.133 NA
ENDROOT
BRANCH   6  12
HETATM   12  C   UNL     1      25.491  45.508  51.436  1.00  0.00     0.280 C 
BRANCH  12  13
HETATM   13  C   UNL     1      25.905  44.060  51.419  1.00  0.00     0.009 A 
HETATM   14  S   UNL     1      27.510  43.609  51.834  1.00  0.00    -0.096 SA
HETATM   15  C   UNL     1      27.212  41.948  51.533  1.00  0.00     0.009 A 
HETATM   16  C   UNL     1      25.899  41.740  51.157  1.00  0.00     0.017 A 
HETATM   17  C   UNL     1      25.144  42.950  51.106  1.00  0.00     0.017 A 
BRANCH  15  18
HETATM   18  C   UNL     1      28.316  40.935  51.663  1.00  0.00     0.280 C 
BRANCH  18  19
HETATM   19  N   UNL     1      28.283  39.839  50.617  1.00  0.00    -0.067 N 
HETATM   20  H   UNL     1      27.348  39.416  50.670  1.00  0.00     0.280 HD
HETATM   21  C   UNL     1      28.476  40.362  49.211  1.00  0.00     0.235 C 
HETATM   22  C   UNL     1      28.355  39.218  48.214  1.00  0.00     0.028 C 
HETATM   23  C   UNL     1      29.334  38.094  48.524  1.00  0.00     0.003 C 
HETATM   24  C   UNL     1      29.169  37.611  49.959  1.00  0.00     0.028 C 
HETATM   25  C   UNL     1      29.287  38.754  50.955  1.00  0.00     0.235 C 
ENDBRANCH  18  19
ENDBRANCH  15  18
ENDBRANCH  12  13
ENDBRANCH   6  12
BRANCH   1  26
HETATM   26  C   UNL     1      21.011  48.823  49.267  1.00  0.00     0.152 C 
HETATM   27  C   UNL     1      20.595  47.767  48.248  1.00  0.00     0.040 C 
BRANCH  26  28
HETATM   28  N   UNL     1      20.260  50.053  49.066  1.00  0.00    -0.349 N 
HETATM   29  C   UNL     1      19.333  50.494  49.976  1.00  0.00     0.222 C 
HETATM   30  O   UNL     1      18.972  49.806  50.929  1.00  0.00    -0.273 OA
HETATM   31  H   UNL     1      20.645  50.710  48.395  1.00  0.00     0.163 HD
BRANCH  29  32
HETATM   32  C   UNL     1      18.837  51.922  49.744  1.00  0.00     0.082 C 
HETATM   33  C   UNL     1      19.123  52.389  48.313  1.00  0.00     0.040 C 
HETATM   34  C   UNL     1      18.210  51.715  47.293  1.00  0.00     0.168 C 
HETATM   35  O   UNL     1      16.829  51.831  47.641  1.00  0.00    -0.391 OA
HETATM   36  C   UNL     1      16.530  51.317  48.937  1.00  0.00     0.168 C 
HETATM   37  C   UNL     1      17.333  52.029  50.019  1.00  0.00     0.040 C 
ENDBRANCH  29  32
ENDBRANCH  26  28
ENDBRANCH   1  26
TORSDOF 7
ENDMDL
MODEL 4
REMARK VINA RESULT:      -9.0      3.786     10.756
REMARK  7 active torsions:
REMARK  status: ('A' for Active; 'I' for Inactive)
REMARK    1  A    between atoms: C_2  and  N_3 
REMARK    2  A    between atoms: C_2  and  C_12 
REMARK       I    between atoms: N_3  and  C_4 
REMARK    3  A    between atoms: C_4  and  C_5 
REMARK    4  A    between atoms: N_17  and  C_19 
REMARK    5  A    between atoms: C_19  and  C_20 
REMARK    6  A    between atoms: C_22  and  C_23 
REMARK    7  A    between atoms: C_23  and  N_24 
ROOT
HETATM    1  C   UNL     1      28.412  44.587  54.592  1.00  0.00     0.152 A 
HETATM    2  N   UNL     1      27.248  45.104  54.060  1.00  0.00    -0.317 N 
HETATM    3  C   UNL     1      27.255  46.442  54.374  1.00  0.00     0.131 A 
HETATM    4  C   UNL     1      26.263  47.454  53.937  1.00  0.00     0.108 C 
HETATM    5  C   UNL     1      26.065  47.391  52.429  1.00  0.00     0.243 C 
HETATM    6  N   UNL     1      25.094  46.294  51.998  1.00  0.00    -0.065 N 
HETATM    7  H   UNL     1      24.162  46.729  52.025  1.00  0.00     0.280 HD
HETATM    8  C   UNL     1      24.975  45.088  52.929  1.00  0.00     0.255 C 
HETATM    9  C   UNL     1      26.301  44.390  53.234  1.00  0.00     0.159 C 
HETATM   10  N   UNL     1      28.344  46.716  55.051  1.00  0.00    -0.135 NA
HETATM   11  N   UNL     1      29.068  45.568  55.181  1.00  0.00    -0.133 NA
ENDROOT
BRANCH   6  12
HETATM   12  C   UNL     1      25.300  45.897  50.535  1.00  0.00     0.280 C 
BRANCH  12  13
HETATM   13  C   UNL     1      24.057  46.064  49.701  1.00  0.00     0.009 A 
HETATM   14  S   UNL     1      23.525  47.630  49.238  1.00  0.00    -0.096 SA
HETATM   15  C   UNL     1      22.140  47.016  48.436  1.00  0.00     0.009 A 
HETATM   16  C   UNL     1      22.107  45.636  48.491  1.00  0.00     0.017 A 
HETATM   17  C   UNL     1      23.215  45.088  49.204  1.00  0.00     0.017 A 
BRANCH  15  18
HETATM   18  C   UNL     1      21.139  47.948  47.811  1.00  0.00     0.280 C 
BRANCH  18  19
HETATM   19  N   UNL     1      20.884  49.213  48.604  1.00  0.00    -0.067 N 
HETATM   20  H   UNL     1      21.739  49.393  49.147  1.00  0.00     0.280 HD
HETATM   21  C   UNL     1      20.633  50.418  47.726  1.00  0.00     0.235 C 
HETATM   22  C   UNL     1      20.461  51.660  48.589  1.00  0.00     0.028 C 
HETATM   23  C   UNL     1      19.351  51.484  49.615  1.00  0.00     0.003 C 
HETATM   24  C   UNL     1      19.585  50.239  50.460  1.00  0.00     0.028 C 
HETATM   25  C   UNL     1      19.759  48.998  49.598  1.00  0.00     0.235 C 
ENDBRANCH  18  19
ENDBRANCH  15  18
ENDBRANCH  12  13
ENDBRANCH   6  12
BRANCH   1  26
HETATM   26  C   UNL     1      28.905  43.174  54.454  1.00  0.00     0.152 C 
HETATM   27  C   UNL     1      30.270  43.000  55.112  1.00  0.00     0.040 C 
BRANCH  26  28
HETATM   28  N   UNL     1      28.981  42.886  53.030  1.00  0.00    -0.349 N 
HETATM   29  C   UNL     1      28.370  41.788  52.478  1.00  0.00     0.222 C 
HETATM   30  O   UNL     1      27.858  40.908  53.168  1.00  0.00    -0.273 OA
HETATM   31  H   UNL     1      29.245  43.659  52.429  1.00  0.00     0.163 HD
BRANCH  29  32
HETATM   32  C   UNL     1      28.325  41.781  50.950  1.00  0.00     0.082 C 
HETATM   33  C   UNL     1      28.100  40.368  50.402  1.00  0.00     0.040 C 
HETATM   34  C   UNL     1      26.670  39.884  50.625  1.00  0.00     0.168 C 
HETATM   35  O   UNL     1      25.701  40.816  50.145  1.00  0.00    -0.391 OA
HETATM   36  C   UNL     1      25.841  42.116  50.715  1.00  0.00     0.168 C 
HETATM   37  C   UNL     1      27.218  42.704  50.432  1.00  0.00     0.040 C 
ENDBRANCH  29  32
ENDBRANCH  26  28
ENDBRANCH   1  26
TORSDOF 7
ENDMDL
MODEL 5
REMARK VINA RESULT:      -8.8     12.492     14.117
REMARK  7 active torsions:
REMARK  status: ('A' for Active; 'I' for Inactive)
REMARK    1  A    between atoms: C_2  and  N_3 
REMARK    2  A    between atoms: C_2  and  C_12 
REMARK       I    between atoms: N_3  and  C_4 
REMARK    3  A    between atoms: C_4  and  C_5 
REMARK    4  A    between atoms: N_17  and  C_19 
REMARK    5  A    between atoms: C_19  and  C_20 
REMARK    6  A    between atoms: C_22  and  C_23 
REMARK    7  A    between atoms: C_23  and  N_24 
ROOT
HETATM    1  C   UNL     1      29.136  48.440  40.369  1.00  0.00     0.152 A 
HETATM    2  N   UNL     1      30.252  48.569  41.171  1.00  0.00    -0.317 N 
HETATM    3  C   UNL     1      31.141  47.618  40.731  1.00  0.00     0.131 A 
HETATM    4  C   UNL     1      32.531  47.423  41.210  1.00  0.00     0.108 C 
HETATM    5  C   UNL     1      33.294  48.739  41.182  1.00  0.00     0.243 C 
HETATM    6  N   UNL     1      33.026  49.614  42.404  1.00  0.00    -0.065 N 
HETATM    7  H   UNL     1      33.714  49.318  43.109  1.00  0.00     0.280 HD
HETATM    8  C   UNL     1      31.675  49.422  43.092  1.00  0.00     0.255 C 
HETATM    9  C   UNL     1      30.466  49.589  42.172  1.00  0.00     0.159 C 
HETATM   10  N   UNL     1      30.601  46.958  39.735  1.00  0.00    -0.135 NA
HETATM   11  N   UNL     1      29.360  47.471  39.503  1.00  0.00    -0.133 NA
ENDROOT
BRANCH   6  12
HETATM   12  C   UNL     1      33.350  51.083  42.132  1.00  0.00     0.280 C 
BRANCH  12  13
HETATM   13  C   UNL     1      34.643  51.527  42.765  1.00  0.00     0.009 A 
HETATM   14  S   UNL     1      36.141  51.235  41.978  1.00  0.00    -0.096 SA
HETATM   15  C   UNL     1      37.047  51.922  43.260  1.00  0.00     0.009 A 
HETATM   16  C   UNL     1      36.216  52.398  44.255  1.00  0.00     0.017 A 
HETATM   17  C   UNL     1      34.834  52.185  43.965  1.00  0.00     0.017 A 
BRANCH  15  18
HETATM   18  C   UNL     1      38.550  51.929  43.220  1.00  0.00     0.280 C 
BRANCH  18  19
HETATM   19  N   UNL     1      39.205  50.969  44.193  1.00  0.00    -0.067 N 
HETATM   20  H   UNL     1      38.593  50.931  45.019  1.00  0.00     0.280 HD
HETATM   21  C   UNL     1      39.327  49.566  43.643  1.00  0.00     0.235 C 
HETATM   22  C   UNL     1      39.921  48.646  44.700  1.00  0.00     0.028 C 
HETATM   23  C   UNL     1      41.263  49.160  45.205  1.00  0.00     0.003 C 
HETATM   24  C   UNL     1      41.140  50.592  45.708  1.00  0.00     0.028 C 
HETATM   25  C   UNL     1      40.544  51.511  44.652  1.00  0.00     0.235 C 
ENDBRANCH  18  19
ENDBRANCH  15  18
ENDBRANCH  12  13
ENDBRANCH   6  12
BRANCH   1  26
HETATM   26  C   UNL     1      27.908  49.305  40.404  1.00  0.00     0.152 C 
HETATM   27  C   UNL     1      26.697  48.567  39.842  1.00  0.00     0.040 C 
BRANCH  26  28
HETATM   28  N   UNL     1      28.198  50.491  39.613  1.00  0.00    -0.349 N 
HETATM   29  C   UNL     1      28.150  51.753  40.151  1.00  0.00     0.222 C 
HETATM   30  O   UNL     1      27.712  51.966  41.280  1.00  0.00    -0.273 OA
HETATM   31  H   UNL     1      28.712  50.341  38.750  1.00  0.00     0.163 HD
BRANCH  29  32
HETATM   32  C   UNL     1      28.737  52.850  39.263  1.00  0.00     0.082 C 
HETATM   33  C   UNL     1      29.471  53.909  40.092  1.00  0.00     0.040 C 
HETATM   34  C   UNL     1      30.800  53.394  40.639  1.00  0.00     0.168 C 
HETATM   35  O   UNL     1      31.624  52.829  39.618  1.00  0.00    -0.391 OA
HETATM   36  C   UNL     1      30.985  51.779  38.896  1.00  0.00     0.168 C 
HETATM   37  C   UNL     1      29.702  52.260  38.230  1.00  0.00     0.040 C 
ENDBRANCH  29  32
ENDBRANCH  26  28
ENDBRANCH   1  26
TORSDOF 7
ENDMDL
MODEL 6
REMARK VINA RESULT:      -8.8      3.804     12.268
REMARK  7 active torsions:
REMARK  status: ('A' for Active; 'I' for Inactive)
REMARK    1  A    between atoms: C_2  and  N_3 
REMARK    2  A    between atoms: C_2  and  C_12 
REMARK       I    between atoms: N_3  and  C_4 
REMARK    3  A    between atoms: C_4  and  C_5 
REMARK    4  A    between atoms: N_17  and  C_19 
REMARK    5  A    between atoms: C_19  and  C_20 
REMARK    6  A    between atoms: C_22  and  C_23 
REMARK    7  A    between atoms: C_23  and  N_24 
ROOT
HETATM    1  C   UNL     1      24.287  46.507  49.617  1.00  0.00     0.152 A 
HETATM    2  N   UNL     1      23.250  47.203  49.029  1.00  0.00    -0.317 N 
HETATM    3  C   UNL     1      22.563  46.284  48.274  1.00  0.00     0.131 A 
HETATM    4  C   UNL     1      21.304  46.522  47.527  1.00  0.00     0.108 C 
HETATM    5  C   UNL     1      20.263  47.168  48.429  1.00  0.00     0.243 C 
HETATM    6  N   UNL     1      20.438  48.679  48.560  1.00  0.00    -0.065 N 
HETATM    7  H   UNL     1      19.903  49.084  47.780  1.00  0.00     0.280 HD
HETATM    8  C   UNL     1      21.855  49.218  48.365  1.00  0.00     0.255 C 
HETATM    9  C   UNL     1      22.903  48.584  49.279  1.00  0.00     0.159 C 
HETATM   10  N   UNL     1      23.144  45.114  48.393  1.00  0.00    -0.135 NA
HETATM   11  N   UNL     1      24.209  45.249  49.233  1.00  0.00    -0.133 NA
ENDROOT
BRANCH   6  12
HETATM   12  C   UNL     1      19.764  49.221  49.821  1.00  0.00     0.280 C 
BRANCH  12  13
HETATM   13  C   UNL     1      18.820  50.360  49.540  1.00  0.00     0.009 A 
HETATM   14  S   UNL     1      17.338  50.078  48.718  1.00  0.00    -0.096 SA
HETATM   15  C   UNL     1      16.914  51.739  48.735  1.00  0.00     0.009 A 
HETATM   16  C   UNL     1      17.872  52.489  49.390  1.00  0.00     0.017 A 
HETATM   17  C   UNL     1      18.959  51.696  49.866  1.00  0.00     0.017 A 
BRANCH  15  18
HETATM   18  C   UNL     1      15.652  52.215  48.070  1.00  0.00     0.280 C 
BRANCH  18  19
HETATM   19  N   UNL     1      15.879  53.017  46.804  1.00  0.00    -0.067 N 
HETATM   20  H   UNL     1      16.407  53.855  47.082  1.00  0.00     0.280 HD
HETATM   21  C   UNL     1      16.701  52.273  45.776  1.00  0.00     0.235 C 
HETATM   22  C   UNL     1      16.951  53.167  44.569  1.00  0.00     0.028 C 
HETATM   23  C   UNL     1      15.649  53.681  43.969  1.00  0.00     0.003 C 
HETATM   24  C   UNL     1      14.805  54.382  45.024  1.00  0.00     0.028 C 
HETATM   25  C   UNL     1      14.557  53.490  46.231  1.00  0.00     0.235 C 
ENDBRANCH  18  19
ENDBRANCH  15  18
ENDBRANCH  12  13
ENDBRANCH   6  12
BRANCH   1  26
HETATM   26  C   UNL     1      25.284  47.055  50.599  1.00  0.00     0.152 C 
HETATM   27  C   UNL     1      26.504  47.626  49.884  1.00  0.00     0.040 C 
BRANCH  26  28
HETATM   28  N   UNL     1      25.670  45.957  51.473  1.00  0.00    -0.349 N 
HETATM   29  C   UNL     1      25.832  46.129  52.825  1.00  0.00     0.222 C 
HETATM   30  O   UNL     1      25.814  47.240  53.350  1.00  0.00    -0.273 OA
HETATM   31  H   UNL     1      25.531  45.021  51.107  1.00  0.00     0.163 HD
BRANCH  29  32
HETATM   32  C   UNL     1      25.974  44.832  53.622  1.00  0.00     0.082 C 
HETATM   33  C   UNL     1      26.554  43.705  52.761  1.00  0.00     0.040 C 
HETATM   34  C   UNL     1      28.040  43.903  52.476  1.00  0.00     0.168 C 
HETATM   35  O   UNL     1      28.796  44.125  53.668  1.00  0.00    -0.391 OA
HETATM   36  C   UNL     1      28.323  45.229  54.436  1.00  0.00     0.168 C 
HETATM   37  C   UNL     1      26.868  45.040  54.849  1.00  0.00     0.040 C 
ENDBRANCH  29  32
ENDBRANCH  26  28
ENDBRANCH   1  26
TORSDOF 7
ENDMDL
MODEL 7
REMARK VINA RESULT:      -8.8     12.425     14.305
REMARK  7 active torsions:
REMARK  status: ('A' for Active; 'I' for Inactive)
REMARK    1  A    between atoms: C_2  and  N_3 
REMARK    2  A    between atoms: C_2  and  C_12 
REMARK       I    between atoms: N_3  and  C_4 
REMARK    3  A    between atoms: C_4  and  C_5 
REMARK    4  A    between atoms: N_17  and  C_19 
REMARK    5  A    between atoms: C_19  and  C_20 
REMARK    6  A    between atoms: C_22  and  C_23 
REMARK    7  A    between atoms: C_23  and  N_24 
ROOT
HETATM    1  C   UNL     1      29.201  48.416  40.571  1.00  0.00     0.152 A 
HETATM    2  N   UNL     1      30.343  48.626  41.316  1.00  0.00    -0.317 N 
HETATM    3  C   UNL     1      31.219  47.633  40.948  1.00  0.00     0.131 A 
HETATM    4  C   UNL     1      32.624  47.488  41.397  1.00  0.00     0.108 C 
HETATM    5  C   UNL     1      33.384  48.792  41.205  1.00  0.00     0.243 C 
HETATM    6  N   UNL     1      33.155  49.791  42.338  1.00  0.00    -0.065 N 
HETATM    7  H   UNL     1      33.868  49.568  43.045  1.00  0.00     0.280 HD
HETATM    8  C   UNL     1      31.829  49.674  43.088  1.00  0.00     0.255 C 
HETATM    9  C   UNL     1      30.589  49.746  42.197  1.00  0.00     0.159 C 
HETATM   10  N   UNL     1      30.646  46.874  40.045  1.00  0.00    -0.135 NA
HETATM   11  N   UNL     1      29.397  47.362  39.804  1.00  0.00    -0.133 NA
ENDROOT
BRANCH   6  12
HETATM   12  C   UNL     1      33.467  51.223  41.903  1.00  0.00     0.280 C 
BRANCH  12  13
HETATM   13  C   UNL     1      34.944  51.519  41.872  1.00  0.00     0.009 A 
HETATM   14  S   UNL     1      35.755  52.043  43.293  1.00  0.00    -0.096 SA
HETATM   15  C   UNL     1      37.254  52.210  42.478  1.00  0.00     0.009 A 
HETATM   16  C   UNL     1      37.142  51.838  41.152  1.00  0.00     0.017 A 
HETATM   17  C   UNL     1      35.819  51.426  40.807  1.00  0.00     0.017 A 
BRANCH  15  18
HETATM   18  C   UNL     1      38.466  52.731  43.200  1.00  0.00     0.280 C 
BRANCH  18  19
HETATM   19  N   UNL     1      38.203  53.164  44.628  1.00  0.00    -0.067 N 
HETATM   20  H   UNL     1      37.297  52.756  44.893  1.00  0.00     0.280 HD
HETATM   21  C   UNL     1      39.243  52.652  45.599  1.00  0.00     0.235 C 
HETATM   22  C   UNL     1      38.872  53.062  47.017  1.00  0.00     0.028 C 
HETATM   23  C   UNL     1      38.696  54.570  47.140  1.00  0.00     0.003 C 
HETATM   24  C   UNL     1      37.686  55.083  46.124  1.00  0.00     0.028 C 
HETATM   25  C   UNL     1      38.055  54.671  44.706  1.00  0.00     0.235 C 
ENDBRANCH  18  19
ENDBRANCH  15  18
ENDBRANCH  12  13
ENDBRANCH   6  12
BRANCH   1  26
HETATM   26  C   UNL     1      27.973  49.282  40.557  1.00  0.00     0.152 C 
HETATM   27  C   UNL     1      26.761  48.512  40.044  1.00  0.00     0.040 C 
BRANCH  26  28
HETATM   28  N   UNL     1      28.261  50.419  39.695  1.00  0.00    -0.349 N 
HETATM   29  C   UNL     1      28.150  51.712  40.139  1.00  0.00     0.222 C 
HETATM   30  O   UNL     1      27.656  51.990  41.230  1.00  0.00    -0.273 OA
HETATM   31  H   UNL     1      28.816  50.225  38.868  1.00  0.00     0.163 HD
BRANCH  29  32
HETATM   32  C   UNL     1      28.741  52.764  39.199  1.00  0.00     0.082 C 
HETATM   33  C   UNL     1      29.388  53.913  39.979  1.00  0.00     0.040 C 
HETATM   34  C   UNL     1      30.704  53.498  40.632  1.00  0.00     0.168 C 
HETATM   35  O   UNL     1      31.603  52.894  39.702  1.00  0.00    -0.391 OA
HETATM   36  C   UNL     1      31.046  51.765  39.032  1.00  0.00     0.168 C 
HETATM   37  C   UNL     1      29.783  52.139  38.266  1.00  0.00     0.040 C 
ENDBRANCH  29  32
ENDBRANCH  26  28
ENDBRANCH   1  26
TORSDOF 7
ENDMDL
MODEL 8
REMARK VINA RESULT:      -8.7      2.130      3.566
REMARK  7 active torsions:
REMARK  status: ('A' for Active; 'I' for Inactive)
REMARK    1  A    between atoms: C_2  and  N_3 
REMARK    2  A    between atoms: C_2  and  C_12 
REMARK       I    between atoms: N_3  and  C_4 
REMARK    3  A    between atoms: C_4  and  C_5 
REMARK    4  A    between atoms: N_17  and  C_19 
REMARK    5  A    between atoms: C_19  and  C_20 
REMARK    6  A    between atoms: C_22  and  C_23 
REMARK    7  A    between atoms: C_23  and  N_24 
ROOT
HETATM    1  C   UNL     1      23.163  46.115  49.084  1.00  0.00     0.152 A 
HETATM    2  N   UNL     1      23.581  45.087  49.906  1.00  0.00    -0.317 N 
HETATM    3  C   UNL     1      22.836  43.992  49.543  1.00  0.00     0.131 A 
HETATM    4  C   UNL     1      22.985  42.613  50.068  1.00  0.00     0.108 C 
HETATM    5  C   UNL     1      24.436  42.164  49.985  1.00  0.00     0.243 C 
HETATM    6  N   UNL     1      25.287  42.668  51.149  1.00  0.00    -0.065 N 
HETATM    7  H   UNL     1      25.190  41.958  51.886  1.00  0.00     0.280 HD
HETATM    8  C   UNL     1      24.829  43.967  51.812  1.00  0.00     0.255 C 
HETATM    9  C   UNL     1      24.672  45.146  50.852  1.00  0.00     0.159 C 
HETATM   10  N   UNL     1      22.022  44.331  48.573  1.00  0.00    -0.135 NA
HETATM   11  N   UNL     1      22.229  45.647  48.281  1.00  0.00    -0.133 NA
ENDROOT
BRANCH   6  12
HETATM   12  C   UNL     1      26.777  42.672  50.802  1.00  0.00     0.280 C 
BRANCH  12  13
HETATM   13  C   UNL     1      27.661  42.487  52.007  1.00  0.00     0.009 A 
HETATM   14  S   UNL     1      28.866  43.651  52.387  1.00  0.00    -0.096 SA
HETATM   15  C   UNL     1      29.426  42.755  53.737  1.00  0.00     0.009 A 
HETATM   16  C   UNL     1      28.680  41.605  53.914  1.00  0.00     0.017 A 
HETATM   17  C   UNL     1      27.657  41.459  52.929  1.00  0.00     0.017 A 
BRANCH  15  18
HETATM   18  C   UNL     1      30.603  43.234  54.541  1.00  0.00     0.280 C 
BRANCH  18  19
HETATM   19  N   UNL     1      30.233  43.917  55.842  1.00  0.00    -0.067 N 
HETATM   20  H   UNL     1      29.491  43.348  56.269  1.00  0.00     0.280 HD
HETATM   21  C   UNL     1      31.385  43.984  56.820  1.00  0.00     0.235 C 
HETATM   22  C   UNL     1      30.919  44.612  58.126  1.00  0.00     0.028 C 
HETATM   23  C   UNL     1      30.305  45.987  57.902  1.00  0.00     0.003 C 
HETATM   24  C   UNL     1      29.181  45.919  56.877  1.00  0.00     0.028 C 
HETATM   25  C   UNL     1      29.646  45.289  55.572  1.00  0.00     0.235 C 
ENDBRANCH  18  19
ENDBRANCH  15  18
ENDBRANCH  12  13
ENDBRANCH   6  12
BRANCH   1  26
HETATM   26  C   UNL     1      23.729  47.506  49.039  1.00  0.00     0.152 C 
HETATM   27  C   UNL     1      24.505  47.827  50.312  1.00  0.00     0.040 C 
BRANCH  26  28
HETATM   28  N   UNL     1      22.607  48.419  48.879  1.00  0.00    -0.349 N 
HETATM   29  C   UNL     1      22.638  49.457  47.983  1.00  0.00     0.222 C 
HETATM   30  O   UNL     1      23.662  49.771  47.380  1.00  0.00    -0.273 OA
HETATM   31  H   UNL     1      21.711  48.095  49.229  1.00  0.00     0.163 HD
BRANCH  29  32
HETATM   32  C   UNL     1      21.292  50.146  47.754  1.00  0.00     0.082 C 
HETATM   33  C   UNL     1      20.123  49.183  47.987  1.00  0.00     0.040 C 
HETATM   34  C   UNL     1      19.916  48.875  49.467  1.00  0.00     0.168 C 
HETATM   35  O   UNL     1      19.815  50.059  50.259  1.00  0.00    -0.391 OA
HETATM   36  C   UNL     1      20.940  50.925  50.122  1.00  0.00     0.168 C 
HETATM   37  C   UNL     1      21.136  51.360  48.675  1.00  0.00     0.040 C 
ENDBRANCH  29  32
ENDBRANCH  26  28
ENDBRANCH   1  26
TORSDOF 7
ENDMDL
MODEL 9
REMARK VINA RESULT:      -8.5      2.486      3.642
REMARK  7 active torsions:
REMARK  status: ('A' for Active; 'I' for Inactive)
REMARK    1  A    between atoms: C_2  and  N_3 
REMARK    2  A    between atoms: C_2  and  C_12 
REMARK       I    between atoms: N_3  and  C_4 
REMARK    3  A    between atoms: C_4  and  C_5 
REMARK    4  A    between atoms: N_17  and  C_19 
REMARK    5  A    between atoms: C_19  and  C_20 
REMARK    6  A    between atoms: C_22  and  C_23 
REMARK    7  A    between atoms: C_23  and  N_24 
ROOT
HETATM    1  C   UNL     1      19.637  45.508  47.573  1.00  0.00     0.152 A 
HETATM    2  N   UNL     1      20.728  44.762  47.973  1.00  0.00    -0.317 N 
HETATM    3  C   UNL     1      21.037  43.951  46.909  1.00  0.00     0.131 A 
HETATM    4  C   UNL     1      22.197  43.032  46.810  1.00  0.00     0.108 C 
HETATM    5  C   UNL     1      23.487  43.762  47.154  1.00  0.00     0.243 C 
HETATM    6  N   UNL     1      23.733  43.866  48.658  1.00  0.00    -0.065 N 
HETATM    7  H   UNL     1      24.241  43.008  48.911  1.00  0.00     0.280 HD
HETATM    8  C   UNL     1      22.494  43.849  49.552  1.00  0.00     0.255 C 
HETATM    9  C   UNL     1      21.454  44.917  49.213  1.00  0.00     0.159 C 
HETATM   10  N   UNL     1      20.193  44.186  45.933  1.00  0.00    -0.135 NA
HETATM   11  N   UNL     1      19.328  45.158  46.340  1.00  0.00    -0.133 NA
ENDROOT
BRANCH   6  12
HETATM   12  C   UNL     1      24.695  45.006  48.998  1.00  0.00     0.280 C 
BRANCH  12  13
HETATM   13  C   UNL     1      25.100  45.020  50.448  1.00  0.00     0.009 A 
HETATM   14  S   UNL     1      25.971  43.701  51.120  1.00  0.00    -0.096 SA
HETATM   15  C   UNL     1      25.988  44.399  52.686  1.00  0.00     0.009 A 
HETATM   16  C   UNL     1      25.370  45.635  52.685  1.00  0.00     0.017 A 
HETATM   17  C   UNL     1      24.873  45.999  51.397  1.00  0.00     0.017 A 
BRANCH  15  18
HETATM   18  C   UNL     1      26.597  43.664  53.847  1.00  0.00     0.280 C 
BRANCH  18  19
HETATM   19  N   UNL     1      28.025  44.065  54.160  1.00  0.00    -0.067 N 
HETATM   20  H   UNL     1      28.368  44.581  53.339  1.00  0.00     0.280 HD
HETATM   21  C   UNL     1      28.130  44.979  55.359  1.00  0.00     0.235 C 
HETATM   22  C   UNL     1      29.579  45.398  55.564  1.00  0.00     0.028 C 
HETATM   23  C   UNL     1      30.500  44.194  55.705  1.00  0.00     0.003 C 
HETATM   24  C   UNL     1      30.348  43.252  54.518  1.00  0.00     0.028 C 
HETATM   25  C   UNL     1      28.899  42.835  54.313  1.00  0.00     0.235 C 
ENDBRANCH  18  19
ENDBRANCH  15  18
ENDBRANCH  12  13
ENDBRANCH   6  12
BRANCH   1  26
HETATM   26  C   UNL     1      18.965  46.598  48.360  1.00  0.00     0.152 C 
HETATM   27  C   UNL     1      17.452  46.408  48.383  1.00  0.00     0.040 C 
BRANCH  26  28
HETATM   28  N   UNL     1      19.314  47.860  47.725  1.00  0.00    -0.349 N 
HETATM   29  C   UNL     1      19.786  48.929  48.445  1.00  0.00     0.222 C 
HETATM   30  O   UNL     1      19.795  48.937  49.674  1.00  0.00    -0.273 OA
HETATM   31  H   UNL     1      19.473  47.830  46.723  1.00  0.00     0.163 HD
BRANCH  29  32
HETATM   32  C   UNL     1      20.350  50.071  47.600  1.00  0.00     0.082 C 
HETATM   33  C   UNL     1      19.374  50.484  46.493  1.00  0.00     0.040 C 
HETATM   34  C   UNL     1      18.169  51.245  47.040  1.00  0.00     0.168 C 
HETATM   35  O   UNL     1      18.553  52.343  47.869  1.00  0.00    -0.391 OA
HETATM   36  C   UNL     1      19.389  51.960  48.959  1.00  0.00     0.168 C 
HETATM   37  C   UNL     1      20.668  51.290  48.472  1.00  0.00     0.040 C 
ENDBRANCH  29  32
ENDBRANCH  26  28
ENDBRANCH   1  26
TORSDOF 7
ENDMDL
MODEL 10
REMARK VINA RESULT:      -8.5      2.623      4.315
REMARK  7 active torsions:
REMARK  status: ('A' for Active; 'I' for Inactive)
REMARK    1  A    between atoms: C_2  and  N_3 
REMARK    2  A    between atoms: C_2  and  C_12 
REMARK       I    between atoms: N_3  and  C_4 
REMARK    3  A    between atoms: C_4  and  C_5 
REMARK    4  A    between atoms: N_17  and  C_19 
REMARK    5  A    between atoms: C_19  and  C_20 
REMARK    6  A    between atoms: C_22  and  C_23 
REMARK    7  A    between atoms: C_23  and  N_24 
ROOT
HETATM    1  C   UNL     1      18.516  46.641  46.632  1.00  0.00     0.152 A 
HETATM    2  N   UNL     1      19.567  45.943  47.192  1.00  0.00    -0.317 N 
HETATM    3  C   UNL     1      20.136  45.235  46.161  1.00  0.00     0.131 A 
HETATM    4  C   UNL     1      21.364  44.406  46.235  1.00  0.00     0.108 C 
HETATM    5  C   UNL     1      22.502  45.194  46.866  1.00  0.00     0.243 C 
HETATM    6  N   UNL     1      22.451  45.203  48.393  1.00  0.00    -0.065 N 
HETATM    7  H   UNL     1      22.969  44.365  48.688  1.00  0.00     0.280 HD
HETATM    8  C   UNL     1      21.070  45.037  49.026  1.00  0.00     0.255 C 
HETATM    9  C   UNL     1      20.031  46.055  48.556  1.00  0.00     0.159 C 
HETATM   10  N   UNL     1      19.476  45.484  45.056  1.00  0.00    -0.135 NA
HETATM   11  N   UNL     1      18.475  46.363  45.344  1.00  0.00    -0.133 NA
ENDROOT
BRANCH   6  12
HETATM   12  C   UNL     1      23.236  46.377  48.980  1.00  0.00     0.280 C 
BRANCH  12  13
HETATM   13  C   UNL     1      24.207  45.957  50.052  1.00  0.00     0.009 A 
HETATM   14  S   UNL     1      24.465  44.293  50.387  1.00  0.00    -0.096 SA
HETATM   15  C   UNL     1      25.562  44.631  51.660  1.00  0.00     0.009 A 
HETATM   16  C   UNL     1      25.754  45.992  51.801  1.00  0.00     0.017 A 
HETATM   17  C   UNL     1      24.987  46.754  50.867  1.00  0.00     0.017 A 
BRANCH  15  18
HETATM   18  C   UNL     1      26.159  43.518  52.475  1.00  0.00     0.280 C 
BRANCH  18  19
HETATM   19  N   UNL     1      27.581  43.773  52.932  1.00  0.00    -0.067 N 
HETATM   20  H   UNL     1      27.898  44.618  52.439  1.00  0.00     0.280 HD
HETATM   21  C   UNL     1      27.684  44.038  54.417  1.00  0.00     0.235 C 
HETATM   22  C   UNL     1      29.125  44.359  54.787  1.00  0.00     0.028 C 
HETATM   23  C   UNL     1      30.077  43.252  54.357  1.00  0.00     0.003 C 
HETATM   24  C   UNL     1      29.930  42.956  52.871  1.00  0.00     0.028 C 
HETATM   25  C   UNL     1      28.489  42.637  52.501  1.00  0.00     0.235 C 
ENDBRANCH  18  19
ENDBRANCH  15  18
ENDBRANCH  12  13
ENDBRANCH   6  12
BRANCH   1  26
HETATM   26  C   UNL     1      17.622  47.622  47.337  1.00  0.00     0.152 C 
HETATM   27  C   UNL     1      16.231  47.647  46.713  1.00  0.00     0.040 C 
BRANCH  26  28
HETATM   28  N   UNL     1      18.254  48.929  47.231  1.00  0.00    -0.349 N 
HETATM   29  C   UNL     1      18.537  49.690  48.338  1.00  0.00     0.222 C 
HETATM   30  O   UNL     1      18.136  49.387  49.460  1.00  0.00    -0.273 OA
HETATM   31  H   UNL     1      18.736  49.125  46.360  1.00  0.00     0.163 HD
BRANCH  29  32
HETATM   32  C   UNL     1      19.433  50.900  48.071  1.00  0.00     0.082 C 
HETATM   33  C   UNL     1      19.682  51.706  49.350  1.00  0.00     0.040 C 
HETATM   34  C   UNL     1      20.631  50.989  50.307  1.00  0.00     0.168 C 
HETATM   35  O   UNL     1      21.843  50.587  49.668  1.00  0.00    -0.391 OA
HETATM   36  C   UNL     1      21.630  49.760  48.526  1.00  0.00     0.168 C 
HETATM   37  C   UNL     1      20.777  50.464  47.479  1.00  0.00     0.040 C 
ENDBRANCH  29  32
ENDBRANCH  26  28
ENDBRANCH   1  26
TORSDOF 7
ENDMDL
