MODEL 1
REMARK VINA RESULT:      -9.9      0.000      0.000
REMARK  7 active torsions:
REMARK  status: ('A' for Active; 'I' for Inactive)
REMARK    1  A    between atoms: C_2  and  C_3 
REMARK    2  A    between atoms: C_3  and  N_4 
REMARK    3  A    between atoms: C_8  and  C_27 
REMARK    4  A    between atoms: C_8  and  C_9 
REMARK    5  A    between atoms: N_12  and  C_14 
REMARK    6  A    between atoms: C_14  and  C_15 
REMARK    7  A    between atoms: C_27  and  C_28 
ROOT
HETATM    1  N   UNL     1      27.779  42.409  52.362  1.00  0.00    -0.268 N 
HETATM    2  C   UNL     1      27.739  41.992  53.654  1.00  0.00     0.326 C 
HETATM    3  O   UNL     1      27.909  40.869  54.093  1.00  0.00    -0.247 OA
HETATM    4  N   UNL     1      27.483  43.081  54.464  1.00  0.00    -0.324 N 
HETATM    5  C   UNL     1      27.517  44.333  53.733  1.00  0.00     0.123 C 
HETATM    6  C   UNL     1      27.622  43.763  52.297  1.00  0.00     0.257 C 
HETATM    7  O   UNL     1      27.619  44.457  51.288  1.00  0.00    -0.270 OA
HETATM    8  H   UNL     1      27.580  42.942  55.462  1.00  0.00     0.165 HD
ENDROOT
BRANCH   5   9
HETATM    9  C   UNL     1      28.808  45.141  54.009  1.00  0.00     0.080 C 
BRANCH   9  10
HETATM   10  C   UNL     1      29.317  45.172  55.434  1.00  0.00    -0.052 A 
HETATM   11  C   UNL     1      30.421  44.401  55.821  1.00  0.00     0.049 A 
HETATM   12  C   UNL     1      30.871  44.443  57.139  1.00  0.00     0.116 A 
HETATM   13  F   UNL     1      31.922  43.695  57.493  1.00  0.00    -0.206 F 
HETATM   14  C   UNL     1      30.244  45.240  58.087  1.00  0.00     0.042 A 
HETATM   15  C   UNL     1      29.145  46.010  57.714  1.00  0.00     0.003 A 
HETATM   16  C   UNL     1      28.683  45.976  56.396  1.00  0.00     0.007 A 
ENDBRANCH   9  10
ENDBRANCH   5   9
BRANCH   5  17
HETATM   17  C   UNL     1      26.157  45.106  53.879  1.00  0.00     0.027 C 
HETATM   18  C   UNL     1      24.976  44.553  53.061  1.00  0.00     0.035 C 
HETATM   19  C   UNL     1      24.922  44.991  51.601  1.00  0.00     0.235 C 
HETATM   20  N   UNL     1      25.045  46.487  51.471  1.00  0.00    -0.067 N 
HETATM   21  H   UNL     1      24.182  46.883  51.869  1.00  0.00     0.280 HD
HETATM   22  C   UNL     1      26.216  47.075  52.217  1.00  0.00     0.235 C 
HETATM   23  C   UNL     1      26.217  46.632  53.669  1.00  0.00     0.035 C 
BRANCH  20  24
HETATM   24  C   UNL     1      25.081  46.956  50.018  1.00  0.00     0.273 C 
BRANCH  24  25
HETATM   25  C   UNL     1      23.780  47.495  49.489  1.00  0.00    -0.030 A 
HETATM   26  C   UNL     1      23.451  48.851  49.629  1.00  0.00     0.048 A 
HETATM   27  C   UNL     1      22.226  49.326  49.158  1.00  0.00     0.102 A 
HETATM   28  C   UNL     1      21.304  48.451  48.578  1.00  0.00     0.102 A 
HETATM   29  O   UNL     1      21.991  50.668  49.306  1.00  0.00    -0.346 OA
HETATM   30  O   UNL     1      20.072  48.841  48.130  1.00  0.00    -0.346 OA
HETATM   31  C   UNL     1      21.628  47.107  48.422  1.00  0.00     0.040 A 
HETATM   32  C   UNL     1      19.722  50.147  48.606  1.00  0.00     0.202 C 
HETATM   33  C   UNL     1      20.901  51.099  48.478  1.00  0.00     0.202 C 
HETATM   34  C   UNL     1      22.859  46.629  48.872  1.00  0.00     0.012 A 
ENDBRANCH  24  25
ENDBRANCH  20  24
ENDBRANCH   5  17
BRANCH   1  35
HETATM   35  C   UNL     1      28.090  41.552  51.233  1.00  0.00     0.140 C 
BRANCH  35  36
HETATM   36  C   UNL     1      26.931  40.625  50.836  1.00  0.00    -0.004 C 
HETATM   37  C   UNL     1      27.409  39.633  49.774  1.00  0.00     0.011 C 
HETATM   38  C   UNL     1      25.727  41.410  50.315  1.00  0.00     0.011 C 
ENDBRANCH  35  36
ENDBRANCH   1  35
TORSDOF 7
ENDMDL
MODEL 2
REMARK VINA RESULT:      -9.4      1.938      3.070
REMARK  7 active torsions:
REMARK  status: ('A' for Active; 'I' for Inactive)
REMARK    1  A    between atoms: C_2  and  C_3 
REMARK    2  A    between atoms: C_3  and  N_4 
REMARK    3  A    between atoms: C_8  and  C_27 
REMARK    4  A    between atoms: C_8  and  C_9 
REMARK    5  A    between atoms: N_12  and  C_14 
REMARK    6  A    between atoms: C_14  and  C_15 
REMARK    7  A    between atoms: C_27  and  C_28 
ROOT
HETATM    1  N   UNL     1      26.078  41.802  49.650  1.00  0.00    -0.268 N 
HETATM    2  C   UNL     1      26.249  41.247  50.877  1.00  0.00     0.326 C 
HETATM    3  O   UNL     1      26.431  40.077  51.161  1.00  0.00    -0.247 OA
HETATM    4  N   UNL     1      26.208  42.249  51.827  1.00  0.00    -0.324 N 
HETATM    5  C   UNL     1      26.182  43.572  51.234  1.00  0.00     0.123 C 
HETATM    6  C   UNL     1      25.992  43.160  49.753  1.00  0.00     0.257 C 
HETATM    7  O   UNL     1      25.846  43.961  48.838  1.00  0.00    -0.270 OA
HETATM    8  H   UNL     1      26.476  41.997  52.770  1.00  0.00     0.165 HD
ENDROOT
BRANCH   5   9
HETATM    9  C   UNL     1      27.547  44.294  51.344  1.00  0.00     0.080 C 
BRANCH   9  10
HETATM   10  C   UNL     1      28.408  43.969  52.545  1.00  0.00    -0.052 A 
HETATM   11  C   UNL     1      28.216  44.625  53.768  1.00  0.00     0.049 A 
HETATM   12  C   UNL     1      29.023  44.310  54.859  1.00  0.00     0.116 A 
HETATM   13  F   UNL     1      28.830  44.951  56.019  1.00  0.00    -0.206 F 
HETATM   14  C   UNL     1      30.023  43.353  54.762  1.00  0.00     0.042 A 
HETATM   15  C   UNL     1      30.224  42.695  53.551  1.00  0.00     0.003 A 
HETATM   16  C   UNL     1      29.423  43.002  52.448  1.00  0.00     0.007 A 
ENDBRANCH   9  10
ENDBRANCH   5   9
BRANCH   5  17
HETATM   17  C   UNL     1      24.918  44.376  51.708  1.00  0.00     0.027 C 
HETATM   18  C   UNL     1      23.741  44.428  50.717  1.00  0.00     0.035 C 
HETATM   19  C   UNL     1      23.846  45.485  49.623  1.00  0.00     0.235 C 
HETATM   20  N   UNL     1      24.157  46.842  50.199  1.00  0.00    -0.067 N 
HETATM   21  H   UNL     1      23.322  47.130  50.727  1.00  0.00     0.280 HD
HETATM   22  C   UNL     1      25.333  46.855  51.142  1.00  0.00     0.235 C 
HETATM   23  C   UNL     1      25.177  45.804  52.226  1.00  0.00     0.035 C 
BRANCH  20  24
HETATM   24  C   UNL     1      24.355  47.912  49.126  1.00  0.00     0.273 C 
BRANCH  24  25
HETATM   25  C   UNL     1      23.262  48.942  49.044  1.00  0.00    -0.030 A 
HETATM   26  C   UNL     1      21.918  48.582  49.215  1.00  0.00     0.048 A 
HETATM   27  C   UNL     1      20.915  49.548  49.106  1.00  0.00     0.102 A 
HETATM   28  C   UNL     1      21.238  50.869  48.789  1.00  0.00     0.102 A 
HETATM   29  O   UNL     1      19.630  49.122  49.315  1.00  0.00    -0.346 OA
HETATM   30  O   UNL     1      20.304  51.857  48.629  1.00  0.00    -0.346 OA
HETATM   31  C   UNL     1      22.570  51.239  48.632  1.00  0.00     0.040 A 
HETATM   32  C   UNL     1      18.980  51.322  48.509  1.00  0.00     0.202 C 
HETATM   33  C   UNL     1      18.746  50.231  49.541  1.00  0.00     0.202 C 
HETATM   34  C   UNL     1      23.579  50.283  48.760  1.00  0.00     0.012 A 
ENDBRANCH  24  25
ENDBRANCH  20  24
ENDBRANCH   5  17
BRANCH   1  35
HETATM   35  C   UNL     1      26.130  41.064  48.402  1.00  0.00     0.140 C 
BRANCH  35  36
HETATM   36  C   UNL     1      27.491  41.161  47.694  1.00  0.00    -0.004 C 
HETATM   37  C   UNL     1      27.336  40.756  46.227  1.00  0.00     0.011 C 
HETATM   38  C   UNL     1      28.546  40.284  48.370  1.00  0.00     0.011 C 
ENDBRANCH  35  36
ENDBRANCH   1  35
TORSDOF 7
ENDMDL
MODEL 3
REMARK VINA RESULT:      -9.4      1.758      2.778
REMARK  7 active torsions:
REMARK  status: ('A' for Active; 'I' for Inactive)
REMARK    1  A    between atoms: C_2  and  C_3 
REMARK    2  A    between atoms: C_3  and  N_4 
REMARK    3  A    between atoms: C_8  and  C_27 
REMARK    4  A    between atoms: C_8  and  C_9 
REMARK    5  A    between atoms: N_12  and  C_14 
REMARK    6  A    between atoms: C_14  and  C_15 
REMARK    7  A    between atoms: C_27  and  C_28 
ROOT
HETATM    1  N   UNL     1      25.586  42.374  50.895  1.00  0.00    -0.268 N 
HETATM    2  C   UNL     1      24.390  42.958  51.167  1.00  0.00     0.326 C 
HETATM    3  O   UNL     1      23.274  42.576  50.864  1.00  0.00    -0.247 OA
HETATM    4  N   UNL     1      24.614  44.107  51.900  1.00  0.00    -0.324 N 
HETATM    5  C   UNL     1      25.999  44.243  52.305  1.00  0.00     0.123 C 
HETATM    6  C   UNL     1      26.598  43.072  51.487  1.00  0.00     0.257 C 
HETATM    7  O   UNL     1      27.794  42.811  51.448  1.00  0.00    -0.270 OA
HETATM    8  H   UNL     1      23.802  44.557  52.304  1.00  0.00     0.165 HD
ENDROOT
BRANCH   5   9
HETATM    9  C   UNL     1      26.210  43.918  53.804  1.00  0.00     0.080 C 
BRANCH   9  10
HETATM   10  C   UNL     1      27.468  44.446  54.458  1.00  0.00    -0.052 A 
HETATM   11  C   UNL     1      28.640  43.679  54.488  1.00  0.00     0.049 A 
HETATM   12  C   UNL     1      29.787  44.184  55.097  1.00  0.00     0.116 A 
HETATM   13  F   UNL     1      30.896  43.435  55.122  1.00  0.00    -0.206 F 
HETATM   14  C   UNL     1      29.794  45.443  55.681  1.00  0.00     0.042 A 
HETATM   15  C   UNL     1      28.635  46.215  55.659  1.00  0.00     0.003 A 
HETATM   16  C   UNL     1      27.478  45.719  55.052  1.00  0.00     0.007 A 
ENDBRANCH   9  10
ENDBRANCH   5   9
BRANCH   5  17
HETATM   17  C   UNL     1      26.607  45.595  51.785  1.00  0.00     0.027 C 
HETATM   18  C   UNL     1      25.775  46.860  52.064  1.00  0.00     0.035 C 
HETATM   19  C   UNL     1      24.644  47.137  51.081  1.00  0.00     0.235 C 
HETATM   20  N   UNL     1      25.130  47.087  49.656  1.00  0.00    -0.067 N 
HETATM   21  H   UNL     1      25.752  47.898  49.535  1.00  0.00     0.280 HD
HETATM   22  C   UNL     1      25.912  45.844  49.315  1.00  0.00     0.235 C 
HETATM   23  C   UNL     1      27.041  45.620  50.306  1.00  0.00     0.035 C 
BRANCH  20  24
HETATM   24  C   UNL     1      24.007  47.275  48.637  1.00  0.00     0.273 C 
BRANCH  24  25
HETATM   25  C   UNL     1      23.055  48.400  48.937  1.00  0.00    -0.030 A 
HETATM   26  C   UNL     1      21.689  48.157  49.133  1.00  0.00     0.048 A 
HETATM   27  C   UNL     1      20.817  49.219  49.382  1.00  0.00     0.102 A 
HETATM   28  C   UNL     1      21.291  50.533  49.399  1.00  0.00     0.102 A 
HETATM   29  O   UNL     1      19.502  48.896  49.591  1.00  0.00    -0.346 OA
HETATM   30  O   UNL     1      20.487  51.622  49.599  1.00  0.00    -0.346 OA
HETATM   31  C   UNL     1      22.647  50.783  49.221  1.00  0.00     0.040 A 
HETATM   32  C   UNL     1      19.099  51.290  49.467  1.00  0.00     0.202 C 
HETATM   33  C   UNL     1      18.787  49.988  50.188  1.00  0.00     0.202 C 
HETATM   34  C   UNL     1      23.528  49.725  48.993  1.00  0.00     0.012 A 
ENDBRANCH  24  25
ENDBRANCH  20  24
ENDBRANCH   5  17
BRANCH   1  35
HETATM   35  C   UNL     1      25.742  41.111  50.198  1.00  0.00     0.140 C 
BRANCH  35  36
HETATM   36  C   UNL     1      26.137  41.275  48.723  1.00  0.00    -0.004 C 
HETATM   37  C   UNL     1      24.877  41.341  47.858  1.00  0.00     0.011 C 
HETATM   38  C   UNL     1      27.040  40.136  48.246  1.00  0.00     0.011 C 
ENDBRANCH  35  36
ENDBRANCH   1  35
TORSDOF 7
ENDMDL
MODEL 4
REMARK VINA RESULT:      -9.2      2.831      5.330
REMARK  7 active torsions:
REMARK  status: ('A' for Active; 'I' for Inactive)
REMARK    1  A    between atoms: C_2  and  C_3 
REMARK    2  A    between atoms: C_3  and  N_4 
REMARK    3  A    between atoms: C_8  and  C_27 
REMARK    4  A    between atoms: C_8  and  C_9 
REMARK    5  A    between atoms: N_12  and  C_14 
REMARK    6  A    between atoms: C_14  and  C_15 
REMARK    7  A    between atoms: C_27  and  C_28 
ROOT
HETATM    1  N   UNL     1      26.708  43.266  52.841  1.00  0.00    -0.268 N 
HETATM    2  C   UNL     1      25.827  44.289  52.988  1.00  0.00     0.326 C 
HETATM    3  O   UNL     1      25.683  45.034  53.940  1.00  0.00    -0.247 OA
HETATM    4  N   UNL     1      25.076  44.397  51.834  1.00  0.00    -0.324 N 
HETATM    5  C   UNL     1      25.564  43.535  50.775  1.00  0.00     0.123 C 
HETATM    6  C   UNL     1      26.609  42.732  51.589  1.00  0.00     0.257 C 
HETATM    7  O   UNL     1      27.264  41.806  51.128  1.00  0.00    -0.270 OA
HETATM    8  H   UNL     1      24.487  45.215  51.746  1.00  0.00     0.165 HD
ENDROOT
BRANCH   5   9
HETATM    9  C   UNL     1      26.329  44.319  49.681  1.00  0.00     0.080 C 
BRANCH   9  10
HETATM   10  C   UNL     1      26.097  45.813  49.608  1.00  0.00    -0.052 A 
HETATM   11  C   UNL     1      27.174  46.706  49.545  1.00  0.00     0.049 A 
HETATM   12  C   UNL     1      26.937  48.078  49.480  1.00  0.00     0.116 A 
HETATM   13  F   UNL     1      27.978  48.917  49.427  1.00  0.00    -0.206 F 
HETATM   14  C   UNL     1      25.645  48.584  49.477  1.00  0.00     0.042 A 
HETATM   15  C   UNL     1      24.565  47.705  49.541  1.00  0.00     0.003 A 
HETATM   16  C   UNL     1      24.790  46.328  49.608  1.00  0.00     0.007 A 
ENDBRANCH   9  10
ENDBRANCH   5   9
BRANCH   5  17
HETATM   17  C   UNL     1      24.437  42.557  50.282  1.00  0.00     0.027 C 
HETATM   18  C   UNL     1      24.552  42.075  48.824  1.00  0.00     0.035 C 
HETATM   19  C   UNL     1      24.006  43.031  47.769  1.00  0.00     0.235 C 
HETATM   20  N   UNL     1      22.608  43.480  48.105  1.00  0.00    -0.067 N 
HETATM   21  H   UNL     1      22.007  42.651  48.006  1.00  0.00     0.280 HD
HETATM   22  C   UNL     1      22.451  44.006  49.510  1.00  0.00     0.235 C 
HETATM   23  C   UNL     1      22.986  43.014  50.527  1.00  0.00     0.035 C 
BRANCH  20  24
HETATM   24  C   UNL     1      22.060  44.507  47.115  1.00  0.00     0.273 C 
BRANCH  24  25
HETATM   25  C   UNL     1      21.006  45.426  47.669  1.00  0.00    -0.030 A 
HETATM   26  C   UNL     1      21.344  46.687  48.179  1.00  0.00     0.048 A 
HETATM   27  C   UNL     1      20.356  47.514  48.715  1.00  0.00     0.102 A 
HETATM   28  C   UNL     1      19.030  47.079  48.783  1.00  0.00     0.102 A 
HETATM   29  O   UNL     1      20.763  48.742  49.167  1.00  0.00    -0.346 OA
HETATM   30  O   UNL     1      18.019  47.822  49.329  1.00  0.00    -0.346 OA
HETATM   31  C   UNL     1      18.682  45.836  48.266  1.00  0.00     0.040 A 
HETATM   32  C   UNL     1      18.522  48.925  50.092  1.00  0.00     0.202 C 
HETATM   33  C   UNL     1      19.646  49.627  49.346  1.00  0.00     0.202 C 
HETATM   34  C   UNL     1      19.661  45.012  47.709  1.00  0.00     0.012 A 
ENDBRANCH  24  25
ENDBRANCH  20  24
ENDBRANCH   5  17
BRANCH   1  35
HETATM   35  C   UNL     1      27.708  42.897  53.826  1.00  0.00     0.140 C 
BRANCH  35  36
HETATM   36  C   UNL     1      28.999  43.723  53.719  1.00  0.00    -0.004 C 
HETATM   37  C   UNL     1      30.163  42.808  53.333  1.00  0.00     0.011 C 
HETATM   38  C   UNL     1      29.318  44.451  55.025  1.00  0.00     0.011 C 
ENDBRANCH  35  36
ENDBRANCH   1  35
TORSDOF 7
ENDMDL
MODEL 5
REMARK VINA RESULT:      -9.1     12.467     16.164
REMARK  7 active torsions:
REMARK  status: ('A' for Active; 'I' for Inactive)
REMARK    1  A    between atoms: C_2  and  C_3 
REMARK    2  A    between atoms: C_3  and  N_4 
REMARK    3  A    between atoms: C_8  and  C_27 
REMARK    4  A    between atoms: C_8  and  C_9 
REMARK    5  A    between atoms: N_12  and  C_14 
REMARK    6  A    between atoms: C_14  and  C_15 
REMARK    7  A    between atoms: C_27  and  C_28 
ROOT
HETATM    1  N   UNL     1      28.758  52.326  39.666  1.00  0.00    -0.268 N 
HETATM    2  C   UNL     1      27.905  51.916  40.640  1.00  0.00     0.326 C 
HETATM    3  O   UNL     1      27.581  52.499  41.658  1.00  0.00    -0.247 OA
HETATM    4  N   UNL     1      27.403  50.676  40.296  1.00  0.00    -0.324 N 
HETATM    5  C   UNL     1      27.780  50.280  38.953  1.00  0.00     0.123 C 
HETATM    6  C   UNL     1      28.784  51.418  38.647  1.00  0.00     0.257 C 
HETATM    7  O   UNL     1      29.439  51.487  37.615  1.00  0.00    -0.270 OA
HETATM    8  H   UNL     1      26.637  50.322  40.856  1.00  0.00     0.165 HD
ENDROOT
BRANCH   5   9
HETATM    9  C   UNL     1      26.608  50.410  37.949  1.00  0.00     0.080 C 
BRANCH   9  10
HETATM   10  C   UNL     1      25.556  49.323  37.967  1.00  0.00    -0.052 A 
HETATM   11  C   UNL     1      24.570  49.292  38.961  1.00  0.00     0.049 A 
HETATM   12  C   UNL     1      23.611  48.281  38.958  1.00  0.00     0.116 A 
HETATM   13  F   UNL     1      22.680  48.262  39.919  1.00  0.00    -0.206 F 
HETATM   14  C   UNL     1      23.612  47.293  37.982  1.00  0.00     0.042 A 
HETATM   15  C   UNL     1      24.588  47.313  36.989  1.00  0.00     0.003 A 
HETATM   16  C   UNL     1      25.555  48.321  36.981  1.00  0.00     0.007 A 
ENDBRANCH   9  10
ENDBRANCH   5   9
BRANCH   5  17
HETATM   17  C   UNL     1      28.547  48.909  38.967  1.00  0.00     0.027 C 
HETATM   18  C   UNL     1      28.133  47.915  40.067  1.00  0.00     0.035 C 
HETATM   19  C   UNL     1      28.770  48.139  41.434  1.00  0.00     0.235 C 
HETATM   20  N   UNL     1      30.267  48.269  41.328  1.00  0.00    -0.067 N 
HETATM   21  H   UNL     1      30.618  47.342  41.053  1.00  0.00     0.280 HD
HETATM   22  C   UNL     1      30.727  49.267  40.295  1.00  0.00     0.235 C 
HETATM   23  C   UNL     1      30.087  48.993  38.946  1.00  0.00     0.035 C 
BRANCH  20  24
HETATM   24  C   UNL     1      30.933  48.582  42.667  1.00  0.00     0.273 C 
BRANCH  24  25
HETATM   25  C   UNL     1      32.086  49.544  42.596  1.00  0.00    -0.030 A 
HETATM   26  C   UNL     1      33.194  49.285  41.776  1.00  0.00     0.048 A 
HETATM   27  C   UNL     1      34.267  50.176  41.746  1.00  0.00     0.102 A 
HETATM   28  C   UNL     1      34.265  51.312  42.559  1.00  0.00     0.102 A 
HETATM   29  O   UNL     1      35.298  49.865  40.898  1.00  0.00    -0.346 OA
HETATM   30  O   UNL     1      35.300  52.207  42.608  1.00  0.00    -0.346 OA
HETATM   31  C   UNL     1      33.165  51.587  43.364  1.00  0.00     0.040 A 
HETATM   32  C   UNL     1      36.483  51.685  41.991  1.00  0.00     0.202 C 
HETATM   33  C   UNL     1      36.148  51.001  40.675  1.00  0.00     0.202 C 
HETATM   34  C   UNL     1      32.079  50.711  43.383  1.00  0.00     0.012 A 
ENDBRANCH  24  25
ENDBRANCH  20  24
ENDBRANCH   5  17
BRANCH   1  35
HETATM   35  C   UNL     1      29.428  53.613  39.651  1.00  0.00     0.140 C 
BRANCH  35  36
HETATM   36  C   UNL     1      30.639  53.679  40.594  1.00  0.00    -0.004 C 
HETATM   37  C   UNL     1      31.130  55.124  40.699  1.00  0.00     0.011 C 
HETATM   38  C   UNL     1      31.778  52.774  40.120  1.00  0.00     0.011 C 
ENDBRANCH  35  36
ENDBRANCH   1  35
TORSDOF 7
ENDMDL
MODEL 6
REMARK VINA RESULT:      -9.1      6.722     13.527
REMARK  7 active torsions:
REMARK  status: ('A' for Active; 'I' for Inactive)
REMARK    1  A    between atoms: C_2  and  C_3 
REMARK    2  A    between atoms: C_3  and  N_4 
REMARK    3  A    between atoms: C_8  and  C_27 
REMARK    4  A    between atoms: C_8  and  C_9 
REMARK    5  A    between atoms: N_12  and  C_14 
REMARK    6  A    between atoms: C_14  and  C_15 
REMARK    7  A    between atoms: C_27  and  C_28 
ROOT
HETATM    1  N   UNL     1      16.105  50.623  46.636  1.00  0.00    -0.268 N 
HETATM    2  C   UNL     1      16.605  51.878  46.496  1.00  0.00     0.326 C 
HETATM    3  O   UNL     1      16.821  52.498  45.470  1.00  0.00    -0.247 OA
HETATM    4  N   UNL     1      16.836  52.406  47.751  1.00  0.00    -0.324 N 
HETATM    5  C   UNL     1      16.317  51.561  48.809  1.00  0.00     0.123 C 
HETATM    6  C   UNL     1      15.933  50.327  47.956  1.00  0.00     0.257 C 
HETATM    7  O   UNL     1      15.494  49.285  48.427  1.00  0.00    -0.270 OA
HETATM    8  H   UNL     1      17.062  53.392  47.798  1.00  0.00     0.165 HD
ENDROOT
BRANCH   5   9
HETATM    9  C   UNL     1      15.014  52.124  49.427  1.00  0.00     0.080 C 
BRANCH   9  10
HETATM   10  C   UNL     1      14.808  53.622  49.369  1.00  0.00    -0.052 A 
HETATM   11  C   UNL     1      15.324  54.459  50.366  1.00  0.00     0.049 A 
HETATM   12  C   UNL     1      15.121  55.835  50.292  1.00  0.00     0.116 A 
HETATM   13  F   UNL     1      15.615  56.620  51.258  1.00  0.00    -0.206 F 
HETATM   14  C   UNL     1      14.412  56.402  49.242  1.00  0.00     0.042 A 
HETATM   15  C   UNL     1      13.893  55.579  48.245  1.00  0.00     0.003 A 
HETATM   16  C   UNL     1      14.089  54.197  48.308  1.00  0.00     0.007 A 
ENDBRANCH   9  10
ENDBRANCH   5   9
BRANCH   5  17
HETATM   17  C   UNL     1      17.456  51.156  49.813  1.00  0.00     0.027 C 
HETATM   18  C   UNL     1      18.650  52.124  49.905  1.00  0.00     0.035 C 
HETATM   19  C   UNL     1      19.716  51.960  48.828  1.00  0.00     0.235 C 
HETATM   20  N   UNL     1      20.162  50.526  48.709  1.00  0.00    -0.067 N 
HETATM   21  H   UNL     1      20.669  50.309  49.579  1.00  0.00     0.280 HD
HETATM   22  C   UNL     1      19.031  49.539  48.569  1.00  0.00     0.235 C 
HETATM   23  C   UNL     1      18.005  49.723  49.674  1.00  0.00     0.035 C 
BRANCH  20  24
HETATM   24  C   UNL     1      21.168  50.308  47.581  1.00  0.00     0.273 C 
BRANCH  24  25
HETATM   25  C   UNL     1      22.523  49.823  48.019  1.00  0.00    -0.030 A 
HETATM   26  C   UNL     1      22.658  48.665  48.796  1.00  0.00     0.048 A 
HETATM   27  C   UNL     1      23.922  48.247  49.218  1.00  0.00     0.102 A 
HETATM   28  C   UNL     1      25.056  48.999  48.903  1.00  0.00     0.102 A 
HETATM   29  O   UNL     1      23.972  47.090  49.950  1.00  0.00    -0.346 OA
HETATM   30  O   UNL     1      26.318  48.670  49.315  1.00  0.00    -0.346 OA
HETATM   31  C   UNL     1      24.934  50.143  48.120  1.00  0.00     0.040 A 
HETATM   32  C   UNL     1      26.299  47.675  50.346  1.00  0.00     0.202 C 
HETATM   33  C   UNL     1      25.310  46.571  50.009  1.00  0.00     0.202 C 
HETATM   34  C   UNL     1      23.676  50.554  47.677  1.00  0.00     0.012 A 
ENDBRANCH  24  25
ENDBRANCH  20  24
ENDBRANCH   5  17
BRANCH   1  35
HETATM   35  C   UNL     1      15.681  49.783  45.532  1.00  0.00     0.140 C 
BRANCH  35  36
HETATM   36  C   UNL     1      14.171  49.859  45.255  1.00  0.00    -0.004 C 
HETATM   37  C   UNL     1      13.616  48.450  45.043  1.00  0.00     0.011 C 
HETATM   38  C   UNL     1      13.860  50.733  44.039  1.00  0.00     0.011 C 
ENDBRANCH  35  36
ENDBRANCH   1  35
TORSDOF 7
ENDMDL
MODEL 7
REMARK VINA RESULT:      -9.0      8.148     11.641
REMARK  7 active torsions:
REMARK  status: ('A' for Active; 'I' for Inactive)
REMARK    1  A    between atoms: C_2  and  C_3 
REMARK    2  A    between atoms: C_3  and  N_4 
REMARK    3  A    between atoms: C_8  and  C_27 
REMARK    4  A    between atoms: C_8  and  C_9 
REMARK    5  A    between atoms: N_12  and  C_14 
REMARK    6  A    between atoms: C_14  and  C_15 
REMARK    7  A    between atoms: C_27  and  C_28 
ROOT
HETATM    1  N   UNL     1      17.599  48.165  47.121  1.00  0.00    -0.268 N 
HETATM    2  C   UNL     1      16.728  48.447  48.125  1.00  0.00     0.326 C 
HETATM    3  O   UNL     1      15.674  47.897  48.390  1.00  0.00    -0.247 OA
HETATM    4  N   UNL     1      17.232  49.495  48.868  1.00  0.00    -0.324 N 
HETATM    5  C   UNL     1      18.584  49.848  48.481  1.00  0.00     0.123 C 
HETATM    6  C   UNL     1      18.705  48.957  47.219  1.00  0.00     0.257 C 
HETATM    7  O   UNL     1      19.682  48.953  46.481  1.00  0.00    -0.270 OA
HETATM    8  H   UNL     1      16.761  49.707  49.739  1.00  0.00     0.165 HD
ENDROOT
BRANCH   5   9
HETATM    9  C   UNL     1      19.638  49.353  49.502  1.00  0.00     0.080 C 
BRANCH   9  10
HETATM   10  C   UNL     1      21.095  49.553  49.147  1.00  0.00    -0.052 A 
HETATM   11  C   UNL     1      21.981  48.469  49.106  1.00  0.00     0.049 A 
HETATM   12  C   UNL     1      23.319  48.676  48.777  1.00  0.00     0.116 A 
HETATM   13  F   UNL     1      24.153  47.630  48.750  1.00  0.00    -0.206 F 
HETATM   14  C   UNL     1      23.799  49.946  48.487  1.00  0.00     0.042 A 
HETATM   15  C   UNL     1      22.928  51.032  48.526  1.00  0.00     0.003 A 
HETATM   16  C   UNL     1      21.584  50.838  48.854  1.00  0.00     0.007 A 
ENDBRANCH   9  10
ENDBRANCH   5   9
BRANCH   5  17
HETATM   17  C   UNL     1      18.671  51.357  48.053  1.00  0.00     0.027 C 
HETATM   18  C   UNL     1      18.634  52.386  49.198  1.00  0.00     0.035 C 
HETATM   19  C   UNL     1      17.247  52.745  49.718  1.00  0.00     0.235 C 
HETATM   20  N   UNL     1      16.319  53.122  48.593  1.00  0.00    -0.067 N 
HETATM   21  H   UNL     1      16.669  54.014  48.217  1.00  0.00     0.280 HD
HETATM   22  C   UNL     1      16.282  52.123  47.464  1.00  0.00     0.235 C 
HETATM   23  C   UNL     1      17.680  51.812  46.963  1.00  0.00     0.035 C 
BRANCH  20  24
HETATM   24  C   UNL     1      14.894  53.406  49.067  1.00  0.00     0.273 C 
BRANCH  24  25
HETATM   25  C   UNL     1      14.778  54.432  50.160  1.00  0.00    -0.030 A 
HETATM   26  C   UNL     1      15.225  55.746  49.966  1.00  0.00     0.048 A 
HETATM   27  C   UNL     1      15.136  56.677  51.003  1.00  0.00     0.102 A 
HETATM   28  C   UNL     1      14.637  56.298  52.251  1.00  0.00     0.102 A 
HETATM   29  O   UNL     1      15.567  57.947  50.725  1.00  0.00    -0.346 OA
HETATM   30  O   UNL     1      14.557  57.147  53.322  1.00  0.00    -0.346 OA
HETATM   31  C   UNL     1      14.178  55.000  52.450  1.00  0.00     0.040 A 
HETATM   32  C   UNL     1      15.321  58.341  53.112  1.00  0.00     0.202 C 
HETATM   33  C   UNL     1      15.098  58.882  51.709  1.00  0.00     0.202 C 
HETATM   34  C   UNL     1      14.245  54.070  51.411  1.00  0.00     0.012 A 
ENDBRANCH  24  25
ENDBRANCH  20  24
ENDBRANCH   5  17
BRANCH   1  35
HETATM   35  C   UNL     1      17.435  47.077  46.175  1.00  0.00     0.140 C 
BRANCH  35  36
HETATM   36  C   UNL     1      17.632  45.689  46.805  1.00  0.00    -0.004 C 
HETATM   37  C   UNL     1      19.099  45.508  47.199  1.00  0.00     0.011 C 
HETATM   38  C   UNL     1      17.203  44.569  45.856  1.00  0.00     0.011 C 
ENDBRANCH  35  36
ENDBRANCH   1  35
TORSDOF 7
ENDMDL
MODEL 8
REMARK VINA RESULT:      -9.0     14.249     17.076
REMARK  7 active torsions:
REMARK  status: ('A' for Active; 'I' for Inactive)
REMARK    1  A    between atoms: C_2  and  C_3 
REMARK    2  A    between atoms: C_3  and  N_4 
REMARK    3  A    between atoms: C_8  and  C_27 
REMARK    4  A    between atoms: C_8  and  C_9 
REMARK    5  A    between atoms: N_12  and  C_14 
REMARK    6  A    between atoms: C_14  and  C_15 
REMARK    7  A    between atoms: C_27  and  C_28 
ROOT
HETATM    1  N   UNL     1      31.645  49.753  39.100  1.00  0.00    -0.268 N 
HETATM    2  C   UNL     1      32.062  50.806  38.349  1.00  0.00     0.326 C 
HETATM    3  O   UNL     1      31.658  51.165  37.258  1.00  0.00    -0.247 OA
HETATM    4  N   UNL     1      33.058  51.473  39.035  1.00  0.00    -0.324 N 
HETATM    5  C   UNL     1      33.225  50.977  40.388  1.00  0.00     0.123 C 
HETATM    6  C   UNL     1      32.292  49.743  40.301  1.00  0.00     0.257 C 
HETATM    7  O   UNL     1      32.144  48.938  41.212  1.00  0.00    -0.270 OA
HETATM    8  H   UNL     1      33.352  52.366  38.661  1.00  0.00     0.165 HD
ENDROOT
BRANCH   5   9
HETATM    9  C   UNL     1      32.628  51.938  41.445  1.00  0.00     0.080 C 
BRANCH   9  10
HETATM   10  C   UNL     1      31.186  52.358  41.265  1.00  0.00    -0.052 A 
HETATM   11  C   UNL     1      30.848  53.437  40.438  1.00  0.00     0.049 A 
HETATM   12  C   UNL     1      29.514  53.807  40.288  1.00  0.00     0.116 A 
HETATM   13  F   UNL     1      29.209  54.845  39.499  1.00  0.00    -0.206 F 
HETATM   14  C   UNL     1      28.500  53.125  40.947  1.00  0.00     0.042 A 
HETATM   15  C   UNL     1      28.823  52.051  41.773  1.00  0.00     0.003 A 
HETATM   16  C   UNL     1      30.158  51.670  41.933  1.00  0.00     0.007 A 
ENDBRANCH   9  10
ENDBRANCH   5   9
BRANCH   5  17
HETATM   17  C   UNL     1      34.698  50.489  40.630  1.00  0.00     0.027 C 
HETATM   18  C   UNL     1      35.118  50.315  42.101  1.00  0.00     0.035 C 
HETATM   19  C   UNL     1      35.556  51.587  42.818  1.00  0.00     0.235 C 
HETATM   20  N   UNL     1      36.593  52.336  42.022  1.00  0.00    -0.067 N 
HETATM   21  H   UNL     1      37.442  51.754  42.034  1.00  0.00     0.280 HD
HETATM   22  C   UNL     1      36.211  52.575  40.583  1.00  0.00     0.235 C 
HETATM   23  C   UNL     1      35.804  51.280  39.904  1.00  0.00     0.035 C 
BRANCH  20  24
HETATM   24  C   UNL     1      36.995  53.661  42.668  1.00  0.00     0.273 C 
BRANCH  24  25
HETATM   25  C   UNL     1      37.944  53.544  43.828  1.00  0.00    -0.030 A 
HETATM   26  C   UNL     1      37.580  53.990  45.106  1.00  0.00     0.048 A 
HETATM   27  C   UNL     1      38.486  53.899  46.164  1.00  0.00     0.102 A 
HETATM   28  C   UNL     1      39.773  53.399  45.951  1.00  0.00     0.102 A 
HETATM   29  O   UNL     1      38.044  54.329  47.388  1.00  0.00    -0.346 OA
HETATM   30  O   UNL     1      40.723  53.318  46.933  1.00  0.00    -0.346 OA
HETATM   31  C   UNL     1      40.139  52.941  44.690  1.00  0.00     0.040 A 
HETATM   32  C   UNL     1      40.359  54.081  48.090  1.00  0.00     0.202 C 
HETATM   33  C   UNL     1      38.897  53.858  48.443  1.00  0.00     0.202 C 
HETATM   34  C   UNL     1      39.231  53.009  43.633  1.00  0.00     0.012 A 
ENDBRANCH  24  25
ENDBRANCH  20  24
ENDBRANCH   5  17
BRANCH   1  35
HETATM   35  C   UNL     1      30.562  48.862  38.730  1.00  0.00     0.140 C 
BRANCH  35  36
HETATM   36  C   UNL     1      29.215  49.247  39.363  1.00  0.00    -0.004 C 
HETATM   37  C   UNL     1      28.386  47.985  39.613  1.00  0.00     0.011 C 
HETATM   38  C   UNL     1      28.432  50.221  38.482  1.00  0.00     0.011 C 
ENDBRANCH  35  36
ENDBRANCH   1  35
TORSDOF 7
ENDMDL
MODEL 9
REMARK VINA RESULT:      -9.0     12.185     14.404
REMARK  7 active torsions:
REMARK  status: ('A' for Active; 'I' for Inactive)
REMARK    1  A    between atoms: C_2  and  C_3 
REMARK    2  A    between atoms: C_3  and  N_4 
REMARK    3  A    between atoms: C_8  and  C_27 
REMARK    4  A    between atoms: C_8  and  C_9 
REMARK    5  A    between atoms: N_12  and  C_14 
REMARK    6  A    between atoms: C_14  and  C_15 
REMARK    7  A    between atoms: C_27  and  C_28 
ROOT
HETATM    1  N   UNL     1      27.151  45.735  39.034  1.00  0.00    -0.268 N 
HETATM    2  C   UNL     1      27.300  45.983  40.361  1.00  0.00     0.326 C 
HETATM    3  O   UNL     1      27.232  45.199  41.290  1.00  0.00    -0.247 OA
HETATM    4  N   UNL     1      27.576  47.325  40.534  1.00  0.00    -0.324 N 
HETATM    5  C   UNL     1      27.802  48.009  39.276  1.00  0.00     0.123 C 
HETATM    6  C   UNL     1      27.389  46.868  38.312  1.00  0.00     0.257 C 
HETATM    7  O   UNL     1      27.349  46.988  37.094  1.00  0.00    -0.270 OA
HETATM    8  H   UNL     1      27.863  47.617  41.460  1.00  0.00     0.165 HD
ENDROOT
BRANCH   5   9
HETATM    9  C   UNL     1      29.301  48.307  39.028  1.00  0.00     0.080 C 
BRANCH   9  10
HETATM   10  C   UNL     1      30.205  48.370  40.239  1.00  0.00    -0.052 A 
HETATM   11  C   UNL     1      31.511  47.864  40.190  1.00  0.00     0.049 A 
HETATM   12  C   UNL     1      32.325  47.932  41.318  1.00  0.00     0.116 A 
HETATM   13  F   UNL     1      33.568  47.437  41.256  1.00  0.00    -0.206 F 
HETATM   14  C   UNL     1      31.868  48.494  42.502  1.00  0.00     0.042 A 
HETATM   15  C   UNL     1      30.572  49.000  42.564  1.00  0.00     0.003 A 
HETATM   16  C   UNL     1      29.744  48.937  41.439  1.00  0.00     0.007 A 
ENDBRANCH   9  10
ENDBRANCH   5   9
BRANCH   5  17
HETATM   17  C   UNL     1      26.806  49.211  39.103  1.00  0.00     0.027 C 
HETATM   18  C   UNL     1      27.110  50.177  37.943  1.00  0.00     0.035 C 
HETATM   19  C   UNL     1      28.154  51.249  38.232  1.00  0.00     0.235 C 
HETATM   20  N   UNL     1      27.846  51.985  39.510  1.00  0.00    -0.067 N 
HETATM   21  H   UNL     1      26.991  52.529  39.331  1.00  0.00     0.280 HD
HETATM   22  C   UNL     1      27.587  51.084  40.692  1.00  0.00     0.235 C 
HETATM   23  C   UNL     1      26.526  50.048  40.367  1.00  0.00     0.035 C 
BRANCH  20  24
HETATM   24  C   UNL     1      28.918  53.010  39.879  1.00  0.00     0.273 C 
BRANCH  24  25
HETATM   25  C   UNL     1      30.294  52.443  40.095  1.00  0.00    -0.030 A 
HETATM   26  C   UNL     1      30.932  52.552  41.339  1.00  0.00     0.048 A 
HETATM   27  C   UNL     1      32.222  52.045  41.511  1.00  0.00     0.102 A 
HETATM   28  C   UNL     1      32.901  51.462  40.439  1.00  0.00     0.102 A 
HETATM   29  O   UNL     1      32.764  52.165  42.764  1.00  0.00    -0.346 OA
HETATM   30  O   UNL     1      34.179  50.981  40.528  1.00  0.00    -0.346 OA
HETATM   31  C   UNL     1      32.271  51.336  39.205  1.00  0.00     0.040 A 
HETATM   32  C   UNL     1      34.833  51.425  41.722  1.00  0.00     0.202 C 
HETATM   33  C   UNL     1      33.904  51.306  42.920  1.00  0.00     0.202 C 
HETATM   34  C   UNL     1      30.974  51.821  39.032  1.00  0.00     0.012 A 
ENDBRANCH  24  25
ENDBRANCH  20  24
ENDBRANCH   5  17
BRANCH   1  35
HETATM   35  C   UNL     1      26.918  44.420  38.467  1.00  0.00     0.140 C 
BRANCH  35  36
HETATM   36  C   UNL     1      28.213  43.663  38.136  1.00  0.00    -0.004 C 
HETATM   37  C   UNL     1      28.251  43.339  36.641  1.00  0.00     0.011 C 
HETATM   38  C   UNL     1      28.344  42.377  38.953  1.00  0.00     0.011 C 
ENDBRANCH  35  36
ENDBRANCH   1  35
TORSDOF 7
ENDMDL
MODEL 10
REMARK VINA RESULT:      -8.9      4.467     10.399
REMARK  7 active torsions:
REMARK  status: ('A' for Active; 'I' for Inactive)
REMARK    1  A    between atoms: C_2  and  C_3 
REMARK    2  A    between atoms: C_3  and  N_4 
REMARK    3  A    between atoms: C_8  and  C_27 
REMARK    4  A    between atoms: C_8  and  C_9 
REMARK    5  A    between atoms: N_12  and  C_14 
REMARK    6  A    between atoms: C_14  and  C_15 
REMARK    7  A    between atoms: C_27  and  C_28 
ROOT
HETATM    1  N   UNL     1      17.712  49.671  47.646  1.00  0.00    -0.268 N 
HETATM    2  C   UNL     1      18.728  49.910  46.778  1.00  0.00     0.326 C 
HETATM    3  O   UNL     1      18.881  50.862  46.034  1.00  0.00    -0.247 OA
HETATM    4  N   UNL     1      19.639  48.876  46.864  1.00  0.00    -0.324 N 
HETATM    5  C   UNL     1      19.341  47.968  47.955  1.00  0.00     0.123 C 
HETATM    6  C   UNL     1      17.958  48.535  48.360  1.00  0.00     0.257 C 
HETATM    7  O   UNL     1      17.250  48.043  49.230  1.00  0.00    -0.270 OA
HETATM    8  H   UNL     1      20.522  49.002  46.385  1.00  0.00     0.165 HD
ENDROOT
BRANCH   5   9
HETATM    9  C   UNL     1      20.294  48.161  49.160  1.00  0.00     0.080 C 
BRANCH   9  10
HETATM   10  C   UNL     1      21.485  49.074  48.963  1.00  0.00    -0.052 A 
HETATM   11  C   UNL     1      22.755  48.550  48.691  1.00  0.00     0.049 A 
HETATM   12  C   UNL     1      23.838  49.410  48.514  1.00  0.00     0.116 A 
HETATM   13  F   UNL     1      25.046  48.892  48.262  1.00  0.00    -0.206 F 
HETATM   14  C   UNL     1      23.685  50.786  48.604  1.00  0.00     0.042 A 
HETATM   15  C   UNL     1      22.426  51.319  48.876  1.00  0.00     0.003 A 
HETATM   16  C   UNL     1      21.333  50.468  49.055  1.00  0.00     0.007 A 
ENDBRANCH   9  10
ENDBRANCH   5   9
BRANCH   5  17
HETATM   17  C   UNL     1      19.159  46.499  47.430  1.00  0.00     0.027 C 
HETATM   18  C   UNL     1      19.455  45.378  48.443  1.00  0.00     0.035 C 
HETATM   19  C   UNL     1      20.924  45.003  48.603  1.00  0.00     0.235 C 
HETATM   20  N   UNL     1      21.571  44.740  47.268  1.00  0.00    -0.067 N 
HETATM   21  H   UNL     1      21.145  43.876  46.906  1.00  0.00     0.280 HD
HETATM   22  C   UNL     1      21.351  45.831  46.251  1.00  0.00     0.235 C 
HETATM   23  C   UNL     1      19.875  46.156  46.109  1.00  0.00     0.035 C 
BRANCH  20  24
HETATM   24  C   UNL     1      23.066  44.445  47.381  1.00  0.00     0.273 C 
BRANCH  24  25
HETATM   25  C   UNL     1      23.619  44.479  48.779  1.00  0.00    -0.030 A 
HETATM   26  C   UNL     1      24.191  45.648  49.300  1.00  0.00     0.048 A 
HETATM   27  C   UNL     1      24.726  45.651  50.590  1.00  0.00     0.102 A 
HETATM   28  C   UNL     1      24.729  44.483  51.356  1.00  0.00     0.102 A 
HETATM   29  O   UNL     1      25.240  46.840  51.037  1.00  0.00    -0.346 OA
HETATM   30  O   UNL     1      25.270  44.405  52.611  1.00  0.00    -0.346 OA
HETATM   31  C   UNL     1      24.151  43.322  50.854  1.00  0.00     0.040 A 
HETATM   32  C   UNL     1      26.094  45.540  52.906  1.00  0.00     0.202 C 
HETATM   33  C   UNL     1      25.416  46.827  52.462  1.00  0.00     0.202 C 
HETATM   34  C   UNL     1      23.596  43.318  49.573  1.00  0.00     0.012 A 
ENDBRANCH  24  25
ENDBRANCH  20  24
ENDBRANCH   5  17
BRANCH   1  35
HETATM   35  C   UNL     1      16.603  50.577  47.879  1.00  0.00     0.140 C 
BRANCH  35  36
HETATM   36  C   UNL     1      16.741  51.385  49.179  1.00  0.00    -0.004 C 
HETATM   37  C   UNL     1      15.416  52.084  49.492  1.00  0.00     0.011 C 
HETATM   38  C   UNL     1      17.867  52.415  49.092  1.00  0.00     0.011 C 
ENDBRANCH  35  36
ENDBRANCH   1  35
TORSDOF 7
ENDMDL
