MODEL 1
REMARK VINA RESULT:      -8.7      0.000      0.000
REMARK  6 active torsions:
REMARK  status: ('A' for Active; 'I' for Inactive)
REMARK    1  A    between atoms: C_3  and  C_4 
REMARK    2  A    between atoms: C_9  and  C_10 
REMARK    3  A    between atoms: C_10  and  N_11 
REMARK    4  A    between atoms: C_13  and  C_14 
REMARK    5  A    between atoms: C_15  and  O_16 
REMARK    6  A    between atoms: C_20  and  C_21 
ROOT
HETATM    1  N   UNL     1      27.508  43.630  52.592  1.00  0.00    -0.394 N 
HETATM    2  H   UNL     1      26.777  43.268  53.215  1.00  0.00     0.159 HD
HETATM    3  C   UNL     1      27.159  44.351  51.586  1.00  0.00     0.101 C 
ENDROOT
BRANCH   1   4
HETATM    4  C   UNL     1      28.887  43.300  53.009  1.00  0.00     0.157 C 
BRANCH   4   5
HETATM    5  C   UNL     1      29.233  44.033  54.274  1.00  0.00    -0.040 A 
HETATM    6  C   UNL     1      30.204  43.525  55.153  1.00  0.00     0.025 A 
HETATM    7  C   UNL     1      30.563  44.220  56.321  1.00  0.00     0.048 A 
HETATM    8  C   UNL     1      29.934  45.439  56.604  1.00  0.00     0.016 A 
HETATM    9  C   UNL     1      28.968  45.952  55.740  1.00  0.00     0.001 A 
HETATM   10  C   UNL     1      28.619  45.257  54.581  1.00  0.00     0.009 A 
BRANCH   7  11
HETATM   11  C   UNL     1      31.605  43.640  57.254  1.00  0.00     0.417 C 
HETATM   12  F   UNL     1      32.830  43.489  56.688  1.00  0.00    -0.166 F 
HETATM   13  F   UNL     1      31.780  44.408  58.362  1.00  0.00    -0.166 F 
HETATM   14  F   UNL     1      31.237  42.408  57.706  1.00  0.00    -0.166 F 
ENDBRANCH   7  11
ENDBRANCH   4   5
ENDBRANCH   1   4
BRANCH   3  15
HETATM   15  C   UNL     1      25.820  44.703  51.164  1.00  0.00     0.066 A 
HETATM   16  C   UNL     1      24.659  43.903  51.242  1.00  0.00     0.195 A 
HETATM   17  N   UNL     1      23.569  44.506  50.804  1.00  0.00    -0.148 NA
HETATM   18  N   UNL     1      23.993  45.712  50.422  1.00  0.00    -0.270 N 
HETATM   19  H   UNL     1      23.307  46.361  50.039  1.00  0.00     0.189 HD
HETATM   20  C   UNL     1      25.338  45.891  50.617  1.00  0.00     0.150 A 
BRANCH  16  21
HETATM   21  O   UNL     1      24.475  42.656  51.678  1.00  0.00    -0.343 OA
HETATM   22  H   UNL     1      23.702  42.218  51.302  1.00  0.00     0.219 HD
ENDBRANCH  16  21
BRANCH  20  23
HETATM   23  C   UNL     1      25.925  47.194  50.265  1.00  0.00     0.435 C 
HETATM   24  F   UNL     1      26.928  47.012  49.361  1.00  0.00    -0.165 F 
HETATM   25  F   UNL     1      25.029  48.034  49.713  1.00  0.00    -0.165 F 
HETATM   26  F   UNL     1      26.475  47.797  51.338  1.00  0.00    -0.165 F 
ENDBRANCH  20  23
ENDBRANCH   3  15
TORSDOF 6
ENDMDL
MODEL 2
REMARK VINA RESULT:      -8.5      3.309      4.478
REMARK  6 active torsions:
REMARK  status: ('A' for Active; 'I' for Inactive)
REMARK    1  A    between atoms: C_3  and  C_4 
REMARK    2  A    between atoms: C_9  and  C_10 
REMARK    3  A    between atoms: C_10  and  N_11 
REMARK    4  A    between atoms: C_13  and  C_14 
REMARK    5  A    between atoms: C_15  and  O_16 
REMARK    6  A    between atoms: C_20  and  C_21 
ROOT
HETATM    1  N   UNL     1      26.117  43.355  52.975  1.00  0.00    -0.394 N 
HETATM    2  H   UNL     1      26.045  42.584  53.650  1.00  0.00     0.159 HD
HETATM    3  C   UNL     1      26.330  43.072  51.739  1.00  0.00     0.101 C 
ENDROOT
BRANCH   1   4
HETATM    4  C   UNL     1      25.896  44.697  53.551  1.00  0.00     0.157 C 
BRANCH   4   5
HETATM    5  C   UNL     1      27.104  45.128  54.334  1.00  0.00    -0.040 A 
HETATM    6  C   UNL     1      28.207  44.269  54.476  1.00  0.00     0.025 A 
HETATM    7  C   UNL     1      29.358  44.674  55.175  1.00  0.00     0.048 A 
HETATM    8  C   UNL     1      29.394  45.957  55.737  1.00  0.00     0.016 A 
HETATM    9  C   UNL     1      28.304  46.816  55.603  1.00  0.00     0.001 A 
HETATM   10  C   UNL     1      27.166  46.408  54.906  1.00  0.00     0.009 A 
BRANCH   7  11
HETATM   11  C   UNL     1      30.526  43.722  55.321  1.00  0.00     0.417 C 
HETATM   12  F   UNL     1      30.262  42.638  56.094  1.00  0.00    -0.166 F 
HETATM   13  F   UNL     1      30.949  43.249  54.119  1.00  0.00    -0.166 F 
HETATM   14  F   UNL     1      31.604  44.339  55.881  1.00  0.00    -0.166 F 
ENDBRANCH   7  11
ENDBRANCH   4   5
ENDBRANCH   1   4
BRANCH   3  15
HETATM   15  C   UNL     1      26.535  41.768  51.145  1.00  0.00     0.066 A 
HETATM   16  C   UNL     1      25.775  41.166  50.118  1.00  0.00     0.195 A 
HETATM   17  N   UNL     1      26.220  39.975  49.759  1.00  0.00    -0.148 NA
HETATM   18  N   UNL     1      27.275  39.768  50.549  1.00  0.00    -0.270 N 
HETATM   19  H   UNL     1      27.783  38.890  50.447  1.00  0.00     0.189 HD
HETATM   20  C   UNL     1      27.516  40.813  51.402  1.00  0.00     0.150 A 
BRANCH  16  21
HETATM   21  O   UNL     1      24.699  41.588  49.454  1.00  0.00    -0.343 OA
HETATM   22  H   UNL     1      24.757  41.477  48.497  1.00  0.00     0.219 HD
ENDBRANCH  16  21
BRANCH  20  23
HETATM   23  C   UNL     1      28.675  40.721  52.304  1.00  0.00     0.435 C 
HETATM   24  F   UNL     1      28.243  40.641  53.594  1.00  0.00    -0.165 F 
HETATM   25  F   UNL     1      29.435  39.635  52.064  1.00  0.00    -0.165 F 
HETATM   26  F   UNL     1      29.456  41.817  52.224  1.00  0.00    -0.165 F 
ENDBRANCH  20  23
ENDBRANCH   3  15
TORSDOF 6
ENDMDL
MODEL 3
REMARK VINA RESULT:      -8.2      2.275      3.010
REMARK  6 active torsions:
REMARK  status: ('A' for Active; 'I' for Inactive)
REMARK    1  A    between atoms: C_3  and  C_4 
REMARK    2  A    between atoms: C_9  and  C_10 
REMARK    3  A    between atoms: C_10  and  N_11 
REMARK    4  A    between atoms: C_13  and  C_14 
REMARK    5  A    between atoms: C_15  and  O_16 
REMARK    6  A    between atoms: C_20  and  C_21 
ROOT
HETATM    1  N   UNL     1      26.521  46.057  53.426  1.00  0.00    -0.394 N 
HETATM    2  H   UNL     1      26.361  45.042  53.417  1.00  0.00     0.159 HD
HETATM    3  C   UNL     1      26.157  46.746  52.404  1.00  0.00     0.101 C 
ENDROOT
BRANCH   1   4
HETATM    4  C   UNL     1      27.106  46.573  54.681  1.00  0.00     0.157 C 
BRANCH   4   5
HETATM    5  C   UNL     1      28.274  45.722  55.094  1.00  0.00    -0.040 A 
HETATM    6  C   UNL     1      28.916  45.938  56.325  1.00  0.00     0.025 A 
HETATM    7  C   UNL     1      29.986  45.124  56.739  1.00  0.00     0.048 A 
HETATM    8  C   UNL     1      30.411  44.085  55.902  1.00  0.00     0.016 A 
HETATM    9  C   UNL     1      29.781  43.863  54.678  1.00  0.00     0.001 A 
HETATM   10  C   UNL     1      28.719  44.673  54.275  1.00  0.00     0.009 A 
BRANCH   7  11
HETATM   11  C   UNL     1      30.665  45.390  58.066  1.00  0.00     0.417 C 
HETATM   12  F   UNL     1      31.068  46.676  58.233  1.00  0.00    -0.166 F 
HETATM   13  F   UNL     1      29.856  45.096  59.119  1.00  0.00    -0.166 F 
HETATM   14  F   UNL     1      31.775  44.616  58.220  1.00  0.00    -0.166 F 
ENDBRANCH   7  11
ENDBRANCH   4   5
ENDBRANCH   1   4
BRANCH   3  15
HETATM   15  C   UNL     1      25.569  46.270  51.171  1.00  0.00     0.066 A 
HETATM   16  C   UNL     1      24.558  46.894  50.406  1.00  0.00     0.195 A 
HETATM   17  N   UNL     1      24.241  46.234  49.307  1.00  0.00    -0.148 NA
HETATM   18  N   UNL     1      25.032  45.160  49.330  1.00  0.00    -0.270 N 
HETATM   19  H   UNL     1      24.956  44.493  48.563  1.00  0.00     0.189 HD
HETATM   20  C   UNL     1      25.855  45.127  50.426  1.00  0.00     0.150 A 
BRANCH  16  21
HETATM   21  O   UNL     1      23.876  48.023  50.601  1.00  0.00    -0.343 OA
HETATM   22  H   UNL     1      24.326  48.815  50.284  1.00  0.00     0.219 HD
ENDBRANCH  16  21
BRANCH  20  23
HETATM   23  C   UNL     1      26.801  44.007  50.552  1.00  0.00     0.435 C 
HETATM   24  F   UNL     1      26.381  43.164  51.536  1.00  0.00    -0.165 F 
HETATM   25  F   UNL     1      26.906  43.287  49.418  1.00  0.00    -0.165 F 
HETATM   26  F   UNL     1      28.031  44.432  50.905  1.00  0.00    -0.165 F 
ENDBRANCH  20  23
ENDBRANCH   3  15
TORSDOF 6
ENDMDL
MODEL 4
REMARK VINA RESULT:      -8.2      2.719      3.547
REMARK  6 active torsions:
REMARK  status: ('A' for Active; 'I' for Inactive)
REMARK    1  A    between atoms: C_3  and  C_4 
REMARK    2  A    between atoms: C_9  and  C_10 
REMARK    3  A    between atoms: C_10  and  N_11 
REMARK    4  A    between atoms: C_13  and  C_14 
REMARK    5  A    between atoms: C_15  and  O_16 
REMARK    6  A    between atoms: C_20  and  C_21 
ROOT
HETATM    1  N   UNL     1      26.133  46.383  53.394  1.00  0.00    -0.394 N 
HETATM    2  H   UNL     1      25.614  45.503  53.498  1.00  0.00     0.159 HD
HETATM    3  C   UNL     1      26.107  46.983  52.257  1.00  0.00     0.101 C 
ENDROOT
BRANCH   1   4
HETATM    4  C   UNL     1      26.792  46.855  54.630  1.00  0.00     0.157 C 
BRANCH   4   5
HETATM    5  C   UNL     1      27.957  45.966  54.964  1.00  0.00    -0.040 A 
HETATM    6  C   UNL     1      28.256  44.848  54.167  1.00  0.00     0.025 A 
HETATM    7  C   UNL     1      29.365  44.031  54.447  1.00  0.00     0.048 A 
HETATM    8  C   UNL     1      30.179  44.345  55.543  1.00  0.00     0.016 A 
HETATM    9  C   UNL     1      29.891  45.452  56.341  1.00  0.00     0.001 A 
HETATM   10  C   UNL     1      28.789  46.259  56.055  1.00  0.00     0.009 A 
BRANCH   7  11
HETATM   11  C   UNL     1      29.653  42.826  53.577  1.00  0.00     0.417 C 
HETATM   12  F   UNL     1      30.955  42.440  53.582  1.00  0.00    -0.166 F 
HETATM   13  F   UNL     1      28.925  41.742  53.951  1.00  0.00    -0.166 F 
HETATM   14  F   UNL     1      29.329  43.064  52.275  1.00  0.00    -0.166 F 
ENDBRANCH   7  11
ENDBRANCH   4   5
ENDBRANCH   1   4
BRANCH   3  15
HETATM   15  C   UNL     1      25.458  46.553  51.038  1.00  0.00     0.066 A 
HETATM   16  C   UNL     1      24.473  47.247  50.300  1.00  0.00     0.195 A 
HETATM   17  N   UNL     1      24.086  46.615  49.207  1.00  0.00    -0.148 NA
HETATM   18  N   UNL     1      24.803  45.491  49.208  1.00  0.00    -0.270 N 
HETATM   19  H   UNL     1      24.664  44.834  48.440  1.00  0.00     0.189 HD
HETATM   20  C   UNL     1      25.649  45.397  50.282  1.00  0.00     0.150 A 
BRANCH  16  21
HETATM   21  O   UNL     1      23.873  48.418  50.516  1.00  0.00    -0.343 OA
HETATM   22  H   UNL     1      23.680  48.915  49.711  1.00  0.00     0.219 HD
ENDBRANCH  16  21
BRANCH  20  23
HETATM   23  C   UNL     1      26.521  44.216  50.381  1.00  0.00     0.435 C 
HETATM   24  F   UNL     1      27.824  44.614  50.429  1.00  0.00    -0.165 F 
HETATM   25  F   UNL     1      26.280  43.485  51.486  1.00  0.00    -0.165 F 
HETATM   26  F   UNL     1      26.399  43.416  49.303  1.00  0.00    -0.165 F 
ENDBRANCH  20  23
ENDBRANCH   3  15
TORSDOF 6
ENDMDL
MODEL 5
REMARK VINA RESULT:      -8.2      3.347      4.504
REMARK  6 active torsions:
REMARK  status: ('A' for Active; 'I' for Inactive)
REMARK    1  A    between atoms: C_3  and  C_4 
REMARK    2  A    between atoms: C_9  and  C_10 
REMARK    3  A    between atoms: C_10  and  N_11 
REMARK    4  A    between atoms: C_13  and  C_14 
REMARK    5  A    between atoms: C_15  and  O_16 
REMARK    6  A    between atoms: C_20  and  C_21 
ROOT
HETATM    1  N   UNL     1      25.840  46.837  50.946  1.00  0.00    -0.394 N 
HETATM    2  H   UNL     1      26.841  47.052  50.860  1.00  0.00     0.159 HD
HETATM    3  C   UNL     1      25.007  47.489  50.215  1.00  0.00     0.101 C 
ENDROOT
BRANCH   1   4
HETATM    4  C   UNL     1      25.528  45.737  51.881  1.00  0.00     0.157 C 
BRANCH   4   5
HETATM    5  C   UNL     1      26.596  45.636  52.933  1.00  0.00    -0.040 A 
HETATM    6  C   UNL     1      27.522  44.580  52.912  1.00  0.00     0.025 A 
HETATM    7  C   UNL     1      28.549  44.494  53.870  1.00  0.00     0.048 A 
HETATM    8  C   UNL     1      28.639  45.483  54.857  1.00  0.00     0.016 A 
HETATM    9  C   UNL     1      27.724  46.535  54.887  1.00  0.00     0.001 A 
HETATM   10  C   UNL     1      26.709  46.614  53.933  1.00  0.00     0.009 A 
BRANCH   7  11
HETATM   11  C   UNL     1      29.525  43.338  53.827  1.00  0.00     0.417 C 
HETATM   12  F   UNL     1      28.966  42.133  54.109  1.00  0.00    -0.166 F 
HETATM   13  F   UNL     1      30.117  43.216  52.610  1.00  0.00    -0.166 F 
HETATM   14  F   UNL     1      30.538  43.509  54.722  1.00  0.00    -0.166 F 
ENDBRANCH   7  11
ENDBRANCH   4   5
ENDBRANCH   1   4
BRANCH   3  15
HETATM   15  C   UNL     1      25.286  48.558  49.281  1.00  0.00     0.066 A 
HETATM   16  C   UNL     1      26.525  48.865  48.676  1.00  0.00     0.195 A 
HETATM   17  N   UNL     1      26.467  49.886  47.840  1.00  0.00    -0.148 NA
HETATM   18  N   UNL     1      25.192  50.275  47.885  1.00  0.00    -0.270 N 
HETATM   19  H   UNL     1      24.913  51.068  47.308  1.00  0.00     0.189 HD
HETATM   20  C   UNL     1      24.431  49.512  48.733  1.00  0.00     0.150 A 
BRANCH  16  21
HETATM   21  O   UNL     1      27.729  48.308  48.801  1.00  0.00    -0.343 OA
HETATM   22  H   UNL     1      27.769  47.387  48.516  1.00  0.00     0.219 HD
ENDBRANCH  16  21
BRANCH  20  23
HETATM   23  C   UNL     1      22.997  49.820  48.847  1.00  0.00     0.435 C 
HETATM   24  F   UNL     1      22.562  50.400  47.692  1.00  0.00    -0.165 F 
HETATM   25  F   UNL     1      22.246  48.722  49.056  1.00  0.00    -0.165 F 
HETATM   26  F   UNL     1      22.754  50.701  49.838  1.00  0.00    -0.165 F 
ENDBRANCH  20  23
ENDBRANCH   3  15
TORSDOF 6
ENDMDL
MODEL 6
REMARK VINA RESULT:      -8.2      2.704      3.457
REMARK  6 active torsions:
REMARK  status: ('A' for Active; 'I' for Inactive)
REMARK    1  A    between atoms: C_3  and  C_4 
REMARK    2  A    between atoms: C_9  and  C_10 
REMARK    3  A    between atoms: C_10  and  N_11 
REMARK    4  A    between atoms: C_13  and  C_14 
REMARK    5  A    between atoms: C_15  and  O_16 
REMARK    6  A    between atoms: C_20  and  C_21 
ROOT
HETATM    1  N   UNL     1      27.410  42.255  52.993  1.00  0.00    -0.394 N 
HETATM    2  H   UNL     1      26.677  42.630  53.608  1.00  0.00     0.159 HD
HETATM    3  C   UNL     1      27.167  42.157  51.734  1.00  0.00     0.101 C 
ENDROOT
BRANCH   1   4
HETATM    4  C   UNL     1      28.682  41.941  53.677  1.00  0.00     0.157 C 
BRANCH   4   5
HETATM    5  C   UNL     1      29.165  43.140  54.443  1.00  0.00    -0.040 A 
HETATM    6  C   UNL     1      28.397  44.316  54.489  1.00  0.00     0.025 A 
HETATM    7  C   UNL     1      28.821  45.432  55.233  1.00  0.00     0.048 A 
HETATM    8  C   UNL     1      30.031  45.359  55.934  1.00  0.00     0.016 A 
HETATM    9  C   UNL     1      30.800  44.197  55.895  1.00  0.00     0.001 A 
HETATM   10  C   UNL     1      30.373  43.094  55.156  1.00  0.00     0.009 A 
BRANCH   7  11
HETATM   11  C   UNL     1      27.977  46.689  55.253  1.00  0.00     0.417 C 
HETATM   12  F   UNL     1      28.548  47.747  54.623  1.00  0.00    -0.166 F 
HETATM   13  F   UNL     1      26.764  46.497  54.670  1.00  0.00    -0.166 F 
HETATM   14  F   UNL     1      27.720  47.094  56.528  1.00  0.00    -0.166 F 
ENDBRANCH   7  11
ENDBRANCH   4   5
ENDBRANCH   1   4
BRANCH   3  15
HETATM   15  C   UNL     1      25.938  42.471  51.037  1.00  0.00     0.066 A 
HETATM   16  C   UNL     1      25.232  41.648  50.132  1.00  0.00     0.195 A 
HETATM   17  N   UNL     1      24.122  42.197  49.673  1.00  0.00    -0.148 NA
HETATM   18  N   UNL     1      24.080  43.393  50.261  1.00  0.00    -0.270 N 
HETATM   19  H   UNL     1      23.292  44.004  50.046  1.00  0.00     0.189 HD
HETATM   20  C   UNL     1      25.144  43.615  51.095  1.00  0.00     0.150 A 
BRANCH  16  21
HETATM   21  O   UNL     1      25.490  40.426  49.666  1.00  0.00    -0.343 OA
HETATM   22  H   UNL     1      25.009  40.202  48.860  1.00  0.00     0.219 HD
ENDBRANCH  16  21
BRANCH  20  23
HETATM   23  C   UNL     1      25.197  44.888  51.831  1.00  0.00     0.435 C 
HETATM   24  F   UNL     1      24.813  44.685  53.123  1.00  0.00    -0.165 F 
HETATM   25  F   UNL     1      26.434  45.422  51.856  1.00  0.00    -0.165 F 
HETATM   26  F   UNL     1      24.348  45.798  51.313  1.00  0.00    -0.165 F 
ENDBRANCH  20  23
ENDBRANCH   3  15
TORSDOF 6
ENDMDL
MODEL 7
REMARK VINA RESULT:      -8.2      3.213      4.408
REMARK  6 active torsions:
REMARK  status: ('A' for Active; 'I' for Inactive)
REMARK    1  A    between atoms: C_3  and  C_4 
REMARK    2  A    between atoms: C_9  and  C_10 
REMARK    3  A    between atoms: C_10  and  N_11 
REMARK    4  A    between atoms: C_13  and  C_14 
REMARK    5  A    between atoms: C_15  and  O_16 
REMARK    6  A    between atoms: C_20  and  C_21 
ROOT
HETATM    1  N   UNL     1      25.301  46.533  50.588  1.00  0.00    -0.394 N 
HETATM    2  H   UNL     1      26.165  46.338  50.067  1.00  0.00     0.159 HD
HETATM    3  C   UNL     1      24.591  47.548  50.246  1.00  0.00     0.101 C 
ENDROOT
BRANCH   1   4
HETATM    4  C   UNL     1      24.983  45.542  51.637  1.00  0.00     0.157 C 
BRANCH   4   5
HETATM    5  C   UNL     1      25.999  45.617  52.743  1.00  0.00    -0.040 A 
HETATM    6  C   UNL     1      26.965  44.608  52.897  1.00  0.00     0.025 A 
HETATM    7  C   UNL     1      27.943  44.686  53.904  1.00  0.00     0.048 A 
HETATM    8  C   UNL     1      27.944  45.792  54.763  1.00  0.00     0.016 A 
HETATM    9  C   UNL     1      26.990  46.798  54.620  1.00  0.00     0.001 A 
HETATM   10  C   UNL     1      26.023  46.715  53.617  1.00  0.00     0.009 A 
BRANCH   7  11
HETATM   11  C   UNL     1      28.963  43.577  54.051  1.00  0.00     0.417 C 
HETATM   12  F   UNL     1      28.418  42.345  54.224  1.00  0.00    -0.166 F 
HETATM   13  F   UNL     1      29.781  43.492  52.969  1.00  0.00    -0.166 F 
HETATM   14  F   UNL     1      29.778  43.790  55.122  1.00  0.00    -0.166 F 
ENDBRANCH   7  11
ENDBRANCH   4   5
ENDBRANCH   1   4
BRANCH   3  15
HETATM   15  C   UNL     1      24.870  48.524  49.215  1.00  0.00     0.066 A 
HETATM   16  C   UNL     1      23.935  49.197  48.397  1.00  0.00     0.195 A 
HETATM   17  N   UNL     1      24.487  50.057  47.560  1.00  0.00    -0.148 NA
HETATM   18  N   UNL     1      25.794  49.961  47.805  1.00  0.00    -0.270 N 
HETATM   19  H   UNL     1      26.428  50.546  47.261  1.00  0.00     0.189 HD
HETATM   20  C   UNL     1      26.087  49.057  48.793  1.00  0.00     0.150 A 
BRANCH  16  21
HETATM   21  O   UNL     1      22.607  49.115  48.325  1.00  0.00    -0.343 OA
HETATM   22  H   UNL     1      22.194  48.716  49.101  1.00  0.00     0.219 HD
ENDBRANCH  16  21
BRANCH  20  23
HETATM   23  C   UNL     1      27.495  48.882  49.181  1.00  0.00     0.435 C 
HETATM   24  F   UNL     1      27.573  48.653  50.522  1.00  0.00    -0.165 F 
HETATM   25  F   UNL     1      28.080  47.841  48.558  1.00  0.00    -0.165 F 
HETATM   26  F   UNL     1      28.221  49.991  48.934  1.00  0.00    -0.165 F 
ENDBRANCH  20  23
ENDBRANCH   3  15
TORSDOF 6
ENDMDL
MODEL 8
REMARK VINA RESULT:      -8.1      2.229      2.687
REMARK  6 active torsions:
REMARK  status: ('A' for Active; 'I' for Inactive)
REMARK    1  A    between atoms: C_3  and  C_4 
REMARK    2  A    between atoms: C_9  and  C_10 
REMARK    3  A    between atoms: C_10  and  N_11 
REMARK    4  A    between atoms: C_13  and  C_14 
REMARK    5  A    between atoms: C_15  and  O_16 
REMARK    6  A    between atoms: C_20  and  C_21 
ROOT
HETATM    1  N   UNL     1      27.512  44.595  52.495  1.00  0.00    -0.394 N 
HETATM    2  H   UNL     1      28.015  45.389  52.078  1.00  0.00     0.159 HD
HETATM    3  C   UNL     1      26.251  44.482  52.274  1.00  0.00     0.101 C 
ENDROOT
BRANCH   1   4
HETATM    4  C   UNL     1      28.368  43.657  53.250  1.00  0.00     0.157 C 
BRANCH   4   5
HETATM    5  C   UNL     1      28.932  44.337  54.466  1.00  0.00    -0.040 A 
HETATM    6  C   UNL     1      29.916  43.707  55.246  1.00  0.00     0.025 A 
HETATM    7  C   UNL     1      30.478  44.349  56.364  1.00  0.00     0.048 A 
HETATM    8  C   UNL     1      30.041  45.637  56.697  1.00  0.00     0.016 A 
HETATM    9  C   UNL     1      29.064  46.270  55.930  1.00  0.00     0.001 A 
HETATM   10  C   UNL     1      28.512  45.628  54.821  1.00  0.00     0.009 A 
BRANCH   7  11
HETATM   11  C   UNL     1      31.528  43.639  57.191  1.00  0.00     0.417 C 
HETATM   12  F   UNL     1      31.185  42.377  57.555  1.00  0.00    -0.166 F 
HETATM   13  F   UNL     1      32.715  43.545  56.535  1.00  0.00    -0.166 F 
HETATM   14  F   UNL     1      31.791  44.313  58.346  1.00  0.00    -0.166 F 
ENDBRANCH   7  11
ENDBRANCH   4   5
ENDBRANCH   1   4
BRANCH   3  15
HETATM   15  C   UNL     1      25.393  45.375  51.527  1.00  0.00     0.066 A 
HETATM   16  C   UNL     1      25.463  46.786  51.473  1.00  0.00     0.195 A 
HETATM   17  N   UNL     1      24.560  47.331  50.679  1.00  0.00    -0.148 NA
HETATM   18  N   UNL     1      23.873  46.292  50.202  1.00  0.00    -0.270 N 
HETATM   19  H   UNL     1      23.107  46.481  49.556  1.00  0.00     0.189 HD
HETATM   20  C   UNL     1      24.329  45.089  50.673  1.00  0.00     0.150 A 
BRANCH  16  21
HETATM   21  O   UNL     1      26.276  47.651  52.079  1.00  0.00    -0.343 OA
HETATM   22  H   UNL     1      27.022  47.937  51.537  1.00  0.00     0.219 HD
ENDBRANCH  16  21
BRANCH  20  23
HETATM   23  C   UNL     1      23.675  43.861  50.194  1.00  0.00     0.435 C 
HETATM   24  F   UNL     1      24.036  43.627  48.901  1.00  0.00    -0.165 F 
HETATM   25  F   UNL     1      24.019  42.775  50.914  1.00  0.00    -0.165 F 
HETATM   26  F   UNL     1      22.332  43.975  50.207  1.00  0.00    -0.165 F 
ENDBRANCH  20  23
ENDBRANCH   3  15
TORSDOF 6
ENDMDL
MODEL 9
REMARK VINA RESULT:      -8.1     13.362     14.432
REMARK  6 active torsions:
REMARK  status: ('A' for Active; 'I' for Inactive)
REMARK    1  A    between atoms: C_3  and  C_4 
REMARK    2  A    between atoms: C_9  and  C_10 
REMARK    3  A    between atoms: C_10  and  N_11 
REMARK    4  A    between atoms: C_13  and  C_14 
REMARK    5  A    between atoms: C_15  and  O_16 
REMARK    6  A    between atoms: C_20  and  C_21 
ROOT
HETATM    1  N   UNL     1      31.440  49.900  40.696  1.00  0.00    -0.394 N 
HETATM    2  H   UNL     1      30.622  49.322  40.925  1.00  0.00     0.159 HD
HETATM    3  C   UNL     1      31.271  50.949  39.972  1.00  0.00     0.101 C 
ENDROOT
BRANCH   1   4
HETATM    4  C   UNL     1      32.703  49.443  41.311  1.00  0.00     0.157 C 
BRANCH   4   5
HETATM    5  C   UNL     1      33.098  50.369  42.427  1.00  0.00    -0.040 A 
HETATM    6  C   UNL     1      34.382  50.938  42.464  1.00  0.00     0.025 A 
HETATM    7  C   UNL     1      34.752  51.834  43.482  1.00  0.00     0.048 A 
HETATM    8  C   UNL     1      33.815  52.158  44.472  1.00  0.00     0.016 A 
HETATM    9  C   UNL     1      32.539  51.598  44.446  1.00  0.00     0.001 A 
HETATM   10  C   UNL     1      32.179  50.710  43.431  1.00  0.00     0.009 A 
BRANCH   7  11
HETATM   11  C   UNL     1      36.147  52.422  43.501  1.00  0.00     0.417 C 
HETATM   12  F   UNL     1      37.130  51.502  43.676  1.00  0.00    -0.166 F 
HETATM   13  F   UNL     1      36.435  53.085  42.349  1.00  0.00    -0.166 F 
HETATM   14  F   UNL     1      36.290  53.333  44.503  1.00  0.00    -0.166 F 
ENDBRANCH   7  11
ENDBRANCH   4   5
ENDBRANCH   1   4
BRANCH   3  15
HETATM   15  C   UNL     1      30.045  51.428  39.370  1.00  0.00     0.066 A 
HETATM   16  C   UNL     1      29.802  51.675  38.001  1.00  0.00     0.195 A 
HETATM   17  N   UNL     1      28.572  52.083  37.746  1.00  0.00    -0.148 NA
HETATM   18  N   UNL     1      27.984  52.118  38.943  1.00  0.00    -0.270 N 
HETATM   19  H   UNL     1      27.009  52.414  38.989  1.00  0.00     0.189 HD
HETATM   20  C   UNL     1      28.819  51.733  39.959  1.00  0.00     0.150 A 
BRANCH  16  21
HETATM   21  O   UNL     1      30.592  51.569  36.932  1.00  0.00    -0.343 OA
HETATM   22  H   UNL     1      30.254  50.976  36.250  1.00  0.00     0.219 HD
ENDBRANCH  16  21
BRANCH  20  23
HETATM   23  C   UNL     1      28.279  51.697  41.328  1.00  0.00     0.435 C 
HETATM   24  F   UNL     1      29.089  52.417  42.155  1.00  0.00    -0.165 F 
HETATM   25  F   UNL     1      27.043  52.224  41.412  1.00  0.00    -0.165 F 
HETATM   26  F   UNL     1      28.244  50.441  41.816  1.00  0.00    -0.165 F 
ENDBRANCH  20  23
ENDBRANCH   3  15
TORSDOF 6
ENDMDL
MODEL 10
REMARK VINA RESULT:      -8.1      1.224      2.011
REMARK  6 active torsions:
REMARK  status: ('A' for Active; 'I' for Inactive)
REMARK    1  A    between atoms: C_3  and  C_4 
REMARK    2  A    between atoms: C_9  and  C_10 
REMARK    3  A    between atoms: C_10  and  N_11 
REMARK    4  A    between atoms: C_13  and  C_14 
REMARK    5  A    between atoms: C_15  and  O_16 
REMARK    6  A    between atoms: C_20  and  C_21 
ROOT
HETATM    1  N   UNL     1      26.337  45.119  53.107  1.00  0.00    -0.394 N 
HETATM    2  H   UNL     1      26.098  44.123  53.190  1.00  0.00     0.159 HD
HETATM    3  C   UNL     1      25.749  45.821  52.204  1.00  0.00     0.101 C 
ENDROOT
BRANCH   1   4
HETATM    4  C   UNL     1      27.303  45.602  54.116  1.00  0.00     0.157 C 
BRANCH   4   5
HETATM    5  C   UNL     1      28.482  44.673  54.187  1.00  0.00    -0.040 A 
HETATM    6  C   UNL     1      29.245  44.575  55.363  1.00  0.00     0.025 A 
HETATM    7  C   UNL     1      30.327  43.682  55.456  1.00  0.00     0.048 A 
HETATM    8  C   UNL     1      30.642  42.883  54.350  1.00  0.00     0.016 A 
HETATM    9  C   UNL     1      29.892  42.972  53.178  1.00  0.00     0.001 A 
HETATM   10  C   UNL     1      28.818  43.860  53.095  1.00  0.00     0.009 A 
BRANCH   7  11
HETATM   11  C   UNL     1      31.137  43.609  56.732  1.00  0.00     0.417 C 
HETATM   12  F   UNL     1      30.846  44.587  57.628  1.00  0.00    -0.166 F 
HETATM   13  F   UNL     1      30.963  42.425  57.378  1.00  0.00    -0.166 F 
HETATM   14  F   UNL     1      32.473  43.705  56.480  1.00  0.00    -0.166 F 
ENDBRANCH   7  11
ENDBRANCH   4   5
ENDBRANCH   1   4
BRANCH   3  15
HETATM   15  C   UNL     1      24.790  45.378  51.216  1.00  0.00     0.066 A 
HETATM   16  C   UNL     1      24.183  44.106  51.120  1.00  0.00     0.195 A 
HETATM   17  N   UNL     1      23.321  44.004  50.125  1.00  0.00    -0.148 NA
HETATM   18  N   UNL     1      23.350  45.203  49.542  1.00  0.00    -0.270 N 
HETATM   19  H   UNL     1      22.751  45.355  48.731  1.00  0.00     0.189 HD
HETATM   20  C   UNL     1      24.213  46.074  50.155  1.00  0.00     0.150 A 
BRANCH  16  21
HETATM   21  O   UNL     1      24.328  43.002  51.854  1.00  0.00    -0.343 OA
HETATM   22  H   UNL     1      23.642  42.340  51.709  1.00  0.00     0.219 HD
ENDBRANCH  16  21
BRANCH  20  23
HETATM   23  C   UNL     1      24.312  47.443  49.626  1.00  0.00     0.435 C 
HETATM   24  F   UNL     1      25.604  47.707  49.283  1.00  0.00    -0.165 F 
HETATM   25  F   UNL     1      23.555  47.631  48.528  1.00  0.00    -0.165 F 
HETATM   26  F   UNL     1      23.961  48.360  50.550  1.00  0.00    -0.165 F 
ENDBRANCH  20  23
ENDBRANCH   3  15
TORSDOF 6
ENDMDL
