MODEL 1
REMARK VINA RESULT:      -9.0      0.000      0.000
REMARK  5 active torsions:
REMARK  status: ('A' for Active; 'I' for Inactive)
REMARK    1  A    between atoms: C_4  and  C_5 
REMARK    2  A    between atoms: C_5  and  N_6 
REMARK    3  A    between atoms: C_7  and  C_8 
REMARK       I    between atoms: C_8  and  N_9 
REMARK    4  A    between atoms: N_9  and  N_10 
REMARK       I    between atoms: N_10  and  C_11 
REMARK    5  A    between atoms: C_11  and  C_12 
ROOT
HETATM    1  N   UNL     1      27.957  43.579  54.073  1.00  0.00    -0.337 N 
HETATM    2  C   UNL     1      28.763  42.466  53.858  1.00  0.00     0.106 A 
HETATM    3  C   UNL     1      29.959  42.729  54.514  1.00  0.00     0.049 A 
HETATM    4  C   UNL     1      29.866  43.983  55.168  1.00  0.00    -0.007 A 
HETATM    5  C   UNL     1      28.599  44.494  54.897  1.00  0.00     0.045 A 
HETATM    6  C   UNL     1      30.751  44.721  55.978  1.00  0.00     0.014 A 
HETATM    7  C   UNL     1      30.343  45.954  56.496  1.00  0.00     0.001 A 
HETATM    8  C   UNL     1      29.075  46.451  56.219  1.00  0.00     0.002 A 
HETATM    9  C   UNL     1      28.182  45.734  55.416  1.00  0.00     0.030 A 
ENDROOT
BRANCH   2  10
HETATM   10  C   UNL     1      28.382  41.277  53.113  1.00  0.00     0.286 C 
HETATM   11  N   UNL     1      28.910  41.192  51.840  1.00  0.00    -0.262 N 
HETATM   12  H   UNL     1      29.462  41.925  51.404  1.00  0.00     0.190 HD
HETATM   13  O   UNL     1      27.666  40.378  53.557  1.00  0.00    -0.264 OA
BRANCH  11  14
HETATM   14  N   UNL     1      28.680  40.039  51.082  1.00  0.00    -0.262 N 
HETATM   15  C   UNL     1      27.616  40.016  50.206  1.00  0.00     0.286 C 
HETATM   16  O   UNL     1      26.827  40.957  50.119  1.00  0.00    -0.264 OA
HETATM   17  H   UNL     1      29.349  39.282  51.183  1.00  0.00     0.190 HD
BRANCH  15  18
HETATM   18  C   UNL     1      27.492  38.819  49.403  1.00  0.00     0.102 A 
HETATM   19  N   UNL     1      26.654  37.788  49.778  1.00  0.00    -0.361 N 
HETATM   20  H   UNL     1      26.090  37.801  50.619  1.00  0.00     0.165 HD
HETATM   21  C   UNL     1      26.707  36.775  48.859  1.00  0.00     0.088 A 
HETATM   22  C   UNL     1      27.582  37.151  47.868  1.00  0.00     0.019 A 
HETATM   23  C   UNL     1      28.078  38.434  48.207  1.00  0.00     0.036 A 
ENDBRANCH  15  18
ENDBRANCH  11  14
ENDBRANCH   2  10
BRANCH   1  24
HETATM   24  C   UNL     1      26.617  43.781  53.519  1.00  0.00     0.168 C 
BRANCH  24  25
HETATM   25  C   UNL     1      26.612  44.717  52.331  1.00  0.00    -0.040 A 
HETATM   26  C   UNL     1      27.135  44.290  51.101  1.00  0.00     0.009 A 
HETATM   27  C   UNL     1      27.096  45.126  49.982  1.00  0.00     0.001 A 
HETATM   28  C   UNL     1      26.532  46.396  50.077  1.00  0.00     0.000 A 
HETATM   29  C   UNL     1      26.007  46.832  51.291  1.00  0.00     0.001 A 
HETATM   30  C   UNL     1      26.042  45.998  52.409  1.00  0.00     0.009 A 
ENDBRANCH  24  25
ENDBRANCH   1  24
TORSDOF 5
ENDMDL
MODEL 2
REMARK VINA RESULT:      -8.8      4.673      8.439
REMARK  5 active torsions:
REMARK  status: ('A' for Active; 'I' for Inactive)
REMARK    1  A    between atoms: C_4  and  C_5 
REMARK    2  A    between atoms: C_5  and  N_6 
REMARK    3  A    between atoms: C_7  and  C_8 
REMARK       I    between atoms: C_8  and  N_9 
REMARK    4  A    between atoms: N_9  and  N_10 
REMARK       I    between atoms: N_10  and  C_11 
REMARK    5  A    between atoms: C_11  and  C_12 
ROOT
HETATM    1  N   UNL     1      25.863  44.605  51.693  1.00  0.00    -0.337 N 
HETATM    2  C   UNL     1      25.683  45.400  50.565  1.00  0.00     0.106 A 
HETATM    3  C   UNL     1      26.203  44.675  49.500  1.00  0.00     0.049 A 
HETATM    4  C   UNL     1      26.659  43.418  49.971  1.00  0.00    -0.007 A 
HETATM    5  C   UNL     1      26.422  43.383  51.343  1.00  0.00     0.045 A 
HETATM    6  C   UNL     1      27.244  42.302  49.342  1.00  0.00     0.014 A 
HETATM    7  C   UNL     1      27.577  41.177  50.104  1.00  0.00     0.001 A 
HETATM    8  C   UNL     1      27.332  41.156  51.472  1.00  0.00     0.002 A 
HETATM    9  C   UNL     1      26.753  42.254  52.116  1.00  0.00     0.030 A 
ENDROOT
BRANCH   2  10
HETATM   10  C   UNL     1      25.050  46.708  50.545  1.00  0.00     0.286 C 
HETATM   11  N   UNL     1      23.846  46.764  49.870  1.00  0.00    -0.262 N 
HETATM   12  H   UNL     1      23.449  45.985  49.353  1.00  0.00     0.190 HD
HETATM   13  O   UNL     1      25.506  47.710  51.098  1.00  0.00    -0.264 OA
BRANCH  11  14
HETATM   14  N   UNL     1      23.114  47.956  49.877  1.00  0.00    -0.262 N 
HETATM   15  C   UNL     1      22.420  48.322  48.744  1.00  0.00     0.286 C 
HETATM   16  O   UNL     1      22.479  47.662  47.706  1.00  0.00    -0.264 OA
HETATM   17  H   UNL     1      23.093  48.476  50.749  1.00  0.00     0.190 HD
BRANCH  15  18
HETATM   18  C   UNL     1      21.627  49.526  48.858  1.00  0.00     0.102 A 
HETATM   19  N   UNL     1      20.707  49.684  49.875  1.00  0.00    -0.361 N 
HETATM   20  H   UNL     1      20.530  48.985  50.586  1.00  0.00     0.165 HD
HETATM   21  C   UNL     1      20.089  50.901  49.772  1.00  0.00     0.088 A 
HETATM   22  C   UNL     1      20.617  51.550  48.681  1.00  0.00     0.019 A 
HETATM   23  C   UNL     1      21.582  50.688  48.104  1.00  0.00     0.036 A 
ENDBRANCH  15  18
ENDBRANCH  11  14
ENDBRANCH   2  10
BRANCH   1  24
HETATM   24  C   UNL     1      25.519  44.982  53.065  1.00  0.00     0.168 C 
BRANCH  24  25
HETATM   25  C   UNL     1      26.703  45.524  53.834  1.00  0.00    -0.040 A 
HETATM   26  C   UNL     1      26.821  46.905  54.056  1.00  0.00     0.009 A 
HETATM   27  C   UNL     1      27.884  47.418  54.804  1.00  0.00     0.001 A 
HETATM   28  C   UNL     1      28.839  46.558  55.342  1.00  0.00     0.000 A 
HETATM   29  C   UNL     1      28.734  45.186  55.131  1.00  0.00     0.001 A 
HETATM   30  C   UNL     1      27.671  44.671  54.387  1.00  0.00     0.009 A 
ENDBRANCH  24  25
ENDBRANCH   1  24
TORSDOF 5
ENDMDL
MODEL 3
REMARK VINA RESULT:      -8.7      3.627      7.617
REMARK  5 active torsions:
REMARK  status: ('A' for Active; 'I' for Inactive)
REMARK    1  A    between atoms: C_4  and  C_5 
REMARK    2  A    between atoms: C_5  and  N_6 
REMARK    3  A    between atoms: C_7  and  C_8 
REMARK       I    between atoms: C_8  and  N_9 
REMARK    4  A    between atoms: N_9  and  N_10 
REMARK       I    between atoms: N_10  and  C_11 
REMARK    5  A    between atoms: C_11  and  C_12 
ROOT
HETATM    1  N   UNL     1      24.401  45.739  49.680  1.00  0.00    -0.337 N 
HETATM    2  C   UNL     1      25.236  44.627  49.706  1.00  0.00     0.106 A 
HETATM    3  C   UNL     1      24.637  43.681  48.885  1.00  0.00     0.049 A 
HETATM    4  C   UNL     1      23.459  44.231  48.321  1.00  0.00    -0.007 A 
HETATM    5  C   UNL     1      23.335  45.528  48.815  1.00  0.00     0.045 A 
HETATM    6  C   UNL     1      22.493  43.739  47.422  1.00  0.00     0.014 A 
HETATM    7  C   UNL     1      21.427  44.558  47.040  1.00  0.00     0.001 A 
HETATM    8  C   UNL     1      21.318  45.851  47.540  1.00  0.00     0.002 A 
HETATM    9  C   UNL     1      22.265  46.359  48.433  1.00  0.00     0.030 A 
ENDROOT
BRANCH   2  10
HETATM   10  C   UNL     1      26.488  44.527  50.438  1.00  0.00     0.286 C 
HETATM   11  N   UNL     1      26.365  44.128  51.754  1.00  0.00    -0.262 N 
HETATM   12  H   UNL     1      25.475  43.983  52.222  1.00  0.00     0.190 HD
HETATM   13  O   UNL     1      27.598  44.748  49.951  1.00  0.00    -0.264 OA
BRANCH  11  14
HETATM   14  N   UNL     1      27.520  43.909  52.512  1.00  0.00    -0.262 N 
HETATM   15  C   UNL     1      27.694  44.611  53.685  1.00  0.00     0.286 C 
HETATM   16  O   UNL     1      26.890  45.470  54.052  1.00  0.00    -0.264 OA
HETATM   17  H   UNL     1      28.161  43.197  52.177  1.00  0.00     0.190 HD
BRANCH  15  18
HETATM   18  C   UNL     1      28.874  44.272  54.449  1.00  0.00     0.102 A 
HETATM   19  N   UNL     1      29.393  45.139  55.390  1.00  0.00    -0.361 N 
HETATM   20  H   UNL     1      28.994  46.047  55.597  1.00  0.00     0.165 HD
HETATM   21  C   UNL     1      30.501  44.594  55.978  1.00  0.00     0.088 A 
HETATM   22  C   UNL     1      30.704  43.352  55.424  1.00  0.00     0.019 A 
HETATM   23  C   UNL     1      29.685  43.148  54.462  1.00  0.00     0.036 A 
ENDBRANCH  15  18
ENDBRANCH  11  14
ENDBRANCH   2  10
BRANCH   1  24
HETATM   24  C   UNL     1      24.595  46.970  50.448  1.00  0.00     0.168 C 
BRANCH  24  25
HETATM   25  C   UNL     1      25.367  48.020  49.680  1.00  0.00    -0.040 A 
HETATM   26  C   UNL     1      24.682  48.969  48.907  1.00  0.00     0.009 A 
HETATM   27  C   UNL     1      25.377  49.973  48.230  1.00  0.00     0.001 A 
HETATM   28  C   UNL     1      26.765  50.043  48.319  1.00  0.00     0.000 A 
HETATM   29  C   UNL     1      27.460  49.110  49.083  1.00  0.00     0.001 A 
HETATM   30  C   UNL     1      26.766  48.108  49.763  1.00  0.00     0.009 A 
ENDBRANCH  24  25
ENDBRANCH   1  24
TORSDOF 5
ENDMDL
MODEL 4
REMARK VINA RESULT:      -8.6      3.894      7.128
REMARK  5 active torsions:
REMARK  status: ('A' for Active; 'I' for Inactive)
REMARK    1  A    between atoms: C_4  and  C_5 
REMARK    2  A    between atoms: C_5  and  N_6 
REMARK    3  A    between atoms: C_7  and  C_8 
REMARK       I    between atoms: C_8  and  N_9 
REMARK    4  A    between atoms: N_9  and  N_10 
REMARK       I    between atoms: N_10  and  C_11 
REMARK    5  A    between atoms: C_11  and  C_12 
ROOT
HETATM    1  N   UNL     1      27.261  44.131  51.700  1.00  0.00    -0.337 N 
HETATM    2  C   UNL     1      26.206  44.702  52.405  1.00  0.00     0.106 A 
HETATM    3  C   UNL     1      26.554  44.618  53.747  1.00  0.00     0.049 A 
HETATM    4  C   UNL     1      27.842  44.038  53.859  1.00  0.00    -0.007 A 
HETATM    5  C   UNL     1      28.279  43.755  52.566  1.00  0.00     0.045 A 
HETATM    6  C   UNL     1      28.679  43.739  54.952  1.00  0.00     0.014 A 
HETATM    7  C   UNL     1      29.933  43.164  54.723  1.00  0.00     0.001 A 
HETATM    8  C   UNL     1      30.355  42.890  53.427  1.00  0.00     0.002 A 
HETATM    9  C   UNL     1      29.540  43.178  52.328  1.00  0.00     0.030 A 
ENDROOT
BRANCH   2  10
HETATM   10  C   UNL     1      25.011  45.282  51.815  1.00  0.00     0.286 C 
HETATM   11  N   UNL     1      25.148  46.584  51.377  1.00  0.00    -0.262 N 
HETATM   12  H   UNL     1      25.985  47.144  51.514  1.00  0.00     0.190 HD
HETATM   13  O   UNL     1      23.943  44.682  51.674  1.00  0.00    -0.264 OA
BRANCH  11  14
HETATM   14  N   UNL     1      24.083  47.196  50.708  1.00  0.00    -0.262 N 
HETATM   15  C   UNL     1      24.349  48.199  49.802  1.00  0.00     0.286 C 
HETATM   16  O   UNL     1      25.493  48.614  49.611  1.00  0.00    -0.264 OA
HETATM   17  H   UNL     1      23.153  46.830  50.894  1.00  0.00     0.190 HD
BRANCH  15  18
HETATM   18  C   UNL     1      23.201  48.726  49.096  1.00  0.00     0.102 A 
HETATM   19  N   UNL     1      21.918  48.333  49.419  1.00  0.00    -0.361 N 
HETATM   20  H   UNL     1      21.703  47.664  50.149  1.00  0.00     0.165 HD
HETATM   21  C   UNL     1      21.010  48.970  48.619  1.00  0.00     0.088 A 
HETATM   22  C   UNL     1      21.705  49.797  47.769  1.00  0.00     0.019 A 
HETATM   23  C   UNL     1      23.082  49.645  48.065  1.00  0.00     0.036 A 
ENDBRANCH  15  18
ENDBRANCH  11  14
ENDBRANCH   2  10
BRANCH   1  24
HETATM   24  C   UNL     1      27.314  43.943  50.250  1.00  0.00     0.168 C 
BRANCH  24  25
HETATM   25  C   UNL     1      26.754  42.606  49.815  1.00  0.00    -0.040 A 
HETATM   26  C   UNL     1      25.438  42.519  49.337  1.00  0.00     0.009 A 
HETATM   27  C   UNL     1      24.922  41.301  48.888  1.00  0.00     0.001 A 
HETATM   28  C   UNL     1      25.715  40.156  48.909  1.00  0.00     0.000 A 
HETATM   29  C   UNL     1      27.024  40.227  49.379  1.00  0.00     0.001 A 
HETATM   30  C   UNL     1      27.542  41.444  49.824  1.00  0.00     0.009 A 
ENDBRANCH  24  25
ENDBRANCH   1  24
TORSDOF 5
ENDMDL
MODEL 5
REMARK VINA RESULT:      -8.2      6.484     10.292
REMARK  5 active torsions:
REMARK  status: ('A' for Active; 'I' for Inactive)
REMARK    1  A    between atoms: C_4  and  C_5 
REMARK    2  A    between atoms: C_5  and  N_6 
REMARK    3  A    between atoms: C_7  and  C_8 
REMARK       I    between atoms: C_8  and  N_9 
REMARK    4  A    between atoms: N_9  and  N_10 
REMARK       I    between atoms: N_10  and  C_11 
REMARK    5  A    between atoms: C_11  and  C_12 
ROOT
HETATM    1  N   UNL     1      23.909  46.108  49.376  1.00  0.00    -0.337 N 
HETATM    2  C   UNL     1      22.876  46.091  48.444  1.00  0.00     0.106 A 
HETATM    3  C   UNL     1      22.934  44.845  47.832  1.00  0.00     0.049 A 
HETATM    4  C   UNL     1      23.974  44.084  48.422  1.00  0.00    -0.007 A 
HETATM    5  C   UNL     1      24.563  44.883  49.400  1.00  0.00     0.045 A 
HETATM    6  C   UNL     1      24.457  42.778  48.213  1.00  0.00     0.014 A 
HETATM    7  C   UNL     1      25.518  42.303  48.991  1.00  0.00     0.001 A 
HETATM    8  C   UNL     1      26.094  43.111  49.964  1.00  0.00     0.002 A 
HETATM    9  C   UNL     1      25.630  44.411  50.187  1.00  0.00     0.030 A 
ENDROOT
BRANCH   2  10
HETATM   10  C   UNL     1      21.932  47.171  48.208  1.00  0.00     0.286 C 
HETATM   11  N   UNL     1      21.056  47.418  49.247  1.00  0.00    -0.262 N 
HETATM   12  H   UNL     1      21.002  46.854  50.090  1.00  0.00     0.190 HD
HETATM   13  O   UNL     1      21.900  47.856  47.185  1.00  0.00    -0.264 OA
BRANCH  11  14
HETATM   14  N   UNL     1      20.174  48.500  49.154  1.00  0.00    -0.262 N 
HETATM   15  C   UNL     1      20.615  49.755  49.511  1.00  0.00     0.286 C 
HETATM   16  O   UNL     1      21.744  49.940  49.968  1.00  0.00    -0.264 OA
HETATM   17  H   UNL     1      19.251  48.308  48.776  1.00  0.00     0.190 HD
BRANCH  15  18
HETATM   18  C   UNL     1      19.669  50.831  49.313  1.00  0.00     0.102 A 
HETATM   19  N   UNL     1      18.514  50.917  50.064  1.00  0.00    -0.361 N 
HETATM   20  H   UNL     1      18.259  50.248  50.780  1.00  0.00     0.165 HD
HETATM   21  C   UNL     1      17.789  52.017  49.696  1.00  0.00     0.088 A 
HETATM   22  C   UNL     1      18.481  52.664  48.699  1.00  0.00     0.019 A 
HETATM   23  C   UNL     1      19.662  51.920  48.456  1.00  0.00     0.036 A 
ENDBRANCH  15  18
ENDBRANCH  11  14
ENDBRANCH   2  10
BRANCH   1  24
HETATM   24  C   UNL     1      24.274  47.244  50.223  1.00  0.00     0.168 C 
BRANCH  24  25
HETATM   25  C   UNL     1      25.293  48.153  49.571  1.00  0.00    -0.040 A 
HETATM   26  C   UNL     1      24.868  49.200  48.740  1.00  0.00     0.009 A 
HETATM   27  C   UNL     1      25.793  50.076  48.168  1.00  0.00     0.001 A 
HETATM   28  C   UNL     1      27.154  49.919  48.422  1.00  0.00     0.000 A 
HETATM   29  C   UNL     1      27.591  48.885  49.246  1.00  0.00     0.001 A 
HETATM   30  C   UNL     1      26.667  48.011  49.821  1.00  0.00     0.009 A 
ENDBRANCH  24  25
ENDBRANCH   1  24
TORSDOF 5
ENDMDL
MODEL 6
REMARK VINA RESULT:      -8.1      7.485     10.540
REMARK  5 active torsions:
REMARK  status: ('A' for Active; 'I' for Inactive)
REMARK    1  A    between atoms: C_4  and  C_5 
REMARK    2  A    between atoms: C_5  and  N_6 
REMARK    3  A    between atoms: C_7  and  C_8 
REMARK       I    between atoms: C_8  and  N_9 
REMARK    4  A    between atoms: N_9  and  N_10 
REMARK       I    between atoms: N_10  and  C_11 
REMARK    5  A    between atoms: C_11  and  C_12 
ROOT
HETATM    1  N   UNL     1      19.758  48.864  49.020  1.00  0.00    -0.337 N 
HETATM    2  C   UNL     1      21.037  49.044  48.503  1.00  0.00     0.106 A 
HETATM    3  C   UNL     1      21.128  50.391  48.172  1.00  0.00     0.049 A 
HETATM    4  C   UNL     1      19.920  51.041  48.529  1.00  0.00    -0.007 A 
HETATM    5  C   UNL     1      19.080  50.074  49.076  1.00  0.00     0.045 A 
HETATM    6  C   UNL     1      19.476  52.375  48.444  1.00  0.00     0.014 A 
HETATM    7  C   UNL     1      18.200  52.707  48.909  1.00  0.00     0.001 A 
HETATM    8  C   UNL     1      17.373  51.731  49.455  1.00  0.00     0.002 A 
HETATM    9  C   UNL     1      17.795  50.402  49.548  1.00  0.00     0.030 A 
ENDROOT
BRANCH   2  10
HETATM   10  C   UNL     1      22.052  48.011  48.376  1.00  0.00     0.286 C 
HETATM   11  N   UNL     1      22.725  47.708  49.543  1.00  0.00    -0.262 N 
HETATM   12  H   UNL     1      22.594  48.205  50.419  1.00  0.00     0.190 HD
HETATM   13  O   UNL     1      22.306  47.410  47.331  1.00  0.00    -0.264 OA
BRANCH  11  14
HETATM   14  N   UNL     1      23.652  46.660  49.544  1.00  0.00    -0.262 N 
HETATM   15  C   UNL     1      24.779  46.764  50.330  1.00  0.00     0.286 C 
HETATM   16  O   UNL     1      25.022  47.780  50.983  1.00  0.00    -0.264 OA
HETATM   17  H   UNL     1      23.419  45.841  48.991  1.00  0.00     0.190 HD
BRANCH  15  18
HETATM   18  C   UNL     1      25.647  45.608  50.335  1.00  0.00     0.102 A 
HETATM   19  N   UNL     1      25.687  44.736  49.265  1.00  0.00    -0.361 N 
HETATM   20  H   UNL     1      25.122  44.845  48.432  1.00  0.00     0.165 HD
HETATM   21  C   UNL     1      26.584  43.731  49.504  1.00  0.00     0.088 A 
HETATM   22  C   UNL     1      27.144  43.952  50.740  1.00  0.00     0.019 A 
HETATM   23  C   UNL     1      26.557  45.130  51.265  1.00  0.00     0.036 A 
ENDBRANCH  15  18
ENDBRANCH  11  14
ENDBRANCH   2  10
BRANCH   1  24
HETATM   24  C   UNL     1      19.186  47.588  49.451  1.00  0.00     0.168 C 
BRANCH  24  25
HETATM   25  C   UNL     1      18.720  46.736  48.291  1.00  0.00    -0.040 A 
HETATM   26  C   UNL     1      19.260  45.455  48.101  1.00  0.00     0.009 A 
HETATM   27  C   UNL     1      18.808  44.638  47.062  1.00  0.00     0.001 A 
HETATM   28  C   UNL     1      17.808  45.090  46.203  1.00  0.00     0.000 A 
HETATM   29  C   UNL     1      17.262  46.358  46.380  1.00  0.00     0.001 A 
HETATM   30  C   UNL     1      17.710  47.174  47.420  1.00  0.00     0.009 A 
ENDBRANCH  24  25
ENDBRANCH   1  24
TORSDOF 5
ENDMDL
MODEL 7
REMARK VINA RESULT:      -8.1      6.379      9.076
REMARK  5 active torsions:
REMARK  status: ('A' for Active; 'I' for Inactive)
REMARK    1  A    between atoms: C_4  and  C_5 
REMARK    2  A    between atoms: C_5  and  N_6 
REMARK    3  A    between atoms: C_7  and  C_8 
REMARK       I    between atoms: C_8  and  N_9 
REMARK    4  A    between atoms: N_9  and  N_10 
REMARK       I    between atoms: N_10  and  C_11 
REMARK    5  A    between atoms: C_11  and  C_12 
ROOT
HETATM    1  N   UNL     1      24.500  45.640  49.745  1.00  0.00    -0.337 N 
HETATM    2  C   UNL     1      23.577  45.223  48.791  1.00  0.00     0.106 A 
HETATM    3  C   UNL     1      23.996  43.963  48.381  1.00  0.00     0.049 A 
HETATM    4  C   UNL     1      25.148  43.592  49.117  1.00  0.00    -0.007 A 
HETATM    5  C   UNL     1      25.441  44.646  49.980  1.00  0.00     0.045 A 
HETATM    6  C   UNL     1      25.962  42.442  49.129  1.00  0.00     0.014 A 
HETATM    7  C   UNL     1      27.048  42.376  50.007  1.00  0.00     0.001 A 
HETATM    8  C   UNL     1      27.326  43.435  50.864  1.00  0.00     0.002 A 
HETATM    9  C   UNL     1      26.532  44.585  50.867  1.00  0.00     0.030 A 
ENDROOT
BRANCH   2  10
HETATM   10  C   UNL     1      22.410  45.973  48.359  1.00  0.00     0.286 C 
HETATM   11  N   UNL     1      21.281  45.793  49.134  1.00  0.00    -0.262 N 
HETATM   12  H   UNL     1      21.221  45.135  49.905  1.00  0.00     0.190 HD
HETATM   13  O   UNL     1      22.394  46.742  47.397  1.00  0.00    -0.264 OA
BRANCH  11  14
HETATM   14  N   UNL     1      20.135  46.546  48.856  1.00  0.00    -0.262 N 
HETATM   15  C   UNL     1      18.995  45.899  48.431  1.00  0.00     0.286 C 
HETATM   16  O   UNL     1      18.977  44.684  48.230  1.00  0.00    -0.264 OA
HETATM   17  H   UNL     1      20.189  47.545  49.030  1.00  0.00     0.190 HD
BRANCH  15  18
HETATM   18  C   UNL     1      17.833  46.738  48.240  1.00  0.00     0.102 A 
HETATM   19  N   UNL     1      17.040  46.620  47.116  1.00  0.00    -0.361 N 
HETATM   20  H   UNL     1      17.219  45.958  46.370  1.00  0.00     0.165 HD
HETATM   21  C   UNL     1      16.006  47.513  47.168  1.00  0.00     0.088 A 
HETATM   22  C   UNL     1      16.117  48.218  48.343  1.00  0.00     0.019 A 
HETATM   23  C   UNL     1      17.264  47.734  49.018  1.00  0.00     0.036 A 
ENDBRANCH  15  18
ENDBRANCH  11  14
ENDBRANCH   2  10
BRANCH   1  24
HETATM   24  C   UNL     1      24.502  46.939  50.419  1.00  0.00     0.168 C 
BRANCH  24  25
HETATM   25  C   UNL     1      25.308  47.980  49.676  1.00  0.00    -0.040 A 
HETATM   26  C   UNL     1      24.656  48.949  48.899  1.00  0.00     0.009 A 
HETATM   27  C   UNL     1      25.383  49.946  48.244  1.00  0.00     0.001 A 
HETATM   28  C   UNL     1      26.771  49.989  48.360  1.00  0.00     0.000 A 
HETATM   29  C   UNL     1      27.433  49.035  49.129  1.00  0.00     0.001 A 
HETATM   30  C   UNL     1      26.707  48.040  49.787  1.00  0.00     0.009 A 
ENDBRANCH  24  25
ENDBRANCH   1  24
TORSDOF 5
ENDMDL
MODEL 8
REMARK VINA RESULT:      -7.9     13.397     14.219
REMARK  5 active torsions:
REMARK  status: ('A' for Active; 'I' for Inactive)
REMARK    1  A    between atoms: C_4  and  C_5 
REMARK    2  A    between atoms: C_5  and  N_6 
REMARK    3  A    between atoms: C_7  and  C_8 
REMARK       I    between atoms: C_8  and  N_9 
REMARK    4  A    between atoms: N_9  and  N_10 
REMARK       I    between atoms: N_10  and  C_11 
REMARK    5  A    between atoms: C_11  and  C_12 
ROOT
HETATM    1  N   UNL     1      32.949  50.265  42.389  1.00  0.00    -0.337 N 
HETATM    2  C   UNL     1      33.381  49.382  41.405  1.00  0.00     0.106 A 
HETATM    3  C   UNL     1      34.744  49.610  41.259  1.00  0.00     0.049 A 
HETATM    4  C   UNL     1      35.152  50.601  42.186  1.00  0.00    -0.007 A 
HETATM    5  C   UNL     1      34.019  50.988  42.899  1.00  0.00     0.045 A 
HETATM    6  C   UNL     1      36.394  51.194  42.487  1.00  0.00     0.014 A 
HETATM    7  C   UNL     1      36.469  52.161  43.495  1.00  0.00     0.001 A 
HETATM    8  C   UNL     1      35.330  52.535  44.199  1.00  0.00     0.002 A 
HETATM    9  C   UNL     1      34.088  51.959  43.915  1.00  0.00     0.030 A 
ENDROOT
BRANCH   2  10
HETATM   10  C   UNL     1      32.548  48.412  40.713  1.00  0.00     0.286 C 
HETATM   11  N   UNL     1      31.767  48.932  39.699  1.00  0.00    -0.262 N 
HETATM   12  H   UNL     1      31.704  49.923  39.483  1.00  0.00     0.190 HD
HETATM   13  O   UNL     1      32.528  47.206  40.964  1.00  0.00    -0.264 OA
BRANCH  11  14
HETATM   14  N   UNL     1      31.004  48.063  38.912  1.00  0.00    -0.262 N 
HETATM   15  C   UNL     1      29.659  47.926  39.178  1.00  0.00     0.286 C 
HETATM   16  O   UNL     1      29.124  48.500  40.128  1.00  0.00    -0.264 OA
HETATM   17  H   UNL     1      31.480  47.605  38.140  1.00  0.00     0.190 HD
BRANCH  15  18
HETATM   18  C   UNL     1      28.926  47.071  38.272  1.00  0.00     0.102 A 
HETATM   19  N   UNL     1      29.540  46.018  37.624  1.00  0.00    -0.361 N 
HETATM   20  H   UNL     1      30.520  45.785  37.736  1.00  0.00     0.165 HD
HETATM   21  C   UNL     1      28.642  45.359  36.830  1.00  0.00     0.088 A 
HETATM   22  C   UNL     1      27.424  45.981  36.966  1.00  0.00     0.019 A 
HETATM   23  C   UNL     1      27.599  47.057  37.870  1.00  0.00     0.036 A 
ENDBRANCH  15  18
ENDBRANCH  11  14
ENDBRANCH   2  10
BRANCH   1  24
HETATM   24  C   UNL     1      31.566  50.429  42.839  1.00  0.00     0.168 C 
BRANCH  24  25
HETATM   25  C   UNL     1      30.808  51.459  42.033  1.00  0.00    -0.040 A 
HETATM   26  C   UNL     1      31.495  52.528  41.438  1.00  0.00     0.009 A 
HETATM   27  C   UNL     1      30.817  53.463  40.652  1.00  0.00     0.001 A 
HETATM   28  C   UNL     1      29.444  53.339  40.448  1.00  0.00     0.000 A 
HETATM   29  C   UNL     1      28.749  52.282  41.030  1.00  0.00     0.001 A 
HETATM   30  C   UNL     1      29.426  51.346  41.813  1.00  0.00     0.009 A 
ENDBRANCH  24  25
ENDBRANCH   1  24
TORSDOF 5
ENDMDL
MODEL 9
REMARK VINA RESULT:      -7.7     13.207     15.471
REMARK  5 active torsions:
REMARK  status: ('A' for Active; 'I' for Inactive)
REMARK    1  A    between atoms: C_4  and  C_5 
REMARK    2  A    between atoms: C_5  and  N_6 
REMARK    3  A    between atoms: C_7  and  C_8 
REMARK       I    between atoms: C_8  and  N_9 
REMARK    4  A    between atoms: N_9  and  N_10 
REMARK       I    between atoms: N_10  and  C_11 
REMARK    5  A    between atoms: C_11  and  C_12 
ROOT
HETATM    1  N   UNL     1      30.225  49.068  41.188  1.00  0.00    -0.337 N 
HETATM    2  C   UNL     1      31.505  48.820  40.702  1.00  0.00     0.106 A 
HETATM    3  C   UNL     1      31.429  47.605  40.032  1.00  0.00     0.049 A 
HETATM    4  C   UNL     1      30.093  47.135  40.070  1.00  0.00    -0.007 A 
HETATM    5  C   UNL     1      29.348  48.072  40.782  1.00  0.00     0.045 A 
HETATM    6  C   UNL     1      29.452  45.994  39.547  1.00  0.00     0.014 A 
HETATM    7  C   UNL     1      28.080  45.822  39.751  1.00  0.00     0.001 A 
HETATM    8  C   UNL     1      27.349  46.767  40.462  1.00  0.00     0.002 A 
HETATM    9  C   UNL     1      27.966  47.905  40.989  1.00  0.00     0.030 A 
ENDROOT
BRANCH   2  10
HETATM   10  C   UNL     1      32.655  49.694  40.863  1.00  0.00     0.286 C 
HETATM   11  N   UNL     1      33.390  49.486  42.013  1.00  0.00    -0.262 N 
HETATM   12  H   UNL     1      33.127  48.831  42.744  1.00  0.00     0.190 HD
HETATM   13  O   UNL     1      32.997  50.551  40.047  1.00  0.00    -0.264 OA
BRANCH  11  14
HETATM   14  N   UNL     1      34.570  50.212  42.210  1.00  0.00    -0.262 N 
HETATM   15  C   UNL     1      34.524  51.377  42.945  1.00  0.00     0.286 C 
HETATM   16  O   UNL     1      33.463  51.828  43.378  1.00  0.00    -0.264 OA
HETATM   17  H   UNL     1      35.424  49.810  41.835  1.00  0.00     0.190 HD
BRANCH  15  18
HETATM   18  C   UNL     1      35.796  52.026  43.168  1.00  0.00     0.102 A 
HETATM   19  N   UNL     1      36.328  52.145  44.437  1.00  0.00    -0.361 N 
HETATM   20  H   UNL     1      35.870  51.798  45.272  1.00  0.00     0.165 HD
HETATM   21  C   UNL     1      37.534  52.789  44.389  1.00  0.00     0.088 A 
HETATM   22  C   UNL     1      37.800  53.087  43.073  1.00  0.00     0.019 A 
HETATM   23  C   UNL     1      36.710  52.610  42.305  1.00  0.00     0.036 A 
ENDBRANCH  15  18
ENDBRANCH  11  14
ENDBRANCH   2  10
BRANCH   1  24
HETATM   24  C   UNL     1      29.834  50.212  42.013  1.00  0.00     0.168 C 
BRANCH  24  25
HETATM   25  C   UNL     1      29.760  51.501  41.226  1.00  0.00    -0.040 A 
HETATM   26  C   UNL     1      28.858  51.619  40.157  1.00  0.00     0.009 A 
HETATM   27  C   UNL     1      28.745  52.818  39.450  1.00  0.00     0.001 A 
HETATM   28  C   UNL     1      29.529  53.915  39.802  1.00  0.00     0.000 A 
HETATM   29  C   UNL     1      30.427  53.813  40.861  1.00  0.00     0.001 A 
HETATM   30  C   UNL     1      30.539  52.617  41.571  1.00  0.00     0.009 A 
ENDBRANCH  24  25
ENDBRANCH   1  24
TORSDOF 5
ENDMDL
MODEL 10
REMARK VINA RESULT:      -7.5     14.232     17.312
REMARK  5 active torsions:
REMARK  status: ('A' for Active; 'I' for Inactive)
REMARK    1  A    between atoms: C_4  and  C_5 
REMARK    2  A    between atoms: C_5  and  N_6 
REMARK    3  A    between atoms: C_7  and  C_8 
REMARK       I    between atoms: C_8  and  N_9 
REMARK    4  A    between atoms: N_9  and  N_10 
REMARK       I    between atoms: N_10  and  C_11 
REMARK    5  A    between atoms: C_11  and  C_12 
ROOT
HETATM    1  N   UNL     1      30.879  50.933  41.608  1.00  0.00    -0.337 N 
HETATM    2  C   UNL     1      30.955  51.798  40.520  1.00  0.00     0.106 A 
HETATM    3  C   UNL     1      30.090  51.283  39.563  1.00  0.00     0.049 A 
HETATM    4  C   UNL     1      29.451  50.130  40.083  1.00  0.00    -0.007 A 
HETATM    5  C   UNL     1      29.943  49.935  41.372  1.00  0.00     0.045 A 
HETATM    6  C   UNL     1      28.487  49.241  39.570  1.00  0.00     0.014 A 
HETATM    7  C   UNL     1      28.039  48.179  40.361  1.00  0.00     0.001 A 
HETATM    8  C   UNL     1      28.537  47.999  41.646  1.00  0.00     0.002 A 
HETATM    9  C   UNL     1      29.495  48.869  42.174  1.00  0.00     0.030 A 
ENDROOT
BRANCH   2  10
HETATM   10  C   UNL     1      31.768  53.001  40.451  1.00  0.00     0.286 C 
HETATM   11  N   UNL     1      32.974  52.853  39.795  1.00  0.00    -0.262 N 
HETATM   12  H   UNL     1      33.325  51.966  39.445  1.00  0.00     0.190 HD
HETATM   13  O   UNL     1      31.433  54.094  40.908  1.00  0.00    -0.264 OA
BRANCH  11  14
HETATM   14  N   UNL     1      33.783  53.976  39.593  1.00  0.00    -0.262 N 
HETATM   15  C   UNL     1      35.048  53.805  39.074  1.00  0.00     0.286 C 
HETATM   16  O   UNL     1      35.509  52.686  38.843  1.00  0.00    -0.264 OA
HETATM   17  H   UNL     1      33.371  54.881  39.798  1.00  0.00     0.190 HD
BRANCH  15  18
HETATM   18  C   UNL     1      35.791  55.020  38.823  1.00  0.00     0.102 A 
HETATM   19  N   UNL     1      35.148  56.222  38.607  1.00  0.00    -0.361 N 
HETATM   20  H   UNL     1      34.141  56.327  38.606  1.00  0.00     0.165 HD
HETATM   21  C   UNL     1      36.062  57.219  38.398  1.00  0.00     0.088 A 
HETATM   22  C   UNL     1      37.317  56.665  38.487  1.00  0.00     0.019 A 
HETATM   23  C   UNL     1      37.150  55.284  38.753  1.00  0.00     0.036 A 
ENDBRANCH  15  18
ENDBRANCH  11  14
ENDBRANCH   2  10
BRANCH   1  24
HETATM   24  C   UNL     1      31.665  51.040  42.838  1.00  0.00     0.168 C 
BRANCH  24  25
HETATM   25  C   UNL     1      33.147  50.853  42.601  1.00  0.00    -0.040 A 
HETATM   26  C   UNL     1      33.595  49.871  41.705  1.00  0.00     0.009 A 
HETATM   27  C   UNL     1      34.958  49.716  41.440  1.00  0.00     0.001 A 
HETATM   28  C   UNL     1      35.889  50.543  42.065  1.00  0.00     0.000 A 
HETATM   29  C   UNL     1      35.459  51.523  42.956  1.00  0.00     0.001 A 
HETATM   30  C   UNL     1      34.098  51.681  43.219  1.00  0.00     0.009 A 
ENDBRANCH  24  25
ENDBRANCH   1  24
TORSDOF 5
ENDMDL
