MODEL 1
REMARK VINA RESULT:      -9.4      0.000      0.000
REMARK  7 active torsions:
REMARK  status: ('A' for Active; 'I' for Inactive)
REMARK       I    between atoms: N_2  and  C_3 
REMARK    1  A    between atoms: N_2  and  C_24 
REMARK    2  A    between atoms: C_3  and  C_4 
REMARK    3  A    between atoms: C_7  and  N_8 
REMARK    4  A    between atoms: C_11  and  N_12 
REMARK       I    between atoms: N_12  and  C_13 
REMARK    5  A    between atoms: C_13  and  C_14 
REMARK    6  A    between atoms: C_24  and  C_25 
REMARK    7  A    between atoms: C_27  and  O_28 
ROOT
HETATM    1  C   UNL     1      26.118  45.122  50.165  1.00  0.00     0.032 A 
HETATM    2  C   UNL     1      26.807  46.330  50.042  1.00  0.00     0.019 A 
HETATM    3  C   UNL     1      26.114  47.518  49.794  1.00  0.00     0.032 A 
HETATM    4  C   UNL     1      24.723  47.504  49.613  1.00  0.00     0.058 A 
HETATM    5  C   UNL     1      24.028  46.293  49.725  1.00  0.00     0.032 A 
HETATM    6  C   UNL     1      24.727  45.110  50.000  1.00  0.00     0.019 A 
ENDROOT
BRANCH   4   7
HETATM    7  N   UNL     1      24.064  48.714  49.254  1.00  0.00    -0.243 N 
HETATM    8  N   UNL     1      24.777  49.793  48.841  1.00  0.00    -0.178 NA
HETATM    9  C   UNL     1      23.859  50.683  48.466  1.00  0.00     0.170 A 
HETATM   10  C   UNL     1      22.548  50.209  48.645  1.00  0.00     0.071 A 
HETATM   11  C   UNL     1      22.707  48.962  49.202  1.00  0.00     0.149 A 
BRANCH  10  12
HETATM   12  N   UNL     1      21.323  50.766  48.337  1.00  0.00    -0.324 N 
HETATM   13  C   UNL     1      20.454  51.292  49.274  1.00  0.00     0.228 C 
HETATM   14  O   UNL     1      20.621  51.255  50.492  1.00  0.00    -0.273 OA
HETATM   15  H   UNL     1      21.066  50.807  47.354  1.00  0.00     0.169 HD
BRANCH  13  16
HETATM   16  C   UNL     1      19.257  52.034  48.688  1.00  0.00     0.104 C 
HETATM   17  C   UNL     1      18.160  52.242  49.706  1.00  0.00     0.181 C 
HETATM   18  O   UNL     1      17.389  51.030  49.663  1.00  0.00    -0.390 OA
HETATM   19  C   UNL     1      17.399  50.560  48.306  1.00  0.00     0.168 C 
HETATM   20  C   UNL     1      18.570  51.226  47.605  1.00  0.00     0.042 C 
ENDBRANCH  13  16
ENDBRANCH  10  12
ENDBRANCH   4   7
BRANCH   1  21
HETATM   21  C   UNL     1      26.826  43.824  50.327  1.00  0.00     0.253 C 
HETATM   22  N   UNL     1      27.130  43.326  51.598  1.00  0.00    -0.348 N 
HETATM   23  C   UNL     1      27.898  42.089  51.658  1.00  0.00     0.153 C 
HETATM   24  O   UNL     1      27.136  43.230  49.294  1.00  0.00    -0.267 OA
BRANCH  22  25
HETATM   25  C   UNL     1      26.420  43.703  52.821  1.00  0.00     0.164 C 
BRANCH  25  26
HETATM   26  C   UNL     1      27.116  44.744  53.675  1.00  0.00    -0.038 A 
HETATM   27  C   UNL     1      28.292  44.479  54.403  1.00  0.00     0.045 A 
HETATM   28  C   UNL     1      28.948  45.494  55.106  1.00  0.00     0.068 A 
HETATM   29  C   UNL     1      28.403  46.777  55.121  1.00  0.00     0.037 A 
HETATM   30  C   UNL     1      27.233  47.057  54.419  1.00  0.00     0.003 A 
HETATM   31  C   UNL     1      26.598  46.049  53.694  1.00  0.00     0.009 A 
BRANCH  28  32
HETATM   32  O   UNL     1      30.112  45.351  55.809  1.00  0.00    -0.356 OA
HETATM   33  C   UNL     1      30.700  44.054  55.805  1.00  0.00     0.210 C 
ENDBRANCH  28  32
ENDBRANCH  25  26
ENDBRANCH  22  25
ENDBRANCH   1  21
TORSDOF 7
ENDMDL
MODEL 2
REMARK VINA RESULT:      -9.3      1.185      1.543
REMARK  7 active torsions:
REMARK  status: ('A' for Active; 'I' for Inactive)
REMARK       I    between atoms: N_2  and  C_3 
REMARK    1  A    between atoms: N_2  and  C_24 
REMARK    2  A    between atoms: C_3  and  C_4 
REMARK    3  A    between atoms: C_7  and  N_8 
REMARK    4  A    between atoms: C_11  and  N_12 
REMARK       I    between atoms: N_12  and  C_13 
REMARK    5  A    between atoms: C_13  and  C_14 
REMARK    6  A    between atoms: C_24  and  C_25 
REMARK    7  A    between atoms: C_27  and  O_28 
ROOT
HETATM    1  C   UNL     1      26.483  43.987  50.891  1.00  0.00     0.032 A 
HETATM    2  C   UNL     1      25.121  44.248  51.041  1.00  0.00     0.019 A 
HETATM    3  C   UNL     1      24.570  45.435  50.551  1.00  0.00     0.032 A 
HETATM    4  C   UNL     1      25.389  46.404  49.950  1.00  0.00     0.058 A 
HETATM    5  C   UNL     1      26.759  46.150  49.807  1.00  0.00     0.032 A 
HETATM    6  C   UNL     1      27.300  44.946  50.277  1.00  0.00     0.019 A 
ENDROOT
BRANCH   4   7
HETATM    7  N   UNL     1      24.813  47.647  49.562  1.00  0.00    -0.243 N 
HETATM    8  N   UNL     1      25.594  48.649  49.083  1.00  0.00    -0.178 NA
HETATM    9  C   UNL     1      24.734  49.594  48.700  1.00  0.00     0.170 A 
HETATM   10  C   UNL     1      23.397  49.231  48.938  1.00  0.00     0.071 A 
HETATM   11  C   UNL     1      23.478  47.998  49.541  1.00  0.00     0.149 A 
BRANCH  10  12
HETATM   12  N   UNL     1      22.209  49.870  48.645  1.00  0.00    -0.324 N 
HETATM   13  C   UNL     1      21.604  50.797  49.472  1.00  0.00     0.228 C 
HETATM   14  O   UNL     1      21.997  51.105  50.596  1.00  0.00    -0.273 OA
HETATM   15  H   UNL     1      21.775  49.654  47.752  1.00  0.00     0.169 HD
BRANCH  13  16
HETATM   16  C   UNL     1      20.412  51.520  48.855  1.00  0.00     0.104 C 
HETATM   17  C   UNL     1      19.245  51.616  49.810  1.00  0.00     0.181 C 
HETATM   18  O   UNL     1      18.538  50.376  49.646  1.00  0.00    -0.390 OA
HETATM   19  C   UNL     1      18.654  49.992  48.267  1.00  0.00     0.168 C 
HETATM   20  C   UNL     1      19.833  50.751  47.683  1.00  0.00     0.042 C 
ENDBRANCH  13  16
ENDBRANCH  10  12
ENDBRANCH   4   7
BRANCH   1  21
HETATM   21  C   UNL     1      27.125  42.784  51.486  1.00  0.00     0.253 C 
HETATM   22  N   UNL     1      27.328  42.687  52.866  1.00  0.00    -0.348 N 
HETATM   23  C   UNL     1      28.039  41.511  53.350  1.00  0.00     0.153 C 
HETATM   24  O   UNL     1      27.476  41.899  50.703  1.00  0.00    -0.267 OA
BRANCH  22  25
HETATM   25  C   UNL     1      26.558  43.430  53.865  1.00  0.00     0.164 C 
BRANCH  25  26
HETATM   26  C   UNL     1      27.189  44.728  54.330  1.00  0.00    -0.038 A 
HETATM   27  C   UNL     1      28.405  44.781  55.037  1.00  0.00     0.045 A 
HETATM   28  C   UNL     1      28.993  46.005  55.367  1.00  0.00     0.068 A 
HETATM   29  C   UNL     1      28.341  47.190  55.030  1.00  0.00     0.037 A 
HETATM   30  C   UNL     1      27.130  47.159  54.342  1.00  0.00     0.003 A 
HETATM   31  C   UNL     1      26.562  45.936  53.987  1.00  0.00     0.009 A 
BRANCH  28  32
HETATM   32  O   UNL     1      30.186  46.165  56.016  1.00  0.00    -0.356 OA
HETATM   33  C   UNL     1      30.305  45.542  57.290  1.00  0.00     0.210 C 
ENDBRANCH  28  32
ENDBRANCH  25  26
ENDBRANCH  22  25
ENDBRANCH   1  21
TORSDOF 7
ENDMDL
MODEL 3
REMARK VINA RESULT:      -8.8      1.749      2.533
REMARK  7 active torsions:
REMARK  status: ('A' for Active; 'I' for Inactive)
REMARK       I    between atoms: N_2  and  C_3 
REMARK    1  A    between atoms: N_2  and  C_24 
REMARK    2  A    between atoms: C_3  and  C_4 
REMARK    3  A    between atoms: C_7  and  N_8 
REMARK    4  A    between atoms: C_11  and  N_12 
REMARK       I    between atoms: N_12  and  C_13 
REMARK    5  A    between atoms: C_13  and  C_14 
REMARK    6  A    between atoms: C_24  and  C_25 
REMARK    7  A    between atoms: C_27  and  O_28 
ROOT
HETATM    1  C   UNL     1      26.485  43.575  50.927  1.00  0.00     0.032 A 
HETATM    2  C   UNL     1      26.917  44.744  50.300  1.00  0.00     0.019 A 
HETATM    3  C   UNL     1      25.990  45.660  49.796  1.00  0.00     0.032 A 
HETATM    4  C   UNL     1      24.614  45.392  49.866  1.00  0.00     0.058 A 
HETATM    5  C   UNL     1      24.177  44.214  50.486  1.00  0.00     0.032 A 
HETATM    6  C   UNL     1      25.111  43.312  51.013  1.00  0.00     0.019 A 
ENDROOT
BRANCH   4   7
HETATM    7  N   UNL     1      23.704  46.294  49.246  1.00  0.00    -0.243 N 
HETATM    8  N   UNL     1      22.907  45.879  48.229  1.00  0.00    -0.178 NA
HETATM    9  C   UNL     1      22.106  46.916  47.982  1.00  0.00     0.170 A 
HETATM   10  C   UNL     1      22.380  48.015  48.814  1.00  0.00     0.071 A 
HETATM   11  C   UNL     1      23.446  47.608  49.580  1.00  0.00     0.149 A 
BRANCH  10  12
HETATM   12  N   UNL     1      21.766  49.245  48.938  1.00  0.00    -0.324 N 
HETATM   13  C   UNL     1      20.522  49.435  49.507  1.00  0.00     0.228 C 
HETATM   14  O   UNL     1      19.776  48.536  49.894  1.00  0.00    -0.273 OA
HETATM   15  H   UNL     1      22.282  50.056  48.607  1.00  0.00     0.169 HD
BRANCH  13  16
HETATM   16  C   UNL     1      20.133  50.895  49.721  1.00  0.00     0.104 C 
HETATM   17  C   UNL     1      18.668  51.053  50.052  1.00  0.00     0.181 C 
HETATM   18  O   UNL     1      18.009  51.098  48.775  1.00  0.00    -0.390 OA
HETATM   19  C   UNL     1      18.891  51.765  47.858  1.00  0.00     0.168 C 
HETATM   20  C   UNL     1      20.288  51.709  48.452  1.00  0.00     0.042 C 
ENDBRANCH  13  16
ENDBRANCH  10  12
ENDBRANCH   4   7
BRANCH   1  21
HETATM   21  C   UNL     1      27.437  42.528  51.386  1.00  0.00     0.253 C 
HETATM   22  N   UNL     1      27.847  42.465  52.721  1.00  0.00    -0.348 N 
HETATM   23  C   UNL     1      28.845  41.460  53.061  1.00  0.00     0.153 C 
HETATM   24  O   UNL     1      27.849  41.742  50.532  1.00  0.00    -0.267 OA
BRANCH  22  25
HETATM   25  C   UNL     1      27.089  43.024  53.842  1.00  0.00     0.164 C 
BRANCH  25  26
HETATM   26  C   UNL     1      27.499  44.421  54.264  1.00  0.00    -0.038 A 
HETATM   27  C   UNL     1      26.651  45.538  54.146  1.00  0.00     0.045 A 
HETATM   28  C   UNL     1      27.039  46.791  54.630  1.00  0.00     0.068 A 
HETATM   29  C   UNL     1      28.303  46.943  55.199  1.00  0.00     0.037 A 
HETATM   30  C   UNL     1      29.162  45.852  55.313  1.00  0.00     0.003 A 
HETATM   31  C   UNL     1      28.759  44.597  54.856  1.00  0.00     0.009 A 
BRANCH  28  32
HETATM   32  O   UNL     1      26.278  47.927  54.600  1.00  0.00    -0.356 OA
HETATM   33  C   UNL     1      26.282  48.724  55.780  1.00  0.00     0.210 C 
ENDBRANCH  28  32
ENDBRANCH  25  26
ENDBRANCH  22  25
ENDBRANCH   1  21
TORSDOF 7
ENDMDL
MODEL 4
REMARK VINA RESULT:      -8.7      1.712      2.707
REMARK  7 active torsions:
REMARK  status: ('A' for Active; 'I' for Inactive)
REMARK       I    between atoms: N_2  and  C_3 
REMARK    1  A    between atoms: N_2  and  C_24 
REMARK    2  A    between atoms: C_3  and  C_4 
REMARK    3  A    between atoms: C_7  and  N_8 
REMARK    4  A    between atoms: C_11  and  N_12 
REMARK       I    between atoms: N_12  and  C_13 
REMARK    5  A    between atoms: C_13  and  C_14 
REMARK    6  A    between atoms: C_24  and  C_25 
REMARK    7  A    between atoms: C_27  and  O_28 
ROOT
HETATM    1  C   UNL     1      26.777  43.464  50.968  1.00  0.00     0.032 A 
HETATM    2  C   UNL     1      25.406  43.716  51.027  1.00  0.00     0.019 A 
HETATM    3  C   UNL     1      24.891  44.934  50.577  1.00  0.00     0.032 A 
HETATM    4  C   UNL     1      25.751  45.941  50.111  1.00  0.00     0.058 A 
HETATM    5  C   UNL     1      27.129  45.696  50.060  1.00  0.00     0.032 A 
HETATM    6  C   UNL     1      27.636  44.462  50.488  1.00  0.00     0.019 A 
ENDROOT
BRANCH   4   7
HETATM    7  N   UNL     1      25.202  47.208  49.764  1.00  0.00    -0.243 N 
HETATM    8  N   UNL     1      25.995  48.190  49.264  1.00  0.00    -0.178 NA
HETATM    9  C   UNL     1      25.153  49.169  48.931  1.00  0.00     0.170 A 
HETATM   10  C   UNL     1      23.816  48.848  49.223  1.00  0.00     0.071 A 
HETATM   11  C   UNL     1      23.881  47.605  49.806  1.00  0.00     0.149 A 
BRANCH  10  12
HETATM   12  N   UNL     1      22.640  49.531  48.991  1.00  0.00    -0.324 N 
HETATM   13  C   UNL     1      21.685  49.140  48.073  1.00  0.00     0.228 C 
HETATM   14  O   UNL     1      21.798  48.193  47.296  1.00  0.00    -0.273 OA
HETATM   15  H   UNL     1      22.466  50.360  49.554  1.00  0.00     0.169 HD
BRANCH  13  16
HETATM   16  C   UNL     1      20.381  49.928  48.131  1.00  0.00     0.104 C 
HETATM   17  C   UNL     1      20.545  51.253  48.839  1.00  0.00     0.181 C 
HETATM   18  O   UNL     1      20.384  50.943  50.233  1.00  0.00    -0.390 OA
HETATM   19  C   UNL     1      19.416  49.886  50.331  1.00  0.00     0.168 C 
HETATM   20  C   UNL     1      19.333  49.220  48.968  1.00  0.00     0.042 C 
ENDBRANCH  13  16
ENDBRANCH  10  12
ENDBRANCH   4   7
BRANCH   1  21
HETATM   21  C   UNL     1      27.376  42.222  51.529  1.00  0.00     0.253 C 
HETATM   22  N   UNL     1      27.683  42.125  52.889  1.00  0.00    -0.348 N 
HETATM   23  C   UNL     1      28.343  40.904  53.333  1.00  0.00     0.153 C 
HETATM   24  O   UNL     1      27.593  41.305  50.735  1.00  0.00    -0.267 OA
BRANCH  22  25
HETATM   25  C   UNL     1      27.057  42.934  53.935  1.00  0.00     0.164 C 
BRANCH  25  26
HETATM   26  C   UNL     1      27.887  44.101  54.432  1.00  0.00    -0.038 A 
HETATM   27  C   UNL     1      27.392  45.416  54.515  1.00  0.00     0.045 A 
HETATM   28  C   UNL     1      28.165  46.443  55.063  1.00  0.00     0.068 A 
HETATM   29  C   UNL     1      29.463  46.168  55.493  1.00  0.00     0.037 A 
HETATM   30  C   UNL     1      29.976  44.875  55.407  1.00  0.00     0.003 A 
HETATM   31  C   UNL     1      29.191  43.847  54.888  1.00  0.00     0.009 A 
BRANCH  28  32
HETATM   32  O   UNL     1      27.766  47.741  55.224  1.00  0.00    -0.356 OA
HETATM   33  C   UNL     1      26.386  48.012  55.002  1.00  0.00     0.210 C 
ENDBRANCH  28  32
ENDBRANCH  25  26
ENDBRANCH  22  25
ENDBRANCH   1  21
TORSDOF 7
ENDMDL
MODEL 5
REMARK VINA RESULT:      -8.7      2.474     10.453
REMARK  7 active torsions:
REMARK  status: ('A' for Active; 'I' for Inactive)
REMARK       I    between atoms: N_2  and  C_3 
REMARK    1  A    between atoms: N_2  and  C_24 
REMARK    2  A    between atoms: C_3  and  C_4 
REMARK    3  A    between atoms: C_7  and  N_8 
REMARK    4  A    between atoms: C_11  and  N_12 
REMARK       I    between atoms: N_12  and  C_13 
REMARK    5  A    between atoms: C_13  and  C_14 
REMARK    6  A    between atoms: C_24  and  C_25 
REMARK    7  A    between atoms: C_27  and  O_28 
ROOT
HETATM    1  C   UNL     1      22.340  47.020  48.305  1.00  0.00     0.032 A 
HETATM    2  C   UNL     1      23.018  48.106  48.861  1.00  0.00     0.019 A 
HETATM    3  C   UNL     1      24.034  47.901  49.797  1.00  0.00     0.032 A 
HETATM    4  C   UNL     1      24.350  46.604  50.232  1.00  0.00     0.058 A 
HETATM    5  C   UNL     1      23.664  45.512  49.684  1.00  0.00     0.032 A 
HETATM    6  C   UNL     1      22.664  45.724  48.726  1.00  0.00     0.019 A 
ENDROOT
BRANCH   4   7
HETATM    7  N   UNL     1      25.314  46.440  51.266  1.00  0.00    -0.243 N 
HETATM    8  N   UNL     1      25.385  47.329  52.291  1.00  0.00    -0.178 NA
HETATM    9  C   UNL     1      26.284  46.809  53.127  1.00  0.00     0.170 A 
HETATM   10  C   UNL     1      26.819  45.598  52.655  1.00  0.00     0.071 A 
HETATM   11  C   UNL     1      26.218  45.410  51.433  1.00  0.00     0.149 A 
BRANCH  10  12
HETATM   12  N   UNL     1      27.713  44.711  53.220  1.00  0.00    -0.324 N 
HETATM   13  C   UNL     1      27.362  43.724  54.120  1.00  0.00     0.228 C 
HETATM   14  O   UNL     1      26.237  43.565  54.592  1.00  0.00    -0.273 OA
HETATM   15  H   UNL     1      28.685  44.784  52.928  1.00  0.00     0.169 HD
BRANCH  13  16
HETATM   16  C   UNL     1      28.476  42.736  54.452  1.00  0.00     0.104 C 
HETATM   17  C   UNL     1      29.826  43.218  53.977  1.00  0.00     0.181 C 
HETATM   18  O   UNL     1      29.902  42.793  52.605  1.00  0.00    -0.390 OA
HETATM   19  C   UNL     1      29.210  41.538  52.504  1.00  0.00     0.168 C 
HETATM   20  C   UNL     1      28.301  41.423  53.715  1.00  0.00     0.042 C 
ENDBRANCH  13  16
ENDBRANCH  10  12
ENDBRANCH   4   7
BRANCH   1  21
HETATM   21  C   UNL     1      21.186  47.199  47.383  1.00  0.00     0.253 C 
HETATM   22  N   UNL     1      19.910  47.489  47.877  1.00  0.00    -0.348 N 
HETATM   23  C   UNL     1      18.826  47.565  46.907  1.00  0.00     0.153 C 
HETATM   24  O   UNL     1      21.413  47.066  46.180  1.00  0.00    -0.267 OA
BRANCH  22  25
HETATM   25  C   UNL     1      19.653  48.104  49.181  1.00  0.00     0.164 C 
BRANCH  25  26
HETATM   26  C   UNL     1      19.272  49.571  49.138  1.00  0.00    -0.038 A 
HETATM   27  C   UNL     1      18.071  50.068  49.676  1.00  0.00     0.045 A 
HETATM   28  C   UNL     1      17.803  51.440  49.693  1.00  0.00     0.068 A 
HETATM   29  C   UNL     1      18.721  52.323  49.127  1.00  0.00     0.037 A 
HETATM   30  C   UNL     1      19.910  51.849  48.576  1.00  0.00     0.003 A 
HETATM   31  C   UNL     1      20.188  50.483  48.589  1.00  0.00     0.009 A 
BRANCH  28  32
HETATM   32  O   UNL     1      16.688  52.027  50.225  1.00  0.00    -0.356 OA
HETATM   33  C   UNL     1      15.584  52.206  49.345  1.00  0.00     0.210 C 
ENDBRANCH  28  32
ENDBRANCH  25  26
ENDBRANCH  22  25
ENDBRANCH   1  21
TORSDOF 7
ENDMDL
MODEL 6
REMARK VINA RESULT:      -8.3     11.700     15.403
REMARK  7 active torsions:
REMARK  status: ('A' for Active; 'I' for Inactive)
REMARK       I    between atoms: N_2  and  C_3 
REMARK    1  A    between atoms: N_2  and  C_24 
REMARK    2  A    between atoms: C_3  and  C_4 
REMARK    3  A    between atoms: C_7  and  N_8 
REMARK    4  A    between atoms: C_11  and  N_12 
REMARK       I    between atoms: N_12  and  C_13 
REMARK    5  A    between atoms: C_13  and  C_14 
REMARK    6  A    between atoms: C_24  and  C_25 
REMARK    7  A    between atoms: C_27  and  O_28 
ROOT
HETATM    1  C   UNL     1      30.442  48.818  41.213  1.00  0.00     0.032 A 
HETATM    2  C   UNL     1      30.842  48.918  42.546  1.00  0.00     0.019 A 
HETATM    3  C   UNL     1      32.047  49.542  42.878  1.00  0.00     0.032 A 
HETATM    4  C   UNL     1      32.896  50.030  41.873  1.00  0.00     0.058 A 
HETATM    5  C   UNL     1      32.503  49.922  40.533  1.00  0.00     0.032 A 
HETATM    6  C   UNL     1      31.281  49.318  40.208  1.00  0.00     0.019 A 
ENDROOT
BRANCH   4   7
HETATM    7  N   UNL     1      34.164  50.561  42.241  1.00  0.00    -0.243 N 
HETATM    8  N   UNL     1      35.310  49.997  41.779  1.00  0.00    -0.178 NA
HETATM    9  C   UNL     1      36.280  50.808  42.200  1.00  0.00     0.170 A 
HETATM   10  C   UNL     1      35.787  51.891  42.948  1.00  0.00     0.071 A 
HETATM   11  C   UNL     1      34.430  51.680  43.005  1.00  0.00     0.149 A 
BRANCH  10  12
HETATM   12  N   UNL     1      36.423  52.980  43.510  1.00  0.00    -0.324 N 
HETATM   13  C   UNL     1      37.378  52.891  44.505  1.00  0.00     0.228 C 
HETATM   14  O   UNL     1      37.717  51.852  45.069  1.00  0.00    -0.273 OA
HETATM   15  H   UNL     1      36.182  53.897  43.144  1.00  0.00     0.169 HD
BRANCH  13  16
HETATM   16  C   UNL     1      38.088  54.202  44.827  1.00  0.00     0.104 C 
HETATM   17  C   UNL     1      39.519  53.985  45.260  1.00  0.00     0.181 C 
HETATM   18  O   UNL     1      39.437  53.719  46.670  1.00  0.00    -0.390 OA
HETATM   19  C   UNL     1      38.356  54.506  47.195  1.00  0.00     0.168 C 
HETATM   20  C   UNL     1      37.469  54.896  46.026  1.00  0.00     0.042 C 
ENDBRANCH  13  16
ENDBRANCH  10  12
ENDBRANCH   4   7
BRANCH   1  21
HETATM   21  C   UNL     1      29.219  48.072  40.811  1.00  0.00     0.253 C 
HETATM   22  N   UNL     1      27.952  48.501  41.216  1.00  0.00    -0.348 N 
HETATM   23  C   UNL     1      26.819  47.662  40.845  1.00  0.00     0.153 C 
HETATM   24  O   UNL     1      29.387  47.064  40.123  1.00  0.00    -0.267 OA
BRANCH  22  25
HETATM   25  C   UNL     1      27.634  49.874  41.610  1.00  0.00     0.164 C 
BRANCH  25  26
HETATM   26  C   UNL     1      28.000  50.938  40.593  1.00  0.00    -0.038 A 
HETATM   27  C   UNL     1      28.662  52.131  40.936  1.00  0.00     0.045 A 
HETATM   28  C   UNL     1      29.058  53.043  39.953  1.00  0.00     0.068 A 
HETATM   29  C   UNL     1      28.752  52.784  38.618  1.00  0.00     0.037 A 
HETATM   30  C   UNL     1      28.085  51.615  38.259  1.00  0.00     0.003 A 
HETATM   31  C   UNL     1      27.719  50.693  39.240  1.00  0.00     0.009 A 
BRANCH  28  32
HETATM   32  O   UNL     1      29.739  54.208  40.175  1.00  0.00    -0.356 OA
HETATM   33  C   UNL     1      31.010  54.090  40.806  1.00  0.00     0.210 C 
ENDBRANCH  28  32
ENDBRANCH  25  26
ENDBRANCH  22  25
ENDBRANCH   1  21
TORSDOF 7
ENDMDL
MODEL 7
REMARK VINA RESULT:      -8.0     12.735     16.255
REMARK  7 active torsions:
REMARK  status: ('A' for Active; 'I' for Inactive)
REMARK       I    between atoms: N_2  and  C_3 
REMARK    1  A    between atoms: N_2  and  C_24 
REMARK    2  A    between atoms: C_3  and  C_4 
REMARK    3  A    between atoms: C_7  and  N_8 
REMARK    4  A    between atoms: C_11  and  N_12 
REMARK       I    between atoms: N_12  and  C_13 
REMARK    5  A    between atoms: C_13  and  C_14 
REMARK    6  A    between atoms: C_24  and  C_25 
REMARK    7  A    between atoms: C_27  and  O_28 
ROOT
HETATM    1  C   UNL     1      33.303  49.202  41.289  1.00  0.00     0.032 A 
HETATM    2  C   UNL     1      34.611  49.326  40.816  1.00  0.00     0.019 A 
HETATM    3  C   UNL     1      35.485  50.253  41.389  1.00  0.00     0.032 A 
HETATM    4  C   UNL     1      35.044  51.109  42.411  1.00  0.00     0.058 A 
HETATM    5  C   UNL     1      33.730  50.994  42.881  1.00  0.00     0.032 A 
HETATM    6  C   UNL     1      32.867  50.044  42.320  1.00  0.00     0.019 A 
ENDROOT
BRANCH   4   7
HETATM    7  N   UNL     1      35.928  52.114  42.895  1.00  0.00    -0.243 N 
HETATM    8  N   UNL     1      36.526  52.980  42.037  1.00  0.00    -0.178 NA
HETATM    9  C   UNL     1      37.162  53.849  42.822  1.00  0.00     0.170 A 
HETATM   10  C   UNL     1      37.005  53.554  44.187  1.00  0.00     0.071 A 
HETATM   11  C   UNL     1      36.253  52.404  44.205  1.00  0.00     0.149 A 
BRANCH  10  12
HETATM   12  N   UNL     1      37.434  54.214  45.321  1.00  0.00    -0.324 N 
HETATM   13  C   UNL     1      38.193  53.629  46.317  1.00  0.00     0.228 C 
HETATM   14  O   UNL     1      38.507  52.441  46.361  1.00  0.00    -0.273 OA
HETATM   15  H   UNL     1      37.190  55.197  45.405  1.00  0.00     0.169 HD
BRANCH  13  16
HETATM   16  C   UNL     1      38.720  54.598  47.370  1.00  0.00     0.104 C 
HETATM   17  C   UNL     1      39.594  55.674  46.770  1.00  0.00     0.181 C 
HETATM   18  O   UNL     1      40.903  55.084  46.702  1.00  0.00    -0.390 OA
HETATM   19  C   UNL     1      41.046  54.219  47.839  1.00  0.00     0.168 C 
HETATM   20  C   UNL     1      39.650  53.910  48.351  1.00  0.00     0.042 C 
ENDBRANCH  13  16
ENDBRANCH  10  12
ENDBRANCH   4   7
BRANCH   1  21
HETATM   21  C   UNL     1      32.313  48.300  40.641  1.00  0.00     0.253 C 
HETATM   22  N   UNL     1      31.422  48.785  39.679  1.00  0.00    -0.348 N 
HETATM   23  C   UNL     1      30.434  47.850  39.160  1.00  0.00     0.153 C 
HETATM   24  O   UNL     1      32.314  47.124  41.006  1.00  0.00    -0.267 OA
BRANCH  22  25
HETATM   25  C   UNL     1      31.651  49.990  38.878  1.00  0.00     0.164 C 
BRANCH  25  26
HETATM   26  C   UNL     1      31.212  51.288  39.526  1.00  0.00    -0.038 A 
HETATM   27  C   UNL     1      29.925  51.482  40.061  1.00  0.00     0.045 A 
HETATM   28  C   UNL     1      29.592  52.664  40.728  1.00  0.00     0.068 A 
HETATM   29  C   UNL     1      30.538  53.683  40.825  1.00  0.00     0.037 A 
HETATM   30  C   UNL     1      31.815  53.517  40.290  1.00  0.00     0.003 A 
HETATM   31  C   UNL     1      32.152  52.323  39.653  1.00  0.00     0.009 A 
BRANCH  28  32
HETATM   32  O   UNL     1      28.388  52.936  41.316  1.00  0.00    -0.356 OA
HETATM   33  C   UNL     1      27.404  51.908  41.250  1.00  0.00     0.210 C 
ENDBRANCH  28  32
ENDBRANCH  25  26
ENDBRANCH  22  25
ENDBRANCH   1  21
TORSDOF 7
ENDMDL
MODEL 8
REMARK VINA RESULT:      -7.8     13.174     16.698
REMARK  7 active torsions:
REMARK  status: ('A' for Active; 'I' for Inactive)
REMARK       I    between atoms: N_2  and  C_3 
REMARK    1  A    between atoms: N_2  and  C_24 
REMARK    2  A    between atoms: C_3  and  C_4 
REMARK    3  A    between atoms: C_7  and  N_8 
REMARK    4  A    between atoms: C_11  and  N_12 
REMARK       I    between atoms: N_12  and  C_13 
REMARK    5  A    between atoms: C_13  and  C_14 
REMARK    6  A    between atoms: C_24  and  C_25 
REMARK    7  A    between atoms: C_27  and  O_28 
ROOT
HETATM    1  C   UNL     1      32.475  50.342  42.844  1.00  0.00     0.032 A 
HETATM    2  C   UNL     1      32.551  51.266  43.887  1.00  0.00     0.019 A 
HETATM    3  C   UNL     1      33.728  51.983  44.113  1.00  0.00     0.032 A 
HETATM    4  C   UNL     1      34.867  51.746  43.328  1.00  0.00     0.058 A 
HETATM    5  C   UNL     1      34.799  50.812  42.286  1.00  0.00     0.032 A 
HETATM    6  C   UNL     1      33.607  50.115  42.049  1.00  0.00     0.019 A 
ENDROOT
BRANCH   4   7
HETATM    7  N   UNL     1      36.080  52.415  43.655  1.00  0.00    -0.243 N 
HETATM    8  N   UNL     1      36.550  53.418  42.870  1.00  0.00    -0.178 NA
HETATM    9  C   UNL     1      37.605  53.897  43.528  1.00  0.00     0.170 A 
HETATM   10  C   UNL     1      37.847  53.208  44.729  1.00  0.00     0.071 A 
HETATM   11  C   UNL     1      36.885  52.227  44.761  1.00  0.00     0.149 A 
BRANCH  10  12
HETATM   12  N   UNL     1      38.779  53.409  45.727  1.00  0.00    -0.324 N 
HETATM   13  C   UNL     1      39.992  52.752  45.798  1.00  0.00     0.228 C 
HETATM   14  O   UNL     1      40.356  51.855  45.038  1.00  0.00    -0.273 OA
HETATM   15  H   UNL     1      38.557  54.103  46.436  1.00  0.00     0.169 HD
BRANCH  13  16
HETATM   16  C   UNL     1      40.943  53.278  46.868  1.00  0.00     0.104 C 
HETATM   17  C   UNL     1      40.403  54.510  47.556  1.00  0.00     0.181 C 
HETATM   18  O   UNL     1      40.799  55.603  46.710  1.00  0.00    -0.390 OA
HETATM   19  C   UNL     1      42.077  55.269  46.145  1.00  0.00     0.168 C 
HETATM   20  C   UNL     1      42.248  53.765  46.269  1.00  0.00     0.042 C 
ENDBRANCH  13  16
ENDBRANCH  10  12
ENDBRANCH   4   7
BRANCH   1  21
HETATM   21  C   UNL     1      31.277  49.486  42.634  1.00  0.00     0.253 C 
HETATM   22  N   UNL     1      30.064  50.040  42.214  1.00  0.00    -0.348 N 
HETATM   23  C   UNL     1      28.923  49.140  42.115  1.00  0.00     0.153 C 
HETATM   24  O   UNL     1      31.409  48.283  42.861  1.00  0.00    -0.267 OA
BRANCH  22  25
HETATM   25  C   UNL     1      29.943  51.312  41.499  1.00  0.00     0.164 C 
BRANCH  25  26
HETATM   26  C   UNL     1      30.966  51.535  40.403  1.00  0.00    -0.038 A 
HETATM   27  C   UNL     1      31.912  52.576  40.435  1.00  0.00     0.045 A 
HETATM   28  C   UNL     1      32.893  52.690  39.446  1.00  0.00     0.068 A 
HETATM   29  C   UNL     1      32.905  51.783  38.388  1.00  0.00     0.037 A 
HETATM   30  C   UNL     1      31.968  50.753  38.329  1.00  0.00     0.003 A 
HETATM   31  C   UNL     1      31.010  50.624  39.335  1.00  0.00     0.009 A 
BRANCH  28  32
HETATM   32  O   UNL     1      33.879  53.637  39.407  1.00  0.00    -0.356 OA
HETATM   33  C   UNL     1      35.219  53.161  39.477  1.00  0.00     0.210 C 
ENDBRANCH  28  32
ENDBRANCH  25  26
ENDBRANCH  22  25
ENDBRANCH   1  21
TORSDOF 7
ENDMDL
MODEL 9
REMARK VINA RESULT:      -7.8      4.901     10.647
REMARK  7 active torsions:
REMARK  status: ('A' for Active; 'I' for Inactive)
REMARK       I    between atoms: N_2  and  C_3 
REMARK    1  A    between atoms: N_2  and  C_24 
REMARK    2  A    between atoms: C_3  and  C_4 
REMARK    3  A    between atoms: C_7  and  N_8 
REMARK    4  A    between atoms: C_11  and  N_12 
REMARK       I    between atoms: N_12  and  C_13 
REMARK    5  A    between atoms: C_13  and  C_14 
REMARK    6  A    between atoms: C_24  and  C_25 
REMARK    7  A    between atoms: C_27  and  O_28 
ROOT
HETATM    1  C   UNL     1      28.285  43.685  53.542  1.00  0.00     0.032 A 
HETATM    2  C   UNL     1      28.376  43.817  52.155  1.00  0.00     0.019 A 
HETATM    3  C   UNL     1      28.426  42.684  51.339  1.00  0.00     0.032 A 
HETATM    4  C   UNL     1      28.439  41.400  51.904  1.00  0.00     0.058 A 
HETATM    5  C   UNL     1      28.358  41.263  53.296  1.00  0.00     0.032 A 
HETATM    6  C   UNL     1      28.282  42.403  54.107  1.00  0.00     0.019 A 
ENDROOT
BRANCH   4   7
HETATM    7  N   UNL     1      28.601  40.273  51.049  1.00  0.00    -0.243 N 
HETATM    8  N   UNL     1      29.385  39.229  51.424  1.00  0.00    -0.178 NA
HETATM    9  C   UNL     1      29.206  38.313  50.472  1.00  0.00     0.170 A 
HETATM   10  C   UNL     1      28.328  38.750  49.465  1.00  0.00     0.071 A 
HETATM   11  C   UNL     1      27.994  40.032  49.833  1.00  0.00     0.149 A 
BRANCH  10  12
HETATM   12  N   UNL     1      27.826  38.112  48.349  1.00  0.00    -0.324 N 
HETATM   13  C   UNL     1      26.825  37.161  48.385  1.00  0.00     0.228 C 
HETATM   14  O   UNL     1      26.319  36.705  49.409  1.00  0.00    -0.273 OA
HETATM   15  H   UNL     1      28.208  38.386  47.447  1.00  0.00     0.169 HD
BRANCH  13  16
HETATM   16  C   UNL     1      26.291  36.744  47.018  1.00  0.00     0.104 C 
HETATM   17  C   UNL     1      25.854  35.298  46.993  1.00  0.00     0.181 C 
HETATM   18  O   UNL     1      27.055  34.559  46.714  1.00  0.00    -0.390 OA
HETATM   19  C   UNL     1      27.860  35.361  45.836  1.00  0.00     0.168 C 
HETATM   20  C   UNL     1      27.370  36.794  45.954  1.00  0.00     0.042 C 
ENDBRANCH  13  16
ENDBRANCH  10  12
ENDBRANCH   4   7
BRANCH   1  21
HETATM   21  C   UNL     1      28.331  44.862  54.450  1.00  0.00     0.253 C 
HETATM   22  N   UNL     1      27.237  45.724  54.565  1.00  0.00    -0.348 N 
HETATM   23  C   UNL     1      27.403  46.896  55.414  1.00  0.00     0.153 C 
HETATM   24  O   UNL     1      29.378  45.037  55.075  1.00  0.00    -0.267 OA
BRANCH  22  25
HETATM   25  C   UNL     1      25.858  45.350  54.246  1.00  0.00     0.164 C 
BRANCH  25  26
HETATM   26  C   UNL     1      25.415  45.664  52.831  1.00  0.00    -0.038 A 
HETATM   27  C   UNL     1      25.643  46.907  52.213  1.00  0.00     0.045 A 
HETATM   28  C   UNL     1      25.297  47.122  50.876  1.00  0.00     0.068 A 
HETATM   29  C   UNL     1      24.676  46.100  50.158  1.00  0.00     0.037 A 
HETATM   30  C   UNL     1      24.429  44.866  50.756  1.00  0.00     0.003 A 
HETATM   31  C   UNL     1      24.804  44.646  52.081  1.00  0.00     0.009 A 
BRANCH  28  32
HETATM   32  O   UNL     1      25.510  48.275  50.173  1.00  0.00    -0.356 OA
HETATM   33  C   UNL     1      26.718  48.347  49.423  1.00  0.00     0.210 C 
ENDBRANCH  28  32
ENDBRANCH  25  26
ENDBRANCH  22  25
ENDBRANCH   1  21
TORSDOF 7
ENDMDL
MODEL 10
REMARK VINA RESULT:      -7.6      4.373      5.845
REMARK  7 active torsions:
REMARK  status: ('A' for Active; 'I' for Inactive)
REMARK       I    between atoms: N_2  and  C_3 
REMARK    1  A    between atoms: N_2  and  C_24 
REMARK    2  A    between atoms: C_3  and  C_4 
REMARK    3  A    between atoms: C_7  and  N_8 
REMARK    4  A    between atoms: C_11  and  N_12 
REMARK       I    between atoms: N_12  and  C_13 
REMARK    5  A    between atoms: C_13  and  C_14 
REMARK    6  A    between atoms: C_24  and  C_25 
REMARK    7  A    between atoms: C_27  and  O_28 
ROOT
HETATM    1  C   UNL     1      28.376  42.892  52.327  1.00  0.00     0.032 A 
HETATM    2  C   UNL     1      28.116  43.915  51.413  1.00  0.00     0.019 A 
HETATM    3  C   UNL     1      27.109  43.769  50.456  1.00  0.00     0.032 A 
HETATM    4  C   UNL     1      26.382  42.572  50.366  1.00  0.00     0.058 A 
HETATM    5  C   UNL     1      26.646  41.539  51.275  1.00  0.00     0.032 A 
HETATM    6  C   UNL     1      27.640  41.703  52.249  1.00  0.00     0.019 A 
ENDROOT
BRANCH   4   7
HETATM    7  N   UNL     1      25.439  42.417  49.310  1.00  0.00    -0.243 N 
HETATM    8  N   UNL     1      25.154  41.186  48.816  1.00  0.00    -0.178 NA
HETATM    9  C   UNL     1      24.157  41.390  47.954  1.00  0.00     0.170 A 
HETATM   10  C   UNL     1      23.797  42.745  47.863  1.00  0.00     0.071 A 
HETATM   11  C   UNL     1      24.671  43.391  48.704  1.00  0.00     0.149 A 
BRANCH  10  12
HETATM   12  N   UNL     1      22.797  43.381  47.154  1.00  0.00    -0.324 N 
HETATM   13  C   UNL     1      21.742  44.055  47.738  1.00  0.00     0.228 C 
HETATM   14  O   UNL     1      21.516  44.103  48.946  1.00  0.00    -0.273 OA
HETATM   15  H   UNL     1      22.865  43.364  46.140  1.00  0.00     0.169 HD
BRANCH  13  16
HETATM   16  C   UNL     1      20.875  44.849  46.767  1.00  0.00     0.104 C 
HETATM   17  C   UNL     1      19.525  45.189  47.352  1.00  0.00     0.181 C 
HETATM   18  O   UNL     1      18.711  44.034  47.085  1.00  0.00    -0.390 OA
HETATM   19  C   UNL     1      19.131  43.494  45.822  1.00  0.00     0.168 C 
HETATM   20  C   UNL     1      20.521  44.037  45.537  1.00  0.00     0.042 C 
ENDBRANCH  13  16
ENDBRANCH  10  12
ENDBRANCH   4   7
BRANCH   1  21
HETATM   21  C   UNL     1      29.504  42.967  53.294  1.00  0.00     0.253 C 
HETATM   22  N   UNL     1      29.386  43.698  54.480  1.00  0.00    -0.348 N 
HETATM   23  C   UNL     1      30.570  43.784  55.326  1.00  0.00     0.153 C 
HETATM   24  O   UNL     1      30.537  42.369  52.987  1.00  0.00    -0.267 OA
BRANCH  22  25
HETATM   25  C   UNL     1      28.112  44.026  55.121  1.00  0.00     0.164 C 
BRANCH  25  26
HETATM   26  C   UNL     1      27.589  45.421  54.839  1.00  0.00    -0.038 A 
HETATM   27  C   UNL     1      26.658  45.700  53.822  1.00  0.00     0.045 A 
HETATM   28  C   UNL     1      26.136  46.986  53.656  1.00  0.00     0.068 A 
HETATM   29  C   UNL     1      26.581  48.016  54.483  1.00  0.00     0.037 A 
HETATM   30  C   UNL     1      27.513  47.763  55.488  1.00  0.00     0.003 A 
HETATM   31  C   UNL     1      28.007  46.472  55.670  1.00  0.00     0.009 A 
BRANCH  28  32
HETATM   32  O   UNL     1      25.201  47.354  52.728  1.00  0.00    -0.356 OA
HETATM   33  C   UNL     1      25.522  47.090  51.366  1.00  0.00     0.210 C 
ENDBRANCH  28  32
ENDBRANCH  25  26
ENDBRANCH  22  25
ENDBRANCH   1  21
TORSDOF 7
ENDMDL
