MODEL 1
REMARK VINA RESULT:      -8.5      0.000      0.000
REMARK  7 active torsions:
REMARK  status: ('A' for Active; 'I' for Inactive)
REMARK    1  A    between atoms: C_7  and  C_8 
REMARK    2  A    between atoms: C_8  and  C_9 
REMARK    3  A    between atoms: C_9  and  C_10 
REMARK    4  A    between atoms: C_10  and  O_11 
REMARK    5  A    between atoms: C_13  and  C_14 
REMARK    6  A    between atoms: C_22  and  C_23 
REMARK       I    between atoms: C_23  and  N_24 
REMARK    7  A    between atoms: N_24  and  C_25 
ROOT
HETATM    1  C   UNL     1      22.967  51.272  48.422  1.00  0.00     0.070 C 
HETATM    2  C   UNL     1      21.601  50.739  48.785  1.00  0.00     0.037 C 
HETATM    3  N   UNL     1      20.640  51.706  49.054  1.00  0.00    -0.192 N 
HETATM    4  C   UNL     1      19.330  51.427  49.189  1.00  0.00     0.726 A 
HETATM    5  N   UNL     1      18.916  50.124  49.192  1.00  0.00    -0.083 N 
HETATM    6  N   UNL     1      17.572  50.036  49.305  1.00  0.00    -0.140 NA
HETATM    7  C   UNL     1      17.238  51.337  49.332  1.00  0.00     0.166 A 
HETATM    8  N   UNL     1      18.292  52.217  49.281  1.00  0.00    -0.046 NA
HETATM    9  C   UNL     1      19.830  48.975  49.089  1.00  0.00     0.204 C 
HETATM   10  C   UNL     1      21.265  49.423  48.811  1.00  0.00     0.062 C 
HETATM   11  H   UNL     1      20.905  52.680  48.932  1.00  0.00     0.184 HD
ENDROOT
BRANCH  10  12
HETATM   12  C   UNL     1      22.265  48.354  48.539  1.00  0.00     0.256 C 
HETATM   13  N   UNL     1      22.951  47.945  49.665  1.00  0.00    -0.323 N 
HETATM   14  H   UNL     1      22.681  48.357  50.549  1.00  0.00     0.169 HD
HETATM   15  O   UNL     1      22.394  47.918  47.404  1.00  0.00    -0.267 OA
BRANCH  13  16
HETATM   16  C   UNL     1      24.062  47.073  49.705  1.00  0.00     0.035 A 
HETATM   17  C   UNL     1      23.972  45.685  49.555  1.00  0.00     0.032 A 
HETATM   18  C   UNL     1      25.123  44.891  49.563  1.00  0.00     0.044 A 
HETATM   19  C   UNL     1      26.366  45.487  49.721  1.00  0.00     0.116 A 
HETATM   20  F   UNL     1      27.470  44.727  49.718  1.00  0.00    -0.206 F 
HETATM   21  C   UNL     1      26.480  46.861  49.878  1.00  0.00     0.044 A 
HETATM   22  C   UNL     1      25.328  47.654  49.872  1.00  0.00     0.032 A 
ENDBRANCH  13  16
ENDBRANCH  10  12
BRANCH   9  23
HETATM   23  C   UNL     1      19.248  47.903  48.167  1.00  0.00    -0.005 A 
HETATM   24  C   UNL     1      18.889  48.130  46.820  1.00  0.00     0.064 A 
HETATM   25 CL   UNL     1      19.089  49.700  46.106  1.00  0.00    -0.082 Cl
HETATM   26  C   UNL     1      18.367  47.074  46.049  1.00  0.00     0.056 A 
HETATM   27 CL   UNL     1      17.909  47.269  44.390  1.00  0.00    -0.083 Cl
HETATM   28  C   UNL     1      18.197  45.804  46.606  1.00  0.00     0.026 A 
HETATM   29  C   UNL     1      18.543  45.572  47.933  1.00  0.00     0.002 A 
HETATM   30  C   UNL     1      19.062  46.610  48.705  1.00  0.00     0.011 A 
ENDBRANCH   9  23
BRANCH   7  31
HETATM   31  C   UNL     1      15.826  51.794  49.293  1.00  0.00     0.085 C 
BRANCH  31  32
HETATM   32  C   UNL     1      15.571  52.998  50.205  1.00  0.00     0.034 C 
BRANCH  32  33
HETATM   33  C   UNL     1      14.102  53.232  50.550  1.00  0.00     0.164 C 
BRANCH  33  34
HETATM   34  O   UNL     1      13.966  53.868  51.812  1.00  0.00    -0.401 OA
HETATM   35  H   UNL     1      14.357  54.759  51.718  1.00  0.00     0.209 HD
ENDBRANCH  33  34
ENDBRANCH  32  33
ENDBRANCH  31  32
ENDBRANCH   7  31
TORSDOF 7
ENDMDL
MODEL 2
REMARK VINA RESULT:      -7.9      7.740     10.060
REMARK  7 active torsions:
REMARK  status: ('A' for Active; 'I' for Inactive)
REMARK    1  A    between atoms: C_7  and  C_8 
REMARK    2  A    between atoms: C_8  and  C_9 
REMARK    3  A    between atoms: C_9  and  C_10 
REMARK    4  A    between atoms: C_10  and  O_11 
REMARK    5  A    between atoms: C_13  and  C_14 
REMARK    6  A    between atoms: C_22  and  C_23 
REMARK       I    between atoms: C_23  and  N_24 
REMARK    7  A    between atoms: N_24  and  C_25 
ROOT
HETATM    1  C   UNL     1      24.891  46.067  49.640  1.00  0.00     0.070 C 
HETATM    2  C   UNL     1      24.592  44.603  49.424  1.00  0.00     0.037 C 
HETATM    3  N   UNL     1      23.379  44.330  48.803  1.00  0.00    -0.192 N 
HETATM    4  C   UNL     1      23.042  43.111  48.346  1.00  0.00     0.726 A 
HETATM    5  N   UNL     1      23.858  42.044  48.604  1.00  0.00    -0.083 N 
HETATM    6  N   UNL     1      23.379  40.911  48.044  1.00  0.00    -0.140 NA
HETATM    7  C   UNL     1      22.280  41.382  47.431  1.00  0.00     0.166 A 
HETATM    8  N   UNL     1      22.033  42.722  47.610  1.00  0.00    -0.046 NA
HETATM    9  C   UNL     1      25.095  42.135  49.397  1.00  0.00     0.204 C 
HETATM   10  C   UNL     1      25.433  43.585  49.745  1.00  0.00     0.062 C 
HETATM   11  H   UNL     1      22.821  45.122  48.493  1.00  0.00     0.184 HD
ENDROOT
BRANCH  10  12
HETATM   12  C   UNL     1      26.738  43.830  50.420  1.00  0.00     0.256 C 
HETATM   13  N   UNL     1      26.859  43.180  51.631  1.00  0.00    -0.323 N 
HETATM   14  H   UNL     1      26.098  42.575  51.912  1.00  0.00     0.169 HD
HETATM   15  O   UNL     1      27.577  44.536  49.880  1.00  0.00    -0.267 OA
BRANCH  13  16
HETATM   16  C   UNL     1      27.899  43.341  52.574  1.00  0.00     0.035 A 
HETATM   17  C   UNL     1      27.797  44.134  53.722  1.00  0.00     0.032 A 
HETATM   18  C   UNL     1      28.856  44.210  54.632  1.00  0.00     0.044 A 
HETATM   19  C   UNL     1      30.019  43.491  54.393  1.00  0.00     0.116 A 
HETATM   20  F   UNL     1      31.030  43.556  55.270  1.00  0.00    -0.206 F 
HETATM   21  C   UNL     1      30.145  42.703  53.258  1.00  0.00     0.044 A 
HETATM   22  C   UNL     1      29.086  42.629  52.347  1.00  0.00     0.032 A 
ENDBRANCH  13  16
ENDBRANCH  10  12
BRANCH   9  23
HETATM   23  C   UNL     1      26.206  41.298  48.762  1.00  0.00    -0.005 A 
HETATM   24  C   UNL     1      26.863  40.232  49.414  1.00  0.00     0.064 A 
HETATM   25 CL   UNL     1      26.436  39.793  51.039  1.00  0.00    -0.082 Cl
HETATM   26  C   UNL     1      27.870  39.516  48.740  1.00  0.00     0.056 A 
HETATM   27 CL   UNL     1      28.718  38.192  49.467  1.00  0.00    -0.083 Cl
HETATM   28  C   UNL     1      28.229  39.854  47.433  1.00  0.00     0.026 A 
HETATM   29  C   UNL     1      27.592  40.906  46.784  1.00  0.00     0.002 A 
HETATM   30  C   UNL     1      26.592  41.620  47.442  1.00  0.00     0.011 A 
ENDBRANCH   9  23
BRANCH   7  31
HETATM   31  C   UNL     1      21.459  40.543  46.522  1.00  0.00     0.085 C 
BRANCH  31  32
HETATM   32  C   UNL     1      21.284  39.112  47.039  1.00  0.00     0.034 C 
BRANCH  32  33
HETATM   33  C   UNL     1      19.832  38.669  47.202  1.00  0.00     0.164 C 
BRANCH  33  34
HETATM   34  O   UNL     1      19.388  38.850  48.538  1.00  0.00    -0.401 OA
HETATM   35  H   UNL     1      20.131  38.587  49.117  1.00  0.00     0.209 HD
ENDBRANCH  33  34
ENDBRANCH  32  33
ENDBRANCH  31  32
ENDBRANCH   7  31
TORSDOF 7
ENDMDL
MODEL 3
REMARK VINA RESULT:      -7.8      1.672      2.316
REMARK  7 active torsions:
REMARK  status: ('A' for Active; 'I' for Inactive)
REMARK    1  A    between atoms: C_7  and  C_8 
REMARK    2  A    between atoms: C_8  and  C_9 
REMARK    3  A    between atoms: C_9  and  C_10 
REMARK    4  A    between atoms: C_10  and  O_11 
REMARK    5  A    between atoms: C_13  and  C_14 
REMARK    6  A    between atoms: C_22  and  C_23 
REMARK       I    between atoms: C_23  and  N_24 
REMARK    7  A    between atoms: N_24  and  C_25 
ROOT
HETATM    1  C   UNL     1      22.581  50.725  49.683  1.00  0.00     0.070 C 
HETATM    2  C   UNL     1      21.119  50.379  49.531  1.00  0.00     0.037 C 
HETATM    3  N   UNL     1      20.232  51.301  50.076  1.00  0.00    -0.192 N 
HETATM    4  C   UNL     1      18.905  51.266  49.856  1.00  0.00     0.726 A 
HETATM    5  N   UNL     1      18.362  50.213  49.173  1.00  0.00    -0.083 N 
HETATM    6  N   UNL     1      17.028  50.362  49.021  1.00  0.00    -0.140 NA
HETATM    7  C   UNL     1      16.841  51.554  49.612  1.00  0.00     0.166 A 
HETATM    8  N   UNL     1      17.966  52.127  50.152  1.00  0.00    -0.046 NA
HETATM    9  C   UNL     1      19.145  49.068  48.678  1.00  0.00     0.204 C 
HETATM   10  C   UNL     1      20.646  49.289  48.874  1.00  0.00     0.062 C 
HETATM   11  H   UNL     1      20.623  52.150  50.475  1.00  0.00     0.184 HD
ENDROOT
BRANCH  10  12
HETATM   12  C   UNL     1      21.559  48.272  48.284  1.00  0.00     0.256 C 
HETATM   13  N   UNL     1      21.540  47.064  48.952  1.00  0.00    -0.323 N 
HETATM   14  H   UNL     1      20.888  46.968  49.720  1.00  0.00     0.169 HD
HETATM   15  O   UNL     1      22.217  48.549  47.291  1.00  0.00    -0.267 OA
BRANCH  13  16
HETATM   16  C   UNL     1      22.404  45.967  48.735  1.00  0.00     0.035 A 
HETATM   17  C   UNL     1      23.692  45.869  49.274  1.00  0.00     0.032 A 
HETATM   18  C   UNL     1      24.473  44.731  49.050  1.00  0.00     0.044 A 
HETATM   19  C   UNL     1      23.965  43.689  48.286  1.00  0.00     0.116 A 
HETATM   20  F   UNL     1      24.709  42.595  48.081  1.00  0.00    -0.206 F 
HETATM   21  C   UNL     1      22.693  43.767  47.737  1.00  0.00     0.044 A 
HETATM   22  C   UNL     1      21.913  44.906  47.960  1.00  0.00     0.032 A 
ENDBRANCH  13  16
ENDBRANCH  10  12
BRANCH   9  23
HETATM   23  C   UNL     1      18.682  48.663  47.279  1.00  0.00    -0.005 A 
HETATM   24  C   UNL     1      18.148  47.395  46.960  1.00  0.00     0.064 A 
HETATM   25 CL   UNL     1      17.984  46.173  48.183  1.00  0.00    -0.082 Cl
HETATM   26  C   UNL     1      17.742  47.120  45.641  1.00  0.00     0.056 A 
HETATM   27 CL   UNL     1      17.071  45.594  45.170  1.00  0.00    -0.083 Cl
HETATM   28  C   UNL     1      17.867  48.089  44.642  1.00  0.00     0.026 A 
HETATM   29  C   UNL     1      18.397  49.338  44.944  1.00  0.00     0.002 A 
HETATM   30  C   UNL     1      18.800  49.622  46.248  1.00  0.00     0.011 A 
ENDBRANCH   9  23
BRANCH   7  31
HETATM   31  C   UNL     1      15.535  52.259  49.578  1.00  0.00     0.085 C 
BRANCH  31  32
HETATM   32  C   UNL     1      15.632  53.704  50.078  1.00  0.00     0.034 C 
BRANCH  32  33
HETATM   33  C   UNL     1      14.706  54.033  51.246  1.00  0.00     0.164 C 
BRANCH  33  34
HETATM   34  O   UNL     1      13.602  53.141  51.293  1.00  0.00    -0.401 OA
HETATM   35  H   UNL     1      13.976  52.239  51.355  1.00  0.00     0.209 HD
ENDBRANCH  33  34
ENDBRANCH  32  33
ENDBRANCH  31  32
ENDBRANCH   7  31
TORSDOF 7
ENDMDL
MODEL 4
REMARK VINA RESULT:      -7.8     23.534     25.232
REMARK  7 active torsions:
REMARK  status: ('A' for Active; 'I' for Inactive)
REMARK    1  A    between atoms: C_7  and  C_8 
REMARK    2  A    between atoms: C_8  and  C_9 
REMARK    3  A    between atoms: C_9  and  C_10 
REMARK    4  A    between atoms: C_10  and  O_11 
REMARK    5  A    between atoms: C_13  and  C_14 
REMARK    6  A    between atoms: C_22  and  C_23 
REMARK       I    between atoms: C_23  and  N_24 
REMARK    7  A    between atoms: N_24  and  C_25 
ROOT
HETATM    1  C   UNL     1      39.191  41.139  64.414  1.00  0.00     0.070 C 
HETATM    2  C   UNL     1      37.959  41.999  64.565  1.00  0.00     0.037 C 
HETATM    3  N   UNL     1      36.815  41.329  64.979  1.00  0.00    -0.192 N 
HETATM    4  C   UNL     1      35.689  41.958  65.364  1.00  0.00     0.726 A 
HETATM    5  N   UNL     1      35.597  43.316  65.231  1.00  0.00    -0.083 N 
HETATM    6  N   UNL     1      34.414  43.776  65.695  1.00  0.00    -0.140 NA
HETATM    7  C   UNL     1      33.854  42.633  66.127  1.00  0.00     0.166 A 
HETATM    8  N   UNL     1      34.600  41.498  65.923  1.00  0.00    -0.046 NA
HETATM    9  C   UNL     1      36.658  44.154  64.649  1.00  0.00     0.204 C 
HETATM   10  C   UNL     1      37.926  43.344  64.374  1.00  0.00     0.062 C 
HETATM   11  H   UNL     1      36.903  40.340  65.202  1.00  0.00     0.184 HD
ENDROOT
BRANCH  10  12
HETATM   12  C   UNL     1      39.125  44.101  63.922  1.00  0.00     0.256 C 
HETATM   13  N   UNL     1      40.098  44.218  64.893  1.00  0.00    -0.323 N 
HETATM   14  H   UNL     1      39.935  43.747  65.774  1.00  0.00     0.169 HD
HETATM   15  O   UNL     1      39.177  44.531  62.778  1.00  0.00    -0.267 OA
BRANCH  13  16
HETATM   16  C   UNL     1      41.268  45.007  64.824  1.00  0.00     0.035 A 
HETATM   17  C   UNL     1      42.331  44.755  63.949  1.00  0.00     0.032 A 
HETATM   18  C   UNL     1      43.438  45.608  63.908  1.00  0.00     0.044 A 
HETATM   19  C   UNL     1      43.483  46.714  64.745  1.00  0.00     0.116 A 
HETATM   20  F   UNL     1      44.539  47.537  64.698  1.00  0.00    -0.206 F 
HETATM   21  C   UNL     1      42.444  46.980  65.625  1.00  0.00     0.044 A 
HETATM   22  C   UNL     1      41.338  46.127  65.667  1.00  0.00     0.032 A 
ENDBRANCH  13  16
ENDBRANCH  10  12
BRANCH   9  23
HETATM   23  C   UNL     1      36.822  45.448  65.448  1.00  0.00    -0.005 A 
HETATM   24  C   UNL     1      37.330  45.505  66.764  1.00  0.00     0.064 A 
HETATM   25 CL   UNL     1      37.811  44.053  67.588  1.00  0.00    -0.082 Cl
HETATM   26  C   UNL     1      37.450  46.747  67.413  1.00  0.00     0.056 A 
HETATM   27 CL   UNL     1      38.069  46.902  69.023  1.00  0.00    -0.083 Cl
HETATM   28  C   UNL     1      37.067  47.926  66.768  1.00  0.00     0.026 A 
HETATM   29  C   UNL     1      36.561  47.880  65.474  1.00  0.00     0.002 A 
HETATM   30  C   UNL     1      36.440  46.655  64.821  1.00  0.00     0.011 A 
ENDBRANCH   9  23
BRANCH   7  31
HETATM   31  C   UNL     1      32.577  42.613  66.883  1.00  0.00     0.085 C 
BRANCH  31  32
HETATM   32  C   UNL     1      32.757  42.992  68.356  1.00  0.00     0.034 C 
BRANCH  32  33
HETATM   33  C   UNL     1      32.932  41.804  69.299  1.00  0.00     0.164 C 
BRANCH  33  34
HETATM   34  O   UNL     1      33.267  40.625  68.582  1.00  0.00    -0.401 OA
HETATM   35  H   UNL     1      32.503  40.422  68.006  1.00  0.00     0.209 HD
ENDBRANCH  33  34
ENDBRANCH  32  33
ENDBRANCH  31  32
ENDBRANCH   7  31
TORSDOF 7
ENDMDL
MODEL 5
REMARK VINA RESULT:      -7.7      1.795      2.283
REMARK  7 active torsions:
REMARK  status: ('A' for Active; 'I' for Inactive)
REMARK    1  A    between atoms: C_7  and  C_8 
REMARK    2  A    between atoms: C_8  and  C_9 
REMARK    3  A    between atoms: C_9  and  C_10 
REMARK    4  A    between atoms: C_10  and  O_11 
REMARK    5  A    between atoms: C_13  and  C_14 
REMARK    6  A    between atoms: C_22  and  C_23 
REMARK       I    between atoms: C_23  and  N_24 
REMARK    7  A    between atoms: N_24  and  C_25 
ROOT
HETATM    1  C   UNL     1      22.927  51.123  49.154  1.00  0.00     0.070 C 
HETATM    2  C   UNL     1      21.537  50.534  49.194  1.00  0.00     0.037 C 
HETATM    3  N   UNL     1      20.527  51.421  49.549  1.00  0.00    -0.192 N 
HETATM    4  C   UNL     1      19.218  51.132  49.436  1.00  0.00     0.726 A 
HETATM    5  N   UNL     1      18.834  49.869  49.078  1.00  0.00    -0.083 N 
HETATM    6  N   UNL     1      17.489  49.772  48.984  1.00  0.00    -0.140 NA
HETATM    7  C   UNL     1      17.128  51.034  49.270  1.00  0.00     0.166 A 
HETATM    8  N   UNL     1      18.160  51.889  49.570  1.00  0.00    -0.046 NA
HETATM    9  C   UNL     1      19.778  48.766  48.833  1.00  0.00     0.204 C 
HETATM   10  C   UNL     1      21.228  49.252  48.865  1.00  0.00     0.062 C 
HETATM   11  H   UNL     1      20.786  52.393  49.695  1.00  0.00     0.184 HD
ENDROOT
BRANCH  10  12
HETATM   12  C   UNL     1      22.278  48.266  48.487  1.00  0.00     0.256 C 
HETATM   13  N   UNL     1      22.822  47.604  49.569  1.00  0.00    -0.323 N 
HETATM   14  H   UNL     1      22.432  47.803  50.481  1.00  0.00     0.169 HD
HETATM   15  O   UNL     1      22.562  48.102  47.310  1.00  0.00    -0.267 OA
BRANCH  13  16
HETATM   16  C   UNL     1      23.938  46.737  49.552  1.00  0.00     0.035 A 
HETATM   17  C   UNL     1      25.238  47.129  49.893  1.00  0.00     0.032 A 
HETATM   18  C   UNL     1      26.284  46.202  49.894  1.00  0.00     0.044 A 
HETATM   19  C   UNL     1      26.031  44.881  49.554  1.00  0.00     0.116 A 
HETATM   20  F   UNL     1      27.032  43.990  49.565  1.00  0.00    -0.206 F 
HETATM   21  C   UNL     1      24.752  44.470  49.207  1.00  0.00     0.044 A 
HETATM   22  C   UNL     1      23.705  45.398  49.204  1.00  0.00     0.032 A 
ENDBRANCH  13  16
ENDBRANCH  10  12
BRANCH   9  23
HETATM   23  C   UNL     1      19.349  47.948  47.615  1.00  0.00    -0.005 A 
HETATM   24  C   UNL     1      19.346  46.537  47.572  1.00  0.00     0.064 A 
HETATM   25 CL   UNL     1      19.854  45.611  48.951  1.00  0.00    -0.082 Cl
HETATM   26  C   UNL     1      18.925  45.874  46.405  1.00  0.00     0.056 A 
HETATM   27 CL   UNL     1      18.885  44.148  46.275  1.00  0.00    -0.083 Cl
HETATM   28  C   UNL     1      18.514  46.601  45.285  1.00  0.00     0.026 A 
HETATM   29  C   UNL     1      18.518  47.991  45.314  1.00  0.00     0.002 A 
HETATM   30  C   UNL     1      18.932  48.657  46.467  1.00  0.00     0.011 A 
ENDBRANCH   9  23
BRANCH   7  31
HETATM   31  C   UNL     1      15.724  51.503  49.149  1.00  0.00     0.085 C 
BRANCH  31  32
HETATM   32  C   UNL     1      15.490  52.345  47.891  1.00  0.00     0.034 C 
BRANCH  32  33
HETATM   33  C   UNL     1      15.847  51.643  46.583  1.00  0.00     0.164 C 
BRANCH  33  34
HETATM   34  O   UNL     1      15.339  50.318  46.557  1.00  0.00    -0.401 OA
HETATM   35  H   UNL     1      14.620  50.308  45.895  1.00  0.00     0.209 HD
ENDBRANCH  33  34
ENDBRANCH  32  33
ENDBRANCH  31  32
ENDBRANCH   7  31
TORSDOF 7
ENDMDL
MODEL 6
REMARK VINA RESULT:      -7.7     23.958     25.855
REMARK  7 active torsions:
REMARK  status: ('A' for Active; 'I' for Inactive)
REMARK    1  A    between atoms: C_7  and  C_8 
REMARK    2  A    between atoms: C_8  and  C_9 
REMARK    3  A    between atoms: C_9  and  C_10 
REMARK    4  A    between atoms: C_10  and  O_11 
REMARK    5  A    between atoms: C_13  and  C_14 
REMARK    6  A    between atoms: C_22  and  C_23 
REMARK       I    between atoms: C_23  and  N_24 
REMARK    7  A    between atoms: N_24  and  C_25 
ROOT
HETATM    1  C   UNL     1      35.739  41.985  65.124  1.00  0.00     0.070 C 
HETATM    2  C   UNL     1      36.517  43.228  64.764  1.00  0.00     0.037 C 
HETATM    3  N   UNL     1      35.882  44.430  65.053  1.00  0.00    -0.192 N 
HETATM    4  C   UNL     1      36.500  45.624  64.995  1.00  0.00     0.726 A 
HETATM    5  N   UNL     1      37.777  45.699  64.511  1.00  0.00    -0.083 N 
HETATM    6  N   UNL     1      38.246  46.966  64.557  1.00  0.00    -0.140 NA
HETATM    7  C   UNL     1      37.201  47.598  65.116  1.00  0.00     0.166 A 
HETATM    8  N   UNL     1      36.107  46.810  65.380  1.00  0.00    -0.046 NA
HETATM    9  C   UNL     1      38.529  44.540  64.003  1.00  0.00     0.204 C 
HETATM   10  C   UNL     1      37.772  43.232  64.243  1.00  0.00     0.062 C 
HETATM   11  H   UNL     1      34.984  44.385  65.529  1.00  0.00     0.184 HD
ENDROOT
BRANCH  10  12
HETATM   12  C   UNL     1      38.486  41.969  63.909  1.00  0.00     0.256 C 
HETATM   13  N   UNL     1      39.042  41.347  65.009  1.00  0.00    -0.323 N 
HETATM   14  H   UNL     1      38.871  41.764  65.915  1.00  0.00     0.169 HD
HETATM   15  O   UNL     1      38.518  41.576  62.752  1.00  0.00    -0.267 OA
BRANCH  13  16
HETATM   16  C   UNL     1      39.909  40.231  64.998  1.00  0.00     0.035 A 
HETATM   17  C   UNL     1      39.472  38.903  64.949  1.00  0.00     0.032 A 
HETATM   18  C   UNL     1      40.393  37.851  64.897  1.00  0.00     0.044 A 
HETATM   19  C   UNL     1      41.752  38.129  64.895  1.00  0.00     0.116 A 
HETATM   20  F   UNL     1      42.634  37.123  64.835  1.00  0.00    -0.206 F 
HETATM   21  C   UNL     1      42.208  39.439  64.949  1.00  0.00     0.044 A 
HETATM   22  C   UNL     1      41.288  40.490  65.003  1.00  0.00     0.032 A 
ENDBRANCH  13  16
ENDBRANCH  10  12
BRANCH   9  23
HETATM   23  C   UNL     1      39.984  44.593  64.471  1.00  0.00    -0.005 A 
HETATM   24  C   UNL     1      40.386  44.462  65.818  1.00  0.00     0.064 A 
HETATM   25 CL   UNL     1      39.207  44.226  67.072  1.00  0.00    -0.082 Cl
HETATM   26  C   UNL     1      41.753  44.517  66.147  1.00  0.00     0.056 A 
HETATM   27 CL   UNL     1      42.328  44.357  67.773  1.00  0.00    -0.083 Cl
HETATM   28  C   UNL     1      42.716  44.707  65.153  1.00  0.00     0.026 A 
HETATM   29  C   UNL     1      42.330  44.844  63.824  1.00  0.00     0.002 A 
HETATM   30  C   UNL     1      40.979  44.788  63.487  1.00  0.00     0.011 A 
ENDBRANCH   9  23
BRANCH   7  31
HETATM   31  C   UNL     1      37.266  49.022  65.533  1.00  0.00     0.085 C 
BRANCH  31  32
HETATM   32  C   UNL     1      38.640  49.649  65.275  1.00  0.00     0.034 C 
BRANCH  32  33
HETATM   33  C   UNL     1      39.190  50.471  66.438  1.00  0.00     0.164 C 
BRANCH  33  34
HETATM   34  O   UNL     1      39.268  51.848  66.101  1.00  0.00    -0.401 OA
HETATM   35  H   UNL     1      40.211  52.039  65.928  1.00  0.00     0.209 HD
ENDBRANCH  33  34
ENDBRANCH  32  33
ENDBRANCH  31  32
ENDBRANCH   7  31
TORSDOF 7
ENDMDL
MODEL 7
REMARK VINA RESULT:      -7.6     10.978     12.877
REMARK  7 active torsions:
REMARK  status: ('A' for Active; 'I' for Inactive)
REMARK    1  A    between atoms: C_7  and  C_8 
REMARK    2  A    between atoms: C_8  and  C_9 
REMARK    3  A    between atoms: C_9  and  C_10 
REMARK    4  A    between atoms: C_10  and  O_11 
REMARK    5  A    between atoms: C_13  and  C_14 
REMARK    6  A    between atoms: C_22  and  C_23 
REMARK       I    between atoms: C_23  and  N_24 
REMARK    7  A    between atoms: N_24  and  C_25 
ROOT
HETATM    1  C   UNL     1      29.118  45.736  39.215  1.00  0.00     0.070 C 
HETATM    2  C   UNL     1      28.338  46.963  38.805  1.00  0.00     0.037 C 
HETATM    3  N   UNL     1      27.013  46.733  38.454  1.00  0.00    -0.192 N 
HETATM    4  C   UNL     1      26.117  47.719  38.266  1.00  0.00     0.726 A 
HETATM    5  N   UNL     1      26.534  49.021  38.290  1.00  0.00    -0.083 N 
HETATM    6  N   UNL     1      25.498  49.872  38.114  1.00  0.00    -0.140 NA
HETATM    7  C   UNL     1      24.476  49.005  38.024  1.00  0.00     0.166 A 
HETATM    8  N   UNL     1      24.821  47.677  38.094  1.00  0.00    -0.046 NA
HETATM    9  C   UNL     1      27.936  49.428  38.479  1.00  0.00     0.204 C 
HETATM   10  C   UNL     1      28.828  48.230  38.811  1.00  0.00     0.062 C 
HETATM   11  H   UNL     1      26.658  45.785  38.554  1.00  0.00     0.184 HD
ENDROOT
BRANCH  10  12
HETATM   12  C   UNL     1      30.243  48.521  39.170  1.00  0.00     0.256 C 
HETATM   13  N   UNL     1      30.406  48.899  40.488  1.00  0.00    -0.323 N 
HETATM   14  H   UNL     1      29.586  48.890  41.080  1.00  0.00     0.169 HD
HETATM   15  O   UNL     1      31.121  48.397  38.330  1.00  0.00    -0.267 OA
BRANCH  13  16
HETATM   16  C   UNL     1      31.590  49.391  41.083  1.00  0.00     0.035 A 
HETATM   17  C   UNL     1      32.789  48.672  41.147  1.00  0.00     0.032 A 
HETATM   18  C   UNL     1      33.933  49.244  41.714  1.00  0.00     0.044 A 
HETATM   19  C   UNL     1      33.876  50.535  42.218  1.00  0.00     0.116 A 
HETATM   20  F   UNL     1      34.975  51.086  42.752  1.00  0.00    -0.206 F 
HETATM   21  C   UNL     1      32.697  51.264  42.171  1.00  0.00     0.044 A 
HETATM   22  C   UNL     1      31.553  50.692  41.605  1.00  0.00     0.032 A 
ENDBRANCH  13  16
ENDBRANCH  10  12
BRANCH   9  23
HETATM   23  C   UNL     1      28.027  50.637  39.411  1.00  0.00    -0.005 A 
HETATM   24  C   UNL     1      28.786  51.794  39.132  1.00  0.00     0.064 A 
HETATM   25 CL   UNL     1      29.701  51.916  37.661  1.00  0.00    -0.082 Cl
HETATM   26  C   UNL     1      28.799  52.859  40.052  1.00  0.00     0.056 A 
HETATM   27 CL   UNL     1      29.698  54.315  39.780  1.00  0.00    -0.083 Cl
HETATM   28  C   UNL     1      28.071  52.779  41.241  1.00  0.00     0.026 A 
HETATM   29  C   UNL     1      27.324  51.642  41.528  1.00  0.00     0.002 A 
HETATM   30  C   UNL     1      27.303  50.582  40.623  1.00  0.00     0.011 A 
ENDBRANCH   9  23
BRANCH   7  31
HETATM   31  C   UNL     1      23.061  49.450  37.977  1.00  0.00     0.085 C 
BRANCH  31  32
HETATM   32  C   UNL     1      22.461  49.657  39.371  1.00  0.00     0.034 C 
BRANCH  32  33
HETATM   33  C   UNL     1      21.760  50.999  39.567  1.00  0.00     0.164 C 
BRANCH  33  34
HETATM   34  O   UNL     1      22.491  51.834  40.453  1.00  0.00    -0.401 OA
HETATM   35  H   UNL     1      23.390  51.919  40.078  1.00  0.00     0.209 HD
ENDBRANCH  33  34
ENDBRANCH  32  33
ENDBRANCH  31  32
ENDBRANCH   7  31
TORSDOF 7
ENDMDL
MODEL 8
REMARK VINA RESULT:      -7.6     12.137     14.900
REMARK  7 active torsions:
REMARK  status: ('A' for Active; 'I' for Inactive)
REMARK    1  A    between atoms: C_7  and  C_8 
REMARK    2  A    between atoms: C_8  and  C_9 
REMARK    3  A    between atoms: C_9  and  C_10 
REMARK    4  A    between atoms: C_10  and  O_11 
REMARK    5  A    between atoms: C_13  and  C_14 
REMARK    6  A    between atoms: C_22  and  C_23 
REMARK       I    between atoms: C_23  and  N_24 
REMARK    7  A    between atoms: N_24  and  C_25 
ROOT
HETATM    1  C   UNL     1      29.693  45.693  39.127  1.00  0.00     0.070 C 
HETATM    2  C   UNL     1      30.123  46.862  39.980  1.00  0.00     0.037 C 
HETATM    3  N   UNL     1      31.483  46.923  40.260  1.00  0.00    -0.192 N 
HETATM    4  C   UNL     1      32.074  47.993  40.823  1.00  0.00     0.726 A 
HETATM    5  N   UNL     1      31.303  49.033  41.265  1.00  0.00    -0.083 N 
HETATM    6  N   UNL     1      32.065  50.029  41.771  1.00  0.00    -0.140 NA
HETATM    7  C   UNL     1      33.296  49.529  41.566  1.00  0.00     0.166 A 
HETATM    8  N   UNL     1      33.338  48.276  41.005  1.00  0.00    -0.046 NA
HETATM    9  C   UNL     1      29.833  49.048  41.198  1.00  0.00     0.204 C 
HETATM   10  C   UNL     1      29.295  47.843  40.425  1.00  0.00     0.062 C 
HETATM   11  H   UNL     1      32.084  46.223  39.830  1.00  0.00     0.184 HD
ENDROOT
BRANCH  10  12
HETATM   12  C   UNL     1      27.831  47.813  40.156  1.00  0.00     0.256 C 
HETATM   13  N   UNL     1      27.492  48.304  38.911  1.00  0.00    -0.323 N 
HETATM   14  H   UNL     1      28.249  48.578  38.297  1.00  0.00     0.169 HD
HETATM   15  O   UNL     1      27.067  47.365  40.999  1.00  0.00    -0.267 OA
BRANCH  13  16
HETATM   16  C   UNL     1      26.187  48.555  38.430  1.00  0.00     0.035 A 
HETATM   17  C   UNL     1      25.379  49.607  38.876  1.00  0.00     0.032 A 
HETATM   18  C   UNL     1      24.113  49.817  38.320  1.00  0.00     0.044 A 
HETATM   19  C   UNL     1      23.655  48.974  37.318  1.00  0.00     0.116 A 
HETATM   20  F   UNL     1      22.446  49.182  36.779  1.00  0.00    -0.206 F 
HETATM   21  C   UNL     1      24.436  47.921  36.865  1.00  0.00     0.044 A 
HETATM   22  C   UNL     1      25.701  47.709  37.422  1.00  0.00     0.032 A 
ENDBRANCH  13  16
ENDBRANCH  10  12
BRANCH   9  23
HETATM   23  C   UNL     1      29.326  50.426  40.772  1.00  0.00    -0.005 A 
HETATM   24  C   UNL     1      29.565  50.999  39.503  1.00  0.00     0.064 A 
HETATM   25 CL   UNL     1      30.487  50.141  38.307  1.00  0.00    -0.082 Cl
HETATM   26  C   UNL     1      29.049  52.273  39.204  1.00  0.00     0.056 A 
HETATM   27 CL   UNL     1      29.291  53.040  37.670  1.00  0.00    -0.083 Cl
HETATM   28  C   UNL     1      28.306  52.980  40.153  1.00  0.00     0.026 A 
HETATM   29  C   UNL     1      28.070  52.428  41.407  1.00  0.00     0.002 A 
HETATM   30  C   UNL     1      28.575  51.165  41.713  1.00  0.00     0.011 A 
ENDBRANCH   9  23
BRANCH   7  31
HETATM   31  C   UNL     1      34.525  50.324  41.815  1.00  0.00     0.085 C 
BRANCH  31  32
HETATM   32  C   UNL     1      35.219  50.757  40.520  1.00  0.00     0.034 C 
BRANCH  32  33
HETATM   33  C   UNL     1      34.463  51.814  39.719  1.00  0.00     0.164 C 
BRANCH  33  34
HETATM   34  O   UNL     1      33.850  51.247  38.571  1.00  0.00    -0.401 OA
HETATM   35  H   UNL     1      34.509  50.645  38.172  1.00  0.00     0.209 HD
ENDBRANCH  33  34
ENDBRANCH  32  33
ENDBRANCH  31  32
ENDBRANCH   7  31
TORSDOF 7
ENDMDL
MODEL 9
REMARK VINA RESULT:      -7.4      3.951      7.941
REMARK  7 active torsions:
REMARK  status: ('A' for Active; 'I' for Inactive)
REMARK    1  A    between atoms: C_7  and  C_8 
REMARK    2  A    between atoms: C_8  and  C_9 
REMARK    3  A    between atoms: C_9  and  C_10 
REMARK    4  A    between atoms: C_10  and  O_11 
REMARK    5  A    between atoms: C_13  and  C_14 
REMARK    6  A    between atoms: C_22  and  C_23 
REMARK       I    between atoms: C_23  and  N_24 
REMARK    7  A    between atoms: N_24  and  C_25 
ROOT
HETATM    1  C   UNL     1      24.390  47.122  50.449  1.00  0.00     0.070 C 
HETATM    2  C   UNL     1      23.826  46.205  49.390  1.00  0.00     0.037 C 
HETATM    3  N   UNL     1      24.264  44.887  49.452  1.00  0.00    -0.192 N 
HETATM    4  C   UNL     1      23.717  43.892  48.730  1.00  0.00     0.726 A 
HETATM    5  N   UNL     1      22.769  44.186  47.789  1.00  0.00    -0.083 N 
HETATM    6  N   UNL     1      22.312  43.065  47.186  1.00  0.00    -0.140 NA
HETATM    7  C   UNL     1      23.011  42.125  47.844  1.00  0.00     0.166 A 
HETATM    8  N   UNL     1      23.895  42.598  48.784  1.00  0.00    -0.046 NA
HETATM    9  C   UNL     1      22.319  45.553  47.480  1.00  0.00     0.204 C 
HETATM   10  C   UNL     1      22.915  46.572  48.452  1.00  0.00     0.062 C 
HETATM   11  H   UNL     1      24.873  44.630  50.226  1.00  0.00     0.184 HD
ENDROOT
BRANCH  10  12
HETATM   12  C   UNL     1      22.425  47.974  48.343  1.00  0.00     0.256 C 
HETATM   13  N   UNL     1      21.471  48.296  49.287  1.00  0.00    -0.323 N 
HETATM   14  H   UNL     1      21.242  47.592  49.976  1.00  0.00     0.169 HD
HETATM   15  O   UNL     1      22.886  48.713  47.485  1.00  0.00    -0.267 OA
BRANCH  13  16
HETATM   16  C   UNL     1      20.706  49.483  49.341  1.00  0.00     0.035 A 
HETATM   17  C   UNL     1      21.050  50.666  48.677  1.00  0.00     0.032 A 
HETATM   18  C   UNL     1      20.218  51.788  48.743  1.00  0.00     0.044 A 
HETATM   19  C   UNL     1      19.041  51.727  49.475  1.00  0.00     0.116 A 
HETATM   20  F   UNL     1      18.239  52.799  49.529  1.00  0.00    -0.206 F 
HETATM   21  C   UNL     1      18.682  50.567  50.146  1.00  0.00     0.044 A 
HETATM   22  C   UNL     1      19.515  49.446  50.081  1.00  0.00     0.032 A 
ENDBRANCH  13  16
ENDBRANCH  10  12
BRANCH   9  23
HETATM   23  C   UNL     1      20.803  45.589  47.281  1.00  0.00    -0.005 A 
HETATM   24  C   UNL     1      20.174  45.770  46.030  1.00  0.00     0.064 A 
HETATM   25 CL   UNL     1      21.121  45.973  44.588  1.00  0.00    -0.082 Cl
HETATM   26  C   UNL     1      18.770  45.781  45.949  1.00  0.00     0.056 A 
HETATM   27 CL   UNL     1      17.923  45.990  44.453  1.00  0.00    -0.083 Cl
HETATM   28  C   UNL     1      17.991  45.621  47.098  1.00  0.00     0.026 A 
HETATM   29  C   UNL     1      18.600  45.449  48.336  1.00  0.00     0.002 A 
HETATM   30  C   UNL     1      19.991  45.434  48.427  1.00  0.00     0.011 A 
ENDBRANCH   9  23
BRANCH   7  31
HETATM   31  C   UNL     1      22.758  40.674  47.658  1.00  0.00     0.085 C 
BRANCH  31  32
HETATM   32  C   UNL     1      21.641  40.395  46.649  1.00  0.00     0.034 C 
BRANCH  32  33
HETATM   33  C   UNL     1      20.828  39.135  46.935  1.00  0.00     0.164 C 
BRANCH  33  34
HETATM   34  O   UNL     1      20.101  39.258  48.148  1.00  0.00    -0.401 OA
HETATM   35  H   UNL     1      20.740  39.549  48.828  1.00  0.00     0.209 HD
ENDBRANCH  33  34
ENDBRANCH  32  33
ENDBRANCH  31  32
ENDBRANCH   7  31
TORSDOF 7
ENDMDL
MODEL 10
REMARK VINA RESULT:      -7.4      4.507      8.242
REMARK  7 active torsions:
REMARK  status: ('A' for Active; 'I' for Inactive)
REMARK    1  A    between atoms: C_7  and  C_8 
REMARK    2  A    between atoms: C_8  and  C_9 
REMARK    3  A    between atoms: C_9  and  C_10 
REMARK    4  A    between atoms: C_10  and  O_11 
REMARK    5  A    between atoms: C_13  and  C_14 
REMARK    6  A    between atoms: C_22  and  C_23 
REMARK       I    between atoms: C_23  and  N_24 
REMARK    7  A    between atoms: N_24  and  C_25 
ROOT
HETATM    1  C   UNL     1      18.646  48.968  51.458  1.00  0.00     0.070 C 
HETATM    2  C   UNL     1      19.198  48.834  50.059  1.00  0.00     0.037 C 
HETATM    3  N   UNL     1      19.921  47.672  49.816  1.00  0.00    -0.192 N 
HETATM    4  C   UNL     1      20.306  47.286  48.586  1.00  0.00     0.726 A 
HETATM    5  N   UNL     1      20.100  48.121  47.523  1.00  0.00    -0.083 N 
HETATM    6  N   UNL     1      20.520  47.558  46.368  1.00  0.00    -0.140 NA
HETATM    7  C   UNL     1      20.939  46.361  46.811  1.00  0.00     0.166 A 
HETATM    8  N   UNL     1      20.840  46.168  48.168  1.00  0.00    -0.046 NA
HETATM    9  C   UNL     1      19.501  49.461  47.639  1.00  0.00     0.204 C 
HETATM   10  C   UNL     1      18.991  49.726  49.056  1.00  0.00     0.062 C 
HETATM   11  H   UNL     1      19.973  46.985  50.565  1.00  0.00     0.184 HD
ENDROOT
BRANCH  10  12
HETATM   12  C   UNL     1      18.230  50.988  49.274  1.00  0.00     0.256 C 
HETATM   13  N   UNL     1      16.881  50.867  49.009  1.00  0.00    -0.323 N 
HETATM   14  H   UNL     1      16.538  49.950  48.753  1.00  0.00     0.169 HD
HETATM   15  O   UNL     1      18.813  51.987  49.668  1.00  0.00    -0.267 OA
BRANCH  13  16
HETATM   16  C   UNL     1      15.934  51.914  48.966  1.00  0.00     0.035 A 
HETATM   17  C   UNL     1      15.381  52.515  50.103  1.00  0.00     0.032 A 
HETATM   18  C   UNL     1      14.480  53.577  49.981  1.00  0.00     0.044 A 
HETATM   19  C   UNL     1      14.131  54.039  48.719  1.00  0.00     0.116 A 
HETATM   20  F   UNL     1      13.276  55.064  48.603  1.00  0.00    -0.206 F 
HETATM   21  C   UNL     1      14.661  53.455  47.578  1.00  0.00     0.044 A 
HETATM   22  C   UNL     1      15.561  52.391  47.701  1.00  0.00     0.032 A 
ENDBRANCH  13  16
ENDBRANCH  10  12
BRANCH   9  23
HETATM   23  C   UNL     1      18.523  49.716  46.492  1.00  0.00    -0.005 A 
HETATM   24  C   UNL     1      17.341  48.973  46.281  1.00  0.00     0.064 A 
HETATM   25 CL   UNL     1      16.913  47.673  47.350  1.00  0.00    -0.082 Cl
HETATM   26  C   UNL     1      16.500  49.291  45.198  1.00  0.00     0.056 A 
HETATM   27 CL   UNL     1      15.030  48.433  44.876  1.00  0.00    -0.083 Cl
HETATM   28  C   UNL     1      16.828  50.332  44.326  1.00  0.00     0.026 A 
HETATM   29  C   UNL     1      17.992  51.066  44.521  1.00  0.00     0.002 A 
HETATM   30  C   UNL     1      18.831  50.761  45.592  1.00  0.00     0.011 A 
ENDBRANCH   9  23
BRANCH   7  31
HETATM   31  C   UNL     1      21.363  45.278  45.889  1.00  0.00     0.085 C 
BRANCH  31  32
HETATM   32  C   UNL     1      20.765  43.918  46.261  1.00  0.00     0.034 C 
BRANCH  32  33
HETATM   33  C   UNL     1      19.244  43.845  46.157  1.00  0.00     0.164 C 
BRANCH  33  34
HETATM   34  O   UNL     1      18.633  44.064  47.420  1.00  0.00    -0.401 OA
HETATM   35  H   UNL     1      19.357  44.115  48.075  1.00  0.00     0.209 HD
ENDBRANCH  33  34
ENDBRANCH  32  33
ENDBRANCH  31  32
ENDBRANCH   7  31
TORSDOF 7
ENDMDL
