MODEL 1
REMARK VINA RESULT:      -8.1      0.000      0.000
REMARK  6 active torsions:
REMARK  status: ('A' for Active; 'I' for Inactive)
REMARK    1  A    between atoms: C_2  and  N_3 
REMARK    2  A    between atoms: C_2  and  C_21 
REMARK       I    between atoms: N_3  and  C_4 
REMARK       I    between atoms: C_4  and  N_5 
REMARK    3  A    between atoms: N_5  and  C_6 
REMARK    4  A    between atoms: C_9  and  O_10 
REMARK    5  A    between atoms: O_10  and  C_11 
REMARK    6  A    between atoms: C_11  and  C_12 
ROOT
HETATM    1  C   UNL     1      26.018  46.755  51.682  1.00  0.00     0.036 A 
HETATM    2  C   UNL     1      26.278  47.078  53.014  1.00  0.00     0.032 A 
HETATM    3  C   UNL     1      26.880  46.146  53.873  1.00  0.00     0.039 A 
HETATM    4  C   UNL     1      27.238  44.886  53.402  1.00  0.00     0.068 A 
HETATM    5  C   UNL     1      26.943  44.543  52.083  1.00  0.00     0.039 A 
HETATM    6  C   UNL     1      26.340  45.471  51.228  1.00  0.00     0.032 A 
ENDROOT
BRANCH   1   7
HETATM    7  N   UNL     1      25.471  47.654  50.742  1.00  0.00    -0.309 N 
HETATM    8  C   UNL     1      26.032  48.086  49.573  1.00  0.00     0.321 C 
HETATM    9  N   UNL     1      25.230  48.830  48.768  1.00  0.00    -0.332 N 
HETATM   10  O   UNL     1      27.172  47.853  49.182  1.00  0.00    -0.247 OA
HETATM   11  H   UNL     1      25.680  49.112  47.902  1.00  0.00     0.165 HD
HETATM   12  H   UNL     1      24.563  48.017  50.971  1.00  0.00     0.170 HD
BRANCH   9  13
HETATM   13  C   UNL     1      23.837  49.245  48.914  1.00  0.00     0.155 C 
HETATM   14  C   UNL     1      23.576  50.523  48.123  1.00  0.00     0.041 C 
BRANCH  13  15
HETATM   15  C   UNL     1      22.952  48.122  48.451  1.00  0.00     0.169 A 
HETATM   16  N   UNL     1      22.973  46.898  49.001  1.00  0.00    -0.156 NA
HETATM   17  N   UNL     1      22.069  46.249  48.247  1.00  0.00    -0.270 N 
HETATM   18  H   UNL     1      21.875  45.271  48.434  1.00  0.00     0.190 HD
HETATM   19  C   UNL     1      21.537  47.066  47.302  1.00  0.00     0.227 A 
HETATM   20  N   UNL     1      22.069  48.260  47.402  1.00  0.00    -0.223 NA
ENDBRANCH  13  15
ENDBRANCH   9  13
ENDBRANCH   1   7
BRANCH   4  21
HETATM   21  O   UNL     1      27.866  43.913  54.128  1.00  0.00    -0.351 OA
BRANCH  21  22
HETATM   22  C   UNL     1      28.390  44.312  55.398  1.00  0.00     0.180 C 
BRANCH  22  23
HETATM   23  C   UNL     1      29.851  44.761  55.214  1.00  0.00     0.010 C 
HETATM   24  C   UNL     1      30.260  45.851  56.223  1.00  0.00     0.007 C 
HETATM   25  C   UNL     1      30.410  45.317  57.647  1.00  0.00     0.000 C 
HETATM   26  C   UNL     1      31.364  44.127  57.705  1.00  0.00     0.000 C 
HETATM   27  C   UNL     1      30.974  43.029  56.720  1.00  0.00     0.000 C 
HETATM   28  C   UNL     1      30.818  43.570  55.299  1.00  0.00     0.007 C 
ENDBRANCH  22  23
ENDBRANCH  21  22
ENDBRANCH   4  21
TORSDOF 6
ENDMDL
MODEL 2
REMARK VINA RESULT:      -8.0      3.422      9.681
REMARK  6 active torsions:
REMARK  status: ('A' for Active; 'I' for Inactive)
REMARK    1  A    between atoms: C_2  and  N_3 
REMARK    2  A    between atoms: C_2  and  C_21 
REMARK       I    between atoms: N_3  and  C_4 
REMARK       I    between atoms: C_4  and  N_5 
REMARK    3  A    between atoms: N_5  and  C_6 
REMARK    4  A    between atoms: C_9  and  O_10 
REMARK    5  A    between atoms: O_10  and  C_11 
REMARK    6  A    between atoms: C_11  and  C_12 
ROOT
HETATM    1  C   UNL     1      25.448  47.336  50.082  1.00  0.00     0.036 A 
HETATM    2  C   UNL     1      26.163  48.371  49.479  1.00  0.00     0.032 A 
HETATM    3  C   UNL     1      25.498  49.391  48.785  1.00  0.00     0.039 A 
HETATM    4  C   UNL     1      24.108  49.392  48.698  1.00  0.00     0.068 A 
HETATM    5  C   UNL     1      23.391  48.339  49.264  1.00  0.00     0.039 A 
HETATM    6  C   UNL     1      24.054  47.319  49.953  1.00  0.00     0.032 A 
ENDROOT
BRANCH   1   7
HETATM    7  N   UNL     1      26.037  46.307  50.846  1.00  0.00    -0.309 N 
HETATM    8  C   UNL     1      26.764  45.240  50.395  1.00  0.00     0.321 C 
HETATM    9  N   UNL     1      27.358  44.479  51.350  1.00  0.00    -0.332 N 
HETATM   10  O   UNL     1      26.942  44.923  49.223  1.00  0.00    -0.247 OA
HETATM   11  H   UNL     1      27.903  43.711  50.971  1.00  0.00     0.165 HD
HETATM   12  H   UNL     1      25.897  46.373  51.839  1.00  0.00     0.170 HD
BRANCH   9  13
HETATM   13  C   UNL     1      27.381  44.603  52.805  1.00  0.00     0.155 C 
HETATM   14  C   UNL     1      26.115  44.008  53.412  1.00  0.00     0.041 C 
BRANCH  13  15
HETATM   15  C   UNL     1      28.614  43.919  53.324  1.00  0.00     0.169 A 
HETATM   16  N   UNL     1      29.020  44.010  54.600  1.00  0.00    -0.156 NA
HETATM   17  N   UNL     1      30.154  43.289  54.573  1.00  0.00    -0.270 N 
HETATM   18  H   UNL     1      30.700  43.186  55.422  1.00  0.00     0.190 HD
HETATM   19  C   UNL     1      30.393  42.790  53.332  1.00  0.00     0.227 A 
HETATM   20  N   UNL     1      29.437  43.165  52.516  1.00  0.00    -0.223 NA
ENDBRANCH  13  15
ENDBRANCH   9  13
ENDBRANCH   1   7
BRANCH   4  21
HETATM   21  O   UNL     1      23.349  50.351  48.088  1.00  0.00    -0.351 OA
BRANCH  21  22
HETATM   22  C   UNL     1      22.288  50.909  48.870  1.00  0.00     0.180 C 
BRANCH  22  23
HETATM   23  C   UNL     1      20.987  50.863  48.048  1.00  0.00     0.010 C 
HETATM   24  C   UNL     1      20.329  49.471  48.071  1.00  0.00     0.007 C 
HETATM   25  C   UNL     1      19.704  49.131  49.424  1.00  0.00     0.000 C 
HETATM   26  C   UNL     1      18.725  50.210  49.879  1.00  0.00     0.000 C 
HETATM   27  C   UNL     1      19.358  51.599  49.873  1.00  0.00     0.000 C 
HETATM   28  C   UNL     1      19.988  51.930  48.520  1.00  0.00     0.007 C 
ENDBRANCH  22  23
ENDBRANCH  21  22
ENDBRANCH   4  21
TORSDOF 6
ENDMDL
MODEL 3
REMARK VINA RESULT:      -8.0      2.291      3.099
REMARK  6 active torsions:
REMARK  status: ('A' for Active; 'I' for Inactive)
REMARK    1  A    between atoms: C_2  and  N_3 
REMARK    2  A    between atoms: C_2  and  C_21 
REMARK       I    between atoms: N_3  and  C_4 
REMARK       I    between atoms: C_4  and  N_5 
REMARK    3  A    between atoms: N_5  and  C_6 
REMARK    4  A    between atoms: C_9  and  O_10 
REMARK    5  A    between atoms: O_10  and  C_11 
REMARK    6  A    between atoms: C_11  and  C_12 
ROOT
HETATM    1  C   UNL     1      25.079  46.419  50.370  1.00  0.00     0.036 A 
HETATM    2  C   UNL     1      24.929  45.935  51.671  1.00  0.00     0.032 A 
HETATM    3  C   UNL     1      25.772  44.926  52.160  1.00  0.00     0.039 A 
HETATM    4  C   UNL     1      26.781  44.402  51.357  1.00  0.00     0.068 A 
HETATM    5  C   UNL     1      26.910  44.854  50.044  1.00  0.00     0.039 A 
HETATM    6  C   UNL     1      26.067  45.856  49.554  1.00  0.00     0.032 A 
ENDROOT
BRANCH   1   7
HETATM    7  N   UNL     1      24.313  47.470  49.824  1.00  0.00    -0.309 N 
HETATM    8  C   UNL     1      23.182  47.373  49.061  1.00  0.00     0.321 C 
HETATM    9  N   UNL     1      22.543  48.541  48.794  1.00  0.00    -0.332 N 
HETATM   10  O   UNL     1      22.690  46.340  48.617  1.00  0.00    -0.247 OA
HETATM   11  H   UNL     1      21.699  48.421  48.242  1.00  0.00     0.165 HD
HETATM   12  H   UNL     1      24.649  48.396  50.022  1.00  0.00     0.170 HD
BRANCH   9  13
HETATM   13  C   UNL     1      22.835  49.914  49.199  1.00  0.00     0.155 C 
HETATM   14  C   UNL     1      23.794  50.569  48.210  1.00  0.00     0.041 C 
BRANCH  13  15
HETATM   15  C   UNL     1      21.540  50.671  49.293  1.00  0.00     0.169 A 
HETATM   16  N   UNL     1      20.862  50.820  50.440  1.00  0.00    -0.156 NA
HETATM   17  N   UNL     1      19.784  51.510  50.027  1.00  0.00    -0.270 N 
HETATM   18  H   UNL     1      19.069  51.767  50.699  1.00  0.00     0.190 HD
HETATM   19  C   UNL     1      19.840  51.759  48.693  1.00  0.00     0.227 A 
HETATM   20  N   UNL     1      20.939  51.246  48.195  1.00  0.00    -0.223 NA
ENDBRANCH  13  15
ENDBRANCH   9  13
ENDBRANCH   1   7
BRANCH   4  21
HETATM   21  O   UNL     1      27.688  43.452  51.736  1.00  0.00    -0.351 OA
BRANCH  21  22
HETATM   22  C   UNL     1      28.722  43.884  52.625  1.00  0.00     0.180 C 
BRANCH  22  23
HETATM   23  C   UNL     1      28.384  43.412  54.051  1.00  0.00     0.010 C 
HETATM   24  C   UNL     1      29.520  42.583  54.679  1.00  0.00     0.007 C 
HETATM   25  C   UNL     1      30.738  43.430  55.049  1.00  0.00     0.000 C 
HETATM   26  C   UNL     1      30.355  44.606  55.943  1.00  0.00     0.000 C 
HETATM   27  C   UNL     1      29.236  45.448  55.338  1.00  0.00     0.000 C 
HETATM   28  C   UNL     1      28.024  44.595  54.961  1.00  0.00     0.007 C 
ENDBRANCH  22  23
ENDBRANCH  21  22
ENDBRANCH   4  21
TORSDOF 6
ENDMDL
MODEL 4
REMARK VINA RESULT:      -8.0      3.841      9.521
REMARK  6 active torsions:
REMARK  status: ('A' for Active; 'I' for Inactive)
REMARK    1  A    between atoms: C_2  and  N_3 
REMARK    2  A    between atoms: C_2  and  C_21 
REMARK       I    between atoms: N_3  and  C_4 
REMARK       I    between atoms: C_4  and  N_5 
REMARK    3  A    between atoms: N_5  and  C_6 
REMARK    4  A    between atoms: C_9  and  O_10 
REMARK    5  A    between atoms: O_10  and  C_11 
REMARK    6  A    between atoms: C_11  and  C_12 
ROOT
HETATM    1  C   UNL     1      25.282  45.532  51.052  1.00  0.00     0.036 A 
HETATM    2  C   UNL     1      24.326  44.959  50.212  1.00  0.00     0.032 A 
HETATM    3  C   UNL     1      23.554  45.759  49.357  1.00  0.00     0.039 A 
HETATM    4  C   UNL     1      23.742  47.138  49.323  1.00  0.00     0.068 A 
HETATM    5  C   UNL     1      24.668  47.719  50.189  1.00  0.00     0.039 A 
HETATM    6  C   UNL     1      25.435  46.923  51.045  1.00  0.00     0.032 A 
ENDROOT
BRANCH   1   7
HETATM    7  N   UNL     1      26.137  44.793  51.896  1.00  0.00    -0.309 N 
HETATM    8  C   UNL     1      25.795  44.057  52.997  1.00  0.00     0.321 C 
HETATM    9  N   UNL     1      26.789  43.309  53.544  1.00  0.00    -0.332 N 
HETATM   10  O   UNL     1      24.685  43.997  53.517  1.00  0.00    -0.247 OA
HETATM   11  H   UNL     1      26.486  42.764  54.345  1.00  0.00     0.165 HD
HETATM   12  H   UNL     1      27.112  44.821  51.654  1.00  0.00     0.170 HD
BRANCH   9  13
HETATM   13  C   UNL     1      28.183  43.125  53.152  1.00  0.00     0.155 C 
HETATM   14  C   UNL     1      29.070  42.982  54.385  1.00  0.00     0.041 C 
BRANCH  13  15
HETATM   15  C   UNL     1      28.275  41.915  52.265  1.00  0.00     0.169 A 
HETATM   16  N   UNL     1      28.925  40.796  52.619  1.00  0.00    -0.156 NA
HETATM   17  N   UNL     1      28.772  40.037  51.519  1.00  0.00    -0.270 N 
HETATM   18  H   UNL     1      29.179  39.109  51.493  1.00  0.00     0.190 HD
HETATM   19  C   UNL     1      28.053  40.687  50.568  1.00  0.00     0.227 A 
HETATM   20  N   UNL     1      27.718  41.877  51.006  1.00  0.00    -0.223 NA
ENDBRANCH  13  15
ENDBRANCH   9  13
ENDBRANCH   1   7
BRANCH   4  21
HETATM   21  O   UNL     1      23.084  48.012  48.504  1.00  0.00    -0.351 OA
BRANCH  21  22
HETATM   22  C   UNL     1      22.307  49.023  49.153  1.00  0.00     0.180 C 
BRANCH  22  23
HETATM   23  C   UNL     1      20.903  49.055  48.522  1.00  0.00     0.010 C 
HETATM   24  C   UNL     1      19.785  48.932  49.574  1.00  0.00     0.007 C 
HETATM   25  C   UNL     1      19.632  50.190  50.428  1.00  0.00     0.000 C 
HETATM   26  C   UNL     1      19.442  51.435  49.567  1.00  0.00     0.000 C 
HETATM   27  C   UNL     1      20.543  51.584  48.521  1.00  0.00     0.000 C 
HETATM   28  C   UNL     1      20.698  50.320  47.676  1.00  0.00     0.007 C 
ENDBRANCH  22  23
ENDBRANCH  21  22
ENDBRANCH   4  21
TORSDOF 6
ENDMDL
MODEL 5
REMARK VINA RESULT:      -8.0      2.301      3.232
REMARK  6 active torsions:
REMARK  status: ('A' for Active; 'I' for Inactive)
REMARK    1  A    between atoms: C_2  and  N_3 
REMARK    2  A    between atoms: C_2  and  C_21 
REMARK       I    between atoms: N_3  and  C_4 
REMARK       I    between atoms: C_4  and  N_5 
REMARK    3  A    between atoms: N_5  and  C_6 
REMARK    4  A    between atoms: C_9  and  O_10 
REMARK    5  A    between atoms: O_10  and  C_11 
REMARK    6  A    between atoms: C_11  and  C_12 
ROOT
HETATM    1  C   UNL     1      24.292  47.136  50.289  1.00  0.00     0.036 A 
HETATM    2  C   UNL     1      25.310  47.187  51.241  1.00  0.00     0.032 A 
HETATM    3  C   UNL     1      26.164  46.092  51.435  1.00  0.00     0.039 A 
HETATM    4  C   UNL     1      26.015  44.940  50.667  1.00  0.00     0.068 A 
HETATM    5  C   UNL     1      24.974  44.868  49.742  1.00  0.00     0.039 A 
HETATM    6  C   UNL     1      24.120  45.959  49.552  1.00  0.00     0.032 A 
ENDROOT
BRANCH   1   7
HETATM    7  N   UNL     1      23.431  48.214  49.993  1.00  0.00    -0.309 N 
HETATM    8  C   UNL     1      23.564  49.144  48.999  1.00  0.00     0.321 C 
HETATM    9  N   UNL     1      22.511  49.985  48.827  1.00  0.00    -0.332 N 
HETATM   10  O   UNL     1      24.526  49.274  48.248  1.00  0.00    -0.247 OA
HETATM   11  H   UNL     1      22.645  50.645  48.067  1.00  0.00     0.165 HD
HETATM   12  H   UNL     1      22.629  48.303  50.593  1.00  0.00     0.170 HD
BRANCH   9  13
HETATM   13  C   UNL     1      21.224  50.069  49.511  1.00  0.00     0.155 C 
HETATM   14  C   UNL     1      20.433  51.275  49.013  1.00  0.00     0.041 C 
BRANCH  13  15
HETATM   15  C   UNL     1      20.475  48.787  49.278  1.00  0.00     0.169 A 
HETATM   16  N   UNL     1      19.459  48.381  50.055  1.00  0.00    -0.156 NA
HETATM   17  N   UNL     1      19.150  47.198  49.497  1.00  0.00    -0.270 N 
HETATM   18  H   UNL     1      18.400  46.641  49.891  1.00  0.00     0.190 HD
HETATM   19  C   UNL     1      19.949  46.931  48.431  1.00  0.00     0.227 A 
HETATM   20  N   UNL     1      20.797  47.916  48.260  1.00  0.00    -0.223 NA
ENDBRANCH  13  15
ENDBRANCH   9  13
ENDBRANCH   1   7
BRANCH   4  21
HETATM   21  O   UNL     1      26.809  43.829  50.735  1.00  0.00    -0.351 OA
BRANCH  21  22
HETATM   22  C   UNL     1      27.971  43.933  51.563  1.00  0.00     0.180 C 
BRANCH  22  23
HETATM   23  C   UNL     1      27.890  42.866  52.671  1.00  0.00     0.010 C 
HETATM   24  C   UNL     1      29.175  42.022  52.766  1.00  0.00     0.007 C 
HETATM   25  C   UNL     1      30.356  42.801  53.346  1.00  0.00     0.000 C 
HETATM   26  C   UNL     1      30.009  43.428  54.693  1.00  0.00     0.000 C 
HETATM   27  C   UNL     1      28.743  44.278  54.622  1.00  0.00     0.000 C 
HETATM   28  C   UNL     1      27.568  43.497  54.034  1.00  0.00     0.007 C 
ENDBRANCH  22  23
ENDBRANCH  21  22
ENDBRANCH   4  21
TORSDOF 6
ENDMDL
MODEL 6
REMARK VINA RESULT:      -7.9      1.901      2.155
REMARK  6 active torsions:
REMARK  status: ('A' for Active; 'I' for Inactive)
REMARK    1  A    between atoms: C_2  and  N_3 
REMARK    2  A    between atoms: C_2  and  C_21 
REMARK       I    between atoms: N_3  and  C_4 
REMARK       I    between atoms: C_4  and  N_5 
REMARK    3  A    between atoms: N_5  and  C_6 
REMARK    4  A    between atoms: C_9  and  O_10 
REMARK    5  A    between atoms: O_10  and  C_11 
REMARK    6  A    between atoms: C_11  and  C_12 
ROOT
HETATM    1  C   UNL     1      25.562  45.853  51.344  1.00  0.00     0.036 A 
HETATM    2  C   UNL     1      25.175  45.644  52.669  1.00  0.00     0.032 A 
HETATM    3  C   UNL     1      25.847  44.710  53.470  1.00  0.00     0.039 A 
HETATM    4  C   UNL     1      26.921  43.987  52.958  1.00  0.00     0.068 A 
HETATM    5  C   UNL     1      27.286  44.163  51.624  1.00  0.00     0.039 A 
HETATM    6  C   UNL     1      26.613  45.091  50.823  1.00  0.00     0.032 A 
ENDROOT
BRANCH   1   7
HETATM    7  N   UNL     1      24.976  46.814  50.492  1.00  0.00    -0.309 N 
HETATM    8  C   UNL     1      24.073  46.602  49.488  1.00  0.00     0.321 C 
HETATM    9  N   UNL     1      23.543  47.718  48.921  1.00  0.00    -0.332 N 
HETATM   10  O   UNL     1      23.689  45.514  49.071  1.00  0.00    -0.247 OA
HETATM   11  H   UNL     1      22.863  47.514  48.195  1.00  0.00     0.165 HD
HETATM   12  H   UNL     1      25.269  47.763  50.647  1.00  0.00     0.170 HD
BRANCH   9  13
HETATM   13  C   UNL     1      23.750  49.135  49.206  1.00  0.00     0.155 C 
HETATM   14  C   UNL     1      24.350  49.841  47.995  1.00  0.00     0.041 C 
BRANCH  13  15
HETATM   15  C   UNL     1      22.431  49.741  49.598  1.00  0.00     0.169 A 
HETATM   16  N   UNL     1      22.328  50.837  50.365  1.00  0.00    -0.156 NA
HETATM   17  N   UNL     1      20.994  50.964  50.473  1.00  0.00    -0.270 N 
HETATM   18  H   UNL     1      20.609  51.726  51.021  1.00  0.00     0.190 HD
HETATM   19  C   UNL     1      20.348  49.986  49.788  1.00  0.00     0.227 A 
HETATM   20  N   UNL     1      21.224  49.195  49.218  1.00  0.00    -0.223 NA
ENDBRANCH  13  15
ENDBRANCH   9  13
ENDBRANCH   1   7
BRANCH   4  21
HETATM   21  O   UNL     1      27.677  43.085  53.653  1.00  0.00    -0.351 OA
BRANCH  21  22
HETATM   22  C   UNL     1      28.191  43.528  54.913  1.00  0.00     0.180 C 
BRANCH  22  23
HETATM   23  C   UNL     1      29.503  44.297  54.673  1.00  0.00     0.010 C 
HETATM   24  C   UNL     1      29.583  45.591  55.503  1.00  0.00     0.007 C 
HETATM   25  C   UNL     1      29.794  45.329  56.994  1.00  0.00     0.000 C 
HETATM   26  C   UNL     1      31.008  44.439  57.243  1.00  0.00     0.000 C 
HETATM   27  C   UNL     1      30.948  43.145  56.438  1.00  0.00     0.000 C 
HETATM   28  C   UNL     1      30.729  43.413  54.948  1.00  0.00     0.007 C 
ENDBRANCH  22  23
ENDBRANCH  21  22
ENDBRANCH   4  21
TORSDOF 6
ENDMDL
MODEL 7
REMARK VINA RESULT:      -7.9      3.395      9.150
REMARK  6 active torsions:
REMARK  status: ('A' for Active; 'I' for Inactive)
REMARK    1  A    between atoms: C_2  and  N_3 
REMARK    2  A    between atoms: C_2  and  C_21 
REMARK       I    between atoms: N_3  and  C_4 
REMARK       I    between atoms: C_4  and  N_5 
REMARK    3  A    between atoms: N_5  and  C_6 
REMARK    4  A    between atoms: C_9  and  O_10 
REMARK    5  A    between atoms: O_10  and  C_11 
REMARK    6  A    between atoms: C_11  and  C_12 
ROOT
HETATM    1  C   UNL     1      24.979  47.648  49.792  1.00  0.00     0.036 A 
HETATM    2  C   UNL     1      25.601  48.771  49.245  1.00  0.00     0.032 A 
HETATM    3  C   UNL     1      24.876  49.679  48.460  1.00  0.00     0.039 A 
HETATM    4  C   UNL     1      23.518  49.478  48.226  1.00  0.00     0.068 A 
HETATM    5  C   UNL     1      22.901  48.337  48.737  1.00  0.00     0.039 A 
HETATM    6  C   UNL     1      23.625  47.429  49.517  1.00  0.00     0.032 A 
ENDROOT
BRANCH   1   7
HETATM    7  N   UNL     1      25.623  46.721  50.639  1.00  0.00    -0.309 N 
HETATM    8  C   UNL     1      25.725  46.763  52.002  1.00  0.00     0.321 C 
HETATM    9  N   UNL     1      26.260  45.662  52.592  1.00  0.00    -0.332 N 
HETATM   10  O   UNL     1      25.366  47.682  52.731  1.00  0.00    -0.247 OA
HETATM   11  H   UNL     1      26.298  45.728  53.605  1.00  0.00     0.165 HD
HETATM   12  H   UNL     1      26.059  45.944  50.175  1.00  0.00     0.170 HD
BRANCH   9  13
HETATM   13  C   UNL     1      26.739  44.403  52.028  1.00  0.00     0.155 C 
HETATM   14  C   UNL     1      27.090  43.419  53.139  1.00  0.00     0.041 C 
BRANCH  13  15
HETATM   15  C   UNL     1      25.676  43.851  51.120  1.00  0.00     0.169 A 
HETATM   16  N   UNL     1      24.454  43.503  51.551  1.00  0.00    -0.156 NA
HETATM   17  N   UNL     1      23.893  43.039  50.421  1.00  0.00    -0.270 N 
HETATM   18  H   UNL     1      22.942  42.688  50.444  1.00  0.00     0.190 HD
HETATM   19  C   UNL     1      24.753  43.122  49.373  1.00  0.00     0.227 A 
HETATM   20  N   UNL     1      25.890  43.635  49.776  1.00  0.00    -0.223 NA
ENDBRANCH  13  15
ENDBRANCH   9  13
ENDBRANCH   1   7
BRANCH   4  21
HETATM   21  O   UNL     1      22.701  50.313  47.516  1.00  0.00    -0.351 OA
BRANCH  21  22
HETATM   22  C   UNL     1      21.307  50.253  47.834  1.00  0.00     0.180 C 
BRANCH  22  23
HETATM   23  C   UNL     1      20.957  51.428  48.765  1.00  0.00     0.010 C 
HETATM   24  C   UNL     1      19.719  52.208  48.284  1.00  0.00     0.007 C 
HETATM   25  C   UNL     1      18.417  51.430  48.473  1.00  0.00     0.000 C 
HETATM   26  C   UNL     1      18.246  50.961  49.915  1.00  0.00     0.000 C 
HETATM   27  C   UNL     1      19.458  50.177  50.412  1.00  0.00     0.000 C 
HETATM   28  C   UNL     1      20.758  50.957  50.213  1.00  0.00     0.007 C 
ENDBRANCH  22  23
ENDBRANCH  21  22
ENDBRANCH   4  21
TORSDOF 6
ENDMDL
MODEL 8
REMARK VINA RESULT:      -7.8      3.056      3.791
REMARK  6 active torsions:
REMARK  status: ('A' for Active; 'I' for Inactive)
REMARK    1  A    between atoms: C_2  and  N_3 
REMARK    2  A    between atoms: C_2  and  C_21 
REMARK       I    between atoms: N_3  and  C_4 
REMARK       I    between atoms: C_4  and  N_5 
REMARK    3  A    between atoms: N_5  and  C_6 
REMARK    4  A    between atoms: C_9  and  O_10 
REMARK    5  A    between atoms: O_10  and  C_11 
REMARK    6  A    between atoms: C_11  and  C_12 
ROOT
HETATM    1  C   UNL     1      26.144  45.301  52.117  1.00  0.00     0.036 A 
HETATM    2  C   UNL     1      26.844  44.391  52.910  1.00  0.00     0.032 A 
HETATM    3  C   UNL     1      27.438  44.800  54.113  1.00  0.00     0.039 A 
HETATM    4  C   UNL     1      27.326  46.121  54.539  1.00  0.00     0.068 A 
HETATM    5  C   UNL     1      26.662  47.042  53.731  1.00  0.00     0.039 A 
HETATM    6  C   UNL     1      26.072  46.636  52.529  1.00  0.00     0.032 A 
ENDROOT
BRANCH   1   7
HETATM    7  N   UNL     1      25.469  44.956  50.927  1.00  0.00    -0.309 N 
HETATM    8  C   UNL     1      25.946  45.016  49.647  1.00  0.00     0.321 C 
HETATM    9  N   UNL     1      25.149  44.475  48.689  1.00  0.00    -0.332 N 
HETATM   10  O   UNL     1      27.020  45.491  49.291  1.00  0.00    -0.247 OA
HETATM   11  H   UNL     1      25.550  44.524  47.758  1.00  0.00     0.165 HD
HETATM   12  H   UNL     1      24.524  44.634  51.044  1.00  0.00     0.170 HD
BRANCH   9  13
HETATM   13  C   UNL     1      23.854  43.807  48.779  1.00  0.00     0.155 C 
HETATM   14  C   UNL     1      22.844  44.471  47.848  1.00  0.00     0.041 C 
BRANCH  13  15
HETATM   15  C   UNL     1      24.041  42.354  48.439  1.00  0.00     0.169 A 
HETATM   16  N   UNL     1      24.714  41.500  49.225  1.00  0.00    -0.156 NA
HETATM   17  N   UNL     1      24.651  40.367  48.505  1.00  0.00    -0.270 N 
HETATM   18  H   UNL     1      25.095  39.526  48.858  1.00  0.00     0.190 HD
HETATM   19  C   UNL     1      23.960  40.553  47.351  1.00  0.00     0.227 A 
HETATM   20  N   UNL     1      23.555  41.798  47.276  1.00  0.00    -0.223 NA
ENDBRANCH  13  15
ENDBRANCH   9  13
ENDBRANCH   1   7
BRANCH   4  21
HETATM   21  O   UNL     1      27.823  46.625  55.708  1.00  0.00    -0.351 OA
BRANCH  21  22
HETATM   22  C   UNL     1      28.542  45.707  56.537  1.00  0.00     0.180 C 
BRANCH  22  23
HETATM   23  C   UNL     1      30.043  46.044  56.468  1.00  0.00     0.010 C 
HETATM   24  C   UNL     1      30.700  46.079  57.861  1.00  0.00     0.007 C 
HETATM   25  C   UNL     1      30.852  44.690  58.481  1.00  0.00     0.000 C 
HETATM   26  C   UNL     1      31.590  43.734  57.548  1.00  0.00     0.000 C 
HETATM   27  C   UNL     1      30.951  43.676  56.163  1.00  0.00     0.000 C 
HETATM   28  C   UNL     1      30.795  45.068  55.551  1.00  0.00     0.007 C 
ENDBRANCH  22  23
ENDBRANCH  21  22
ENDBRANCH   4  21
TORSDOF 6
ENDMDL
MODEL 9
REMARK VINA RESULT:      -7.7      3.132      9.567
REMARK  6 active torsions:
REMARK  status: ('A' for Active; 'I' for Inactive)
REMARK    1  A    between atoms: C_2  and  N_3 
REMARK    2  A    between atoms: C_2  and  C_21 
REMARK       I    between atoms: N_3  and  C_4 
REMARK       I    between atoms: C_4  and  N_5 
REMARK    3  A    between atoms: N_5  and  C_6 
REMARK    4  A    between atoms: C_9  and  O_10 
REMARK    5  A    between atoms: O_10  and  C_11 
REMARK    6  A    between atoms: C_11  and  C_12 
ROOT
HETATM    1  C   UNL     1      24.514  45.951  50.197  1.00  0.00     0.036 A 
HETATM    2  C   UNL     1      23.583  45.348  49.350  1.00  0.00     0.032 A 
HETATM    3  C   UNL     1      22.817  46.118  48.464  1.00  0.00     0.039 A 
HETATM    4  C   UNL     1      22.985  47.499  48.407  1.00  0.00     0.068 A 
HETATM    5  C   UNL     1      23.885  48.112  49.279  1.00  0.00     0.039 A 
HETATM    6  C   UNL     1      24.645  47.344  50.167  1.00  0.00     0.032 A 
ENDROOT
BRANCH   1   7
HETATM    7  N   UNL     1      25.362  45.242  51.073  1.00  0.00    -0.309 N 
HETATM    8  C   UNL     1      26.617  44.762  50.818  1.00  0.00     0.321 C 
HETATM    9  N   UNL     1      27.287  44.253  51.884  1.00  0.00    -0.332 N 
HETATM   10  O   UNL     1      27.191  44.766  49.733  1.00  0.00    -0.247 OA
HETATM   11  H   UNL     1      28.220  43.927  51.653  1.00  0.00     0.165 HD
HETATM   12  H   UNL     1      24.989  45.070  51.990  1.00  0.00     0.170 HD
BRANCH   9  13
HETATM   13  C   UNL     1      26.914  44.139  53.291  1.00  0.00     0.155 C 
HETATM   14  C   UNL     1      27.595  42.932  53.928  1.00  0.00     0.041 C 
BRANCH  13  15
HETATM   15  C   UNL     1      27.292  45.415  53.991  1.00  0.00     0.169 A 
HETATM   16  N   UNL     1      26.549  46.530  53.930  1.00  0.00    -0.156 NA
HETATM   17  N   UNL     1      27.291  47.387  54.652  1.00  0.00    -0.270 N 
HETATM   18  H   UNL     1      26.972  48.342  54.776  1.00  0.00     0.190 HD
HETATM   19  C   UNL     1      28.417  46.790  55.122  1.00  0.00     0.227 A 
HETATM   20  N   UNL     1      28.450  45.540  54.726  1.00  0.00    -0.223 NA
ENDBRANCH  13  15
ENDBRANCH   9  13
ENDBRANCH   1   7
BRANCH   4  21
HETATM   21  O   UNL     1      22.330  48.347  47.558  1.00  0.00    -0.351 OA
BRANCH  21  22
HETATM   22  C   UNL     1      21.037  48.789  47.980  1.00  0.00     0.180 C 
BRANCH  22  23
HETATM   23  C   UNL     1      20.909  50.297  47.694  1.00  0.00     0.010 C 
HETATM   24  C   UNL     1      19.454  50.717  47.408  1.00  0.00     0.007 C 
HETATM   25  C   UNL     1      18.572  50.691  48.657  1.00  0.00     0.000 C 
HETATM   26  C   UNL     1      19.173  51.520  49.788  1.00  0.00     0.000 C 
HETATM   27  C   UNL     1      20.611  51.116  50.096  1.00  0.00     0.000 C 
HETATM   28  C   UNL     1      21.487  51.136  48.843  1.00  0.00     0.007 C 
ENDBRANCH  22  23
ENDBRANCH  21  22
ENDBRANCH   4  21
TORSDOF 6
ENDMDL
MODEL 10
REMARK VINA RESULT:      -7.7      1.750      2.311
REMARK  6 active torsions:
REMARK  status: ('A' for Active; 'I' for Inactive)
REMARK    1  A    between atoms: C_2  and  N_3 
REMARK    2  A    between atoms: C_2  and  C_21 
REMARK       I    between atoms: N_3  and  C_4 
REMARK       I    between atoms: C_4  and  N_5 
REMARK    3  A    between atoms: N_5  and  C_6 
REMARK    4  A    between atoms: C_9  and  O_10 
REMARK    5  A    between atoms: O_10  and  C_11 
REMARK    6  A    between atoms: C_11  and  C_12 
ROOT
HETATM    1  C   UNL     1      24.955  45.226  51.001  1.00  0.00     0.036 A 
HETATM    2  C   UNL     1      25.924  44.474  50.335  1.00  0.00     0.032 A 
HETATM    3  C   UNL     1      26.746  43.583  51.039  1.00  0.00     0.039 A 
HETATM    4  C   UNL     1      26.597  43.425  52.415  1.00  0.00     0.068 A 
HETATM    5  C   UNL     1      25.658  44.203  53.090  1.00  0.00     0.039 A 
HETATM    6  C   UNL     1      24.841  45.096  52.389  1.00  0.00     0.032 A 
ENDROOT
BRANCH   1   7
HETATM    7  N   UNL     1      24.052  46.098  50.358  1.00  0.00    -0.309 N 
HETATM    8  C   UNL     1      24.303  47.348  49.863  1.00  0.00     0.321 C 
HETATM    9  N   UNL     1      23.299  47.916  49.146  1.00  0.00    -0.332 N 
HETATM   10  O   UNL     1      25.344  47.985  49.989  1.00  0.00    -0.247 OA
HETATM   11  H   UNL     1      23.536  48.834  48.781  1.00  0.00     0.165 HD
HETATM   12  H   UNL     1      23.113  45.753  50.262  1.00  0.00     0.170 HD
BRANCH   9  13
HETATM   13  C   UNL     1      21.975  47.419  48.780  1.00  0.00     0.155 C 
HETATM   14  C   UNL     1      21.078  48.569  48.335  1.00  0.00     0.041 C 
BRANCH  13  15
HETATM   15  C   UNL     1      22.134  46.393  47.694  1.00  0.00     0.169 A 
HETATM   16  N   UNL     1      21.906  46.657  46.398  1.00  0.00    -0.156 NA
HETATM   17  N   UNL     1      22.130  45.456  45.836  1.00  0.00    -0.270 N 
HETATM   18  H   UNL     1      22.022  45.347  44.834  1.00  0.00     0.190 HD
HETATM   19  C   UNL     1      22.483  44.534  46.768  1.00  0.00     0.227 A 
HETATM   20  N   UNL     1      22.500  45.090  47.955  1.00  0.00    -0.223 NA
ENDBRANCH  13  15
ENDBRANCH   9  13
ENDBRANCH   1   7
BRANCH   4  21
HETATM   21  O   UNL     1      27.307  42.559  53.199  1.00  0.00    -0.351 OA
BRANCH  21  22
HETATM   22  C   UNL     1      27.879  43.109  54.389  1.00  0.00     0.180 C 
BRANCH  22  23
HETATM   23  C   UNL     1      29.050  44.030  54.000  1.00  0.00     0.010 C 
HETATM   24  C   UNL     1      29.006  45.379  54.742  1.00  0.00     0.007 C 
HETATM   25  C   UNL     1      29.357  45.253  56.225  1.00  0.00     0.000 C 
HETATM   26  C   UNL     1      30.699  44.556  56.428  1.00  0.00     0.000 C 
HETATM   27  C   UNL     1      30.763  43.212  55.709  1.00  0.00     0.000 C 
HETATM   28  C   UNL     1      30.404  43.342  54.229  1.00  0.00     0.007 C 
ENDBRANCH  22  23
ENDBRANCH  21  22
ENDBRANCH   4  21
TORSDOF 6
ENDMDL
