MODEL 1
REMARK VINA RESULT:     -10.3      0.000      0.000
REMARK  5 active torsions:
REMARK  status: ('A' for Active; 'I' for Inactive)
REMARK    1  A    between atoms: O_2  and  C_3 
REMARK    2  A    between atoms: C_6  and  C_7 
REMARK    3  A    between atoms: C_7  and  C_8 
REMARK       I    between atoms: C_8  and  N_9 
REMARK    4  A    between atoms: N_9  and  C_10 
REMARK    5  A    between atoms: C_13  and  C_14 
ROOT
HETATM    1  C   UNL     1      24.990  46.557  51.426  1.00  0.00     0.034 A 
HETATM    2  C   UNL     1      25.408  47.239  52.569  1.00  0.00     0.030 A 
HETATM    3  C   UNL     1      26.390  46.691  53.405  1.00  0.00     0.017 A 
HETATM    4  C   UNL     1      26.974  45.456  53.107  1.00  0.00     0.010 A 
HETATM    5  C   UNL     1      26.530  44.749  51.985  1.00  0.00     0.017 A 
HETATM    6  C   UNL     1      25.546  45.302  51.150  1.00  0.00     0.030 A 
ENDROOT
BRANCH   1   7
HETATM    7  N   UNL     1      24.063  47.077  50.497  1.00  0.00    -0.327 N 
HETATM    8  C   UNL     1      24.271  48.104  49.590  1.00  0.00     0.226 C 
HETATM    9  O   UNL     1      25.254  48.838  49.534  1.00  0.00    -0.273 OA
HETATM   10  H   UNL     1      23.141  46.656  50.497  1.00  0.00     0.169 HD
BRANCH   8  11
HETATM   11  C   UNL     1      23.137  48.250  48.587  1.00  0.00     0.141 C 
BRANCH  11  12
HETATM   12  C   UNL     1      21.921  48.975  49.107  1.00  0.00    -0.049 A 
HETATM   13  C   UNL     1      21.975  50.323  49.483  1.00  0.00     0.010 A 
HETATM   14  C   UNL     1      20.822  50.998  49.902  1.00  0.00     0.037 A 
HETATM   15  C   UNL     1      19.594  50.339  49.934  1.00  0.00     0.068 A 
HETATM   16  C   UNL     1      19.532  49.000  49.545  1.00  0.00     0.037 A 
HETATM   17  C   UNL     1      20.681  48.322  49.131  1.00  0.00     0.010 A 
BRANCH  15  18
HETATM   18  O   UNL     1      18.396  50.882  50.308  1.00  0.00    -0.356 OA
HETATM   19  C   UNL     1      18.118  52.201  49.854  1.00  0.00     0.210 C 
ENDBRANCH  15  18
ENDBRANCH  11  12
ENDBRANCH   8  11
ENDBRANCH   1   7
BRANCH   4  20
HETATM   20  C   UNL     1      28.068  44.959  53.992  1.00  0.00     0.141 A 
HETATM   21  N   UNL     1      28.287  45.513  55.143  1.00  0.00    -0.230 NA
HETATM   22  C   UNL     1      29.358  45.044  55.923  1.00  0.00     0.074 A 
HETATM   23  C   UNL     1      30.198  44.011  55.503  1.00  0.00     0.061 A 
HETATM   24  C   UNL     1      29.608  45.645  57.158  1.00  0.00     0.032 A 
HETATM   25  C   UNL     1      29.920  43.408  54.190  1.00  0.00     0.259 A 
HETATM   26  C   UNL     1      31.273  43.579  56.287  1.00  0.00     0.019 A 
HETATM   27  O   UNL     1      30.609  42.511  53.720  1.00  0.00    -0.267 OA
HETATM   28  N   UNL     1      28.844  43.925  53.514  1.00  0.00    -0.307 N 
HETATM   29  H   UNL     1      28.708  43.542  52.593  1.00  0.00     0.170 HD
HETATM   30  C   UNL     1      31.512  44.191  57.516  1.00  0.00     0.001 A 
HETATM   31  C   UNL     1      30.679  45.222  57.952  1.00  0.00     0.002 A 
ENDBRANCH   4  20
TORSDOF 5
ENDMDL
MODEL 2
REMARK VINA RESULT:      -9.6      2.379     10.859
REMARK  5 active torsions:
REMARK  status: ('A' for Active; 'I' for Inactive)
REMARK    1  A    between atoms: O_2  and  C_3 
REMARK    2  A    between atoms: C_6  and  C_7 
REMARK    3  A    between atoms: C_7  and  C_8 
REMARK       I    between atoms: C_8  and  N_9 
REMARK    4  A    between atoms: N_9  and  C_10 
REMARK    5  A    between atoms: C_13  and  C_14 
ROOT
HETATM    1  C   UNL     1      25.974  45.727  50.689  1.00  0.00     0.034 A 
HETATM    2  C   UNL     1      25.886  47.117  50.777  1.00  0.00     0.030 A 
HETATM    3  C   UNL     1      24.843  47.806  50.145  1.00  0.00     0.017 A 
HETATM    4  C   UNL     1      23.866  47.116  49.420  1.00  0.00     0.010 A 
HETATM    5  C   UNL     1      23.972  45.726  49.294  1.00  0.00     0.017 A 
HETATM    6  C   UNL     1      25.019  45.040  49.928  1.00  0.00     0.030 A 
ENDROOT
BRANCH   1   7
HETATM    7  N   UNL     1      26.950  44.958  51.358  1.00  0.00    -0.327 N 
HETATM    8  C   UNL     1      26.751  44.093  52.422  1.00  0.00     0.226 C 
HETATM    9  O   UNL     1      25.712  43.953  53.061  1.00  0.00    -0.273 OA
HETATM   10  H   UNL     1      27.903  45.053  51.027  1.00  0.00     0.169 HD
BRANCH   8  11
HETATM   11  C   UNL     1      27.978  43.255  52.745  1.00  0.00     0.141 C 
BRANCH  11  12
HETATM   12  C   UNL     1      28.807  43.765  53.898  1.00  0.00    -0.049 A 
HETATM   13  C   UNL     1      28.490  44.958  54.559  1.00  0.00     0.010 A 
HETATM   14  C   UNL     1      29.232  45.383  55.668  1.00  0.00     0.037 A 
HETATM   15  C   UNL     1      30.291  44.612  56.143  1.00  0.00     0.068 A 
HETATM   16  C   UNL     1      30.601  43.414  55.496  1.00  0.00     0.037 A 
HETATM   17  C   UNL     1      29.867  42.989  54.388  1.00  0.00     0.010 A 
BRANCH  15  18
HETATM   18  O   UNL     1      31.083  44.903  57.218  1.00  0.00    -0.356 OA
HETATM   19  C   UNL     1      30.566  45.829  58.165  1.00  0.00     0.210 C 
ENDBRANCH  15  18
ENDBRANCH  11  12
ENDBRANCH   8  11
ENDBRANCH   1   7
BRANCH   4  20
HETATM   20  C   UNL     1      22.738  47.895  48.833  1.00  0.00     0.141 A 
HETATM   21  N   UNL     1      22.502  49.109  49.222  1.00  0.00    -0.230 NA
HETATM   22  C   UNL     1      21.401  49.789  48.677  1.00  0.00     0.074 A 
HETATM   23  C   UNL     1      20.546  49.205  47.739  1.00  0.00     0.061 A 
HETATM   24  C   UNL     1      21.133  51.092  49.101  1.00  0.00     0.032 A 
HETATM   25  C   UNL     1      20.843  47.826  47.323  1.00  0.00     0.259 A 
HETATM   26  C   UNL     1      19.440  49.896  47.231  1.00  0.00     0.019 A 
HETATM   27  O   UNL     1      20.143  47.217  46.523  1.00  0.00    -0.267 OA
HETATM   28  N   UNL     1      21.949  47.256  47.901  1.00  0.00    -0.307 N 
HETATM   29  H   UNL     1      22.099  46.292  47.650  1.00  0.00     0.170 HD
HETATM   30  C   UNL     1      19.185  51.195  47.666  1.00  0.00     0.001 A 
HETATM   31  C   UNL     1      20.032  51.793  48.600  1.00  0.00     0.002 A 
ENDBRANCH   4  20
TORSDOF 5
ENDMDL
MODEL 3
REMARK VINA RESULT:      -9.3      1.923      3.036
REMARK  5 active torsions:
REMARK  status: ('A' for Active; 'I' for Inactive)
REMARK    1  A    between atoms: O_2  and  C_3 
REMARK    2  A    between atoms: C_6  and  C_7 
REMARK    3  A    between atoms: C_7  and  C_8 
REMARK       I    between atoms: C_8  and  N_9 
REMARK    4  A    between atoms: N_9  and  C_10 
REMARK    5  A    between atoms: C_13  and  C_14 
ROOT
HETATM    1  C   UNL     1      23.749  47.352  49.337  1.00  0.00     0.034 A 
HETATM    2  C   UNL     1      23.522  45.992  49.547  1.00  0.00     0.030 A 
HETATM    3  C   UNL     1      24.467  45.207  50.220  1.00  0.00     0.017 A 
HETATM    4  C   UNL     1      25.652  45.772  50.703  1.00  0.00     0.010 A 
HETATM    5  C   UNL     1      25.904  47.127  50.461  1.00  0.00     0.017 A 
HETATM    6  C   UNL     1      24.955  47.909  49.785  1.00  0.00     0.030 A 
ENDROOT
BRANCH   1   7
HETATM    7  N   UNL     1      22.814  48.221  48.735  1.00  0.00    -0.327 N 
HETATM    8  C   UNL     1      22.554  49.539  49.076  1.00  0.00     0.226 C 
HETATM    9  O   UNL     1      22.989  50.137  50.056  1.00  0.00    -0.273 OA
HETATM   10  H   UNL     1      22.270  47.838  47.972  1.00  0.00     0.169 HD
BRANCH   8  11
HETATM   11  C   UNL     1      21.656  50.247  48.073  1.00  0.00     0.141 C 
BRANCH  11  12
HETATM   12  C   UNL     1      20.323  50.693  48.621  1.00  0.00    -0.049 A 
HETATM   13  C   UNL     1      19.544  49.855  49.429  1.00  0.00     0.010 A 
HETATM   14  C   UNL     1      18.340  50.308  49.982  1.00  0.00     0.037 A 
HETATM   15  C   UNL     1      17.907  51.613  49.751  1.00  0.00     0.068 A 
HETATM   16  C   UNL     1      18.688  52.457  48.959  1.00  0.00     0.037 A 
HETATM   17  C   UNL     1      19.887  52.007  48.402  1.00  0.00     0.010 A 
BRANCH  15  18
HETATM   18  O   UNL     1      16.764  52.183  50.240  1.00  0.00    -0.356 OA
HETATM   19  C   UNL     1      15.589  52.043  49.453  1.00  0.00     0.210 C 
ENDBRANCH  15  18
ENDBRANCH  11  12
ENDBRANCH   8  11
ENDBRANCH   1   7
BRANCH   4  20
HETATM   20  C   UNL     1      26.585  44.905  51.479  1.00  0.00     0.141 A 
HETATM   21  N   UNL     1      27.096  45.320  52.595  1.00  0.00    -0.230 NA
HETATM   22  C   UNL     1      28.007  44.488  53.268  1.00  0.00     0.074 A 
HETATM   23  C   UNL     1      28.388  43.237  52.778  1.00  0.00     0.061 A 
HETATM   24  C   UNL     1      28.572  44.935  54.465  1.00  0.00     0.032 A 
HETATM   25  C   UNL     1      27.789  42.801  51.508  1.00  0.00     0.259 A 
HETATM   26  C   UNL     1      29.316  42.440  53.455  1.00  0.00     0.019 A 
HETATM   27  O   UNL     1      28.071  41.731  50.982  1.00  0.00    -0.267 OA
HETATM   28  N   UNL     1      26.900  43.677  50.938  1.00  0.00    -0.307 N 
HETATM   29  H   UNL     1      26.548  43.387  50.039  1.00  0.00     0.170 HD
HETATM   30  C   UNL     1      29.873  42.900  54.647  1.00  0.00     0.001 A 
HETATM   31  C   UNL     1      29.501  44.147  55.152  1.00  0.00     0.002 A 
ENDBRANCH   4  20
TORSDOF 5
ENDMDL
MODEL 4
REMARK VINA RESULT:      -9.1      2.249      2.929
REMARK  5 active torsions:
REMARK  status: ('A' for Active; 'I' for Inactive)
REMARK    1  A    between atoms: O_2  and  C_3 
REMARK    2  A    between atoms: C_6  and  C_7 
REMARK    3  A    between atoms: C_7  and  C_8 
REMARK       I    between atoms: C_8  and  N_9 
REMARK    4  A    between atoms: N_9  and  C_10 
REMARK    5  A    between atoms: C_13  and  C_14 
ROOT
HETATM    1  C   UNL     1      24.394  46.391  50.472  1.00  0.00     0.034 A 
HETATM    2  C   UNL     1      25.310  47.193  51.153  1.00  0.00     0.030 A 
HETATM    3  C   UNL     1      26.264  46.620  52.003  1.00  0.00     0.017 A 
HETATM    4  C   UNL     1      26.322  45.234  52.182  1.00  0.00     0.010 A 
HETATM    5  C   UNL     1      25.379  44.428  51.533  1.00  0.00     0.017 A 
HETATM    6  C   UNL     1      24.426  45.006  50.682  1.00  0.00     0.030 A 
ENDROOT
BRANCH   1   7
HETATM    7  N   UNL     1      23.454  46.888  49.543  1.00  0.00    -0.327 N 
HETATM    8  C   UNL     1      23.196  48.215  49.240  1.00  0.00     0.226 C 
HETATM    9  O   UNL     1      23.639  49.196  49.831  1.00  0.00    -0.273 OA
HETATM   10  H   UNL     1      22.904  46.197  49.046  1.00  0.00     0.169 HD
BRANCH   8  11
HETATM   11  C   UNL     1      22.290  48.383  48.030  1.00  0.00     0.141 C 
BRANCH  11  12
HETATM   12  C   UNL     1      21.137  47.413  47.962  1.00  0.00    -0.049 A 
HETATM   13  C   UNL     1      20.013  47.550  48.788  1.00  0.00     0.010 A 
HETATM   14  C   UNL     1      18.924  46.679  48.668  1.00  0.00     0.037 A 
HETATM   15  C   UNL     1      18.934  45.670  47.706  1.00  0.00     0.068 A 
HETATM   16  C   UNL     1      20.044  45.539  46.870  1.00  0.00     0.037 A 
HETATM   17  C   UNL     1      21.134  46.403  46.991  1.00  0.00     0.010 A 
BRANCH  15  18
HETATM   18  O   UNL     1      17.935  44.765  47.475  1.00  0.00    -0.356 OA
HETATM   19  C   UNL     1      17.532  44.584  46.123  1.00  0.00     0.210 C 
ENDBRANCH  15  18
ENDBRANCH  11  12
ENDBRANCH   8  11
ENDBRANCH   1   7
BRANCH   4  20
HETATM   20  C   UNL     1      27.407  44.675  53.039  1.00  0.00     0.141 A 
HETATM   21  N   UNL     1      27.853  45.344  54.056  1.00  0.00    -0.230 NA
HETATM   22  C   UNL     1      28.908  44.800  54.808  1.00  0.00     0.074 A 
HETATM   23  C   UNL     1      29.499  43.574  54.498  1.00  0.00     0.061 A 
HETATM   24  C   UNL     1      29.403  45.521  55.897  1.00  0.00     0.032 A 
HETATM   25  C   UNL     1      28.968  42.845  53.336  1.00  0.00     0.259 A 
HETATM   26  C   UNL     1      30.566  43.067  55.247  1.00  0.00     0.019 A 
HETATM   27  O   UNL     1      29.429  41.772  52.967  1.00  0.00    -0.267 OA
HETATM   28  N   UNL     1      27.928  43.452  52.678  1.00  0.00    -0.307 N 
HETATM   29  H   UNL     1      27.620  42.966  51.850  1.00  0.00     0.170 HD
HETATM   30  C   UNL     1      31.051  43.800  56.330  1.00  0.00     0.001 A 
HETATM   31  C   UNL     1      30.469  45.025  56.654  1.00  0.00     0.002 A 
ENDBRANCH   4  20
TORSDOF 5
ENDMDL
MODEL 5
REMARK VINA RESULT:      -8.8      1.750      2.165
REMARK  5 active torsions:
REMARK  status: ('A' for Active; 'I' for Inactive)
REMARK    1  A    between atoms: O_2  and  C_3 
REMARK    2  A    between atoms: C_6  and  C_7 
REMARK    3  A    between atoms: C_7  and  C_8 
REMARK       I    between atoms: C_8  and  N_9 
REMARK    4  A    between atoms: N_9  and  C_10 
REMARK    5  A    between atoms: C_13  and  C_14 
ROOT
HETATM    1  C   UNL     1      24.972  45.321  49.880  1.00  0.00     0.034 A 
HETATM    2  C   UNL     1      26.027  44.435  49.664  1.00  0.00     0.030 A 
HETATM    3  C   UNL     1      26.985  44.212  50.662  1.00  0.00     0.017 A 
HETATM    4  C   UNL     1      26.899  44.866  51.895  1.00  0.00     0.010 A 
HETATM    5  C   UNL     1      25.865  45.787  52.102  1.00  0.00     0.017 A 
HETATM    6  C   UNL     1      24.909  46.007  51.100  1.00  0.00     0.030 A 
ENDROOT
BRANCH   1   7
HETATM    7  N   UNL     1      23.929  45.542  48.954  1.00  0.00    -0.327 N 
HETATM    8  C   UNL     1      22.668  44.968  48.960  1.00  0.00     0.226 C 
HETATM    9  O   UNL     1      22.286  44.058  49.690  1.00  0.00    -0.273 OA
HETATM   10  H   UNL     1      24.126  46.187  48.199  1.00  0.00     0.169 HD
BRANCH   8  11
HETATM   11  C   UNL     1      21.721  45.603  47.954  1.00  0.00     0.141 C 
BRANCH  11  12
HETATM   12  C   UNL     1      21.190  46.958  48.351  1.00  0.00    -0.049 A 
HETATM   13  C   UNL     1      21.967  48.117  48.224  1.00  0.00     0.010 A 
HETATM   14  C   UNL     1      21.437  49.374  48.537  1.00  0.00     0.037 A 
HETATM   15  C   UNL     1      20.116  49.493  48.964  1.00  0.00     0.068 A 
HETATM   16  C   UNL     1      19.332  48.343  49.077  1.00  0.00     0.037 A 
HETATM   17  C   UNL     1      19.859  47.087  48.771  1.00  0.00     0.010 A 
BRANCH  15  18
HETATM   18  O   UNL     1      19.473  50.657  49.287  1.00  0.00    -0.356 OA
HETATM   19  C   UNL     1      19.865  51.825  48.578  1.00  0.00     0.210 C 
ENDBRANCH  15  18
ENDBRANCH  11  12
ENDBRANCH   8  11
ENDBRANCH   1   7
BRANCH   4  20
HETATM   20  C   UNL     1      27.903  44.531  52.945  1.00  0.00     0.141 A 
HETATM   21  N   UNL     1      27.980  45.233  54.032  1.00  0.00    -0.230 NA
HETATM   22  C   UNL     1      28.972  44.911  54.973  1.00  0.00     0.074 A 
HETATM   23  C   UNL     1      29.884  43.872  54.779  1.00  0.00     0.061 A 
HETATM   24  C   UNL     1      29.068  45.672  56.140  1.00  0.00     0.032 A 
HETATM   25  C   UNL     1      29.769  43.099  53.533  1.00  0.00     0.259 A 
HETATM   26  C   UNL     1      30.879  43.588  55.720  1.00  0.00     0.019 A 
HETATM   27  O   UNL     1      30.531  42.181  53.256  1.00  0.00    -0.267 OA
HETATM   28  N   UNL     1      28.757  43.481  52.687  1.00  0.00    -0.307 N 
HETATM   29  H   UNL     1      28.735  42.980  51.813  1.00  0.00     0.170 HD
HETATM   30  C   UNL     1      30.964  44.358  56.879  1.00  0.00     0.001 A 
HETATM   31  C   UNL     1      30.058  45.398  57.089  1.00  0.00     0.002 A 
ENDBRANCH   4  20
TORSDOF 5
ENDMDL
MODEL 6
REMARK VINA RESULT:      -8.7      2.454     11.152
REMARK  5 active torsions:
REMARK  status: ('A' for Active; 'I' for Inactive)
REMARK    1  A    between atoms: O_2  and  C_3 
REMARK    2  A    between atoms: C_6  and  C_7 
REMARK    3  A    between atoms: C_7  and  C_8 
REMARK       I    between atoms: C_8  and  N_9 
REMARK    4  A    between atoms: N_9  and  C_10 
REMARK    5  A    between atoms: C_13  and  C_14 
ROOT
HETATM    1  C   UNL     1      25.541  45.823  50.565  1.00  0.00     0.034 A 
HETATM    2  C   UNL     1      25.462  47.214  50.636  1.00  0.00     0.030 A 
HETATM    3  C   UNL     1      24.429  47.903  49.987  1.00  0.00     0.017 A 
HETATM    4  C   UNL     1      23.453  47.211  49.263  1.00  0.00     0.010 A 
HETATM    5  C   UNL     1      23.550  45.819  49.155  1.00  0.00     0.017 A 
HETATM    6  C   UNL     1      24.586  45.134  49.806  1.00  0.00     0.030 A 
ENDROOT
BRANCH   1   7
HETATM    7  N   UNL     1      26.506  45.056  51.252  1.00  0.00    -0.327 N 
HETATM    8  C   UNL     1      26.317  44.305  52.401  1.00  0.00     0.226 C 
HETATM    9  O   UNL     1      25.310  44.291  53.104  1.00  0.00    -0.273 OA
HETATM   10  H   UNL     1      27.442  45.057  50.865  1.00  0.00     0.169 HD
BRANCH   8  11
HETATM   11  C   UNL     1      27.508  43.421  52.737  1.00  0.00     0.141 C 
BRANCH  11  12
HETATM   12  C   UNL     1      28.362  43.916  53.878  1.00  0.00    -0.049 A 
HETATM   13  C   UNL     1      29.477  43.196  54.327  1.00  0.00     0.010 A 
HETATM   14  C   UNL     1      30.296  43.701  55.344  1.00  0.00     0.037 A 
HETATM   15  C   UNL     1      30.022  44.943  55.915  1.00  0.00     0.068 A 
HETATM   16  C   UNL     1      28.922  45.671  55.460  1.00  0.00     0.037 A 
HETATM   17  C   UNL     1      28.100  45.169  54.449  1.00  0.00     0.010 A 
BRANCH  15  18
HETATM   18  O   UNL     1      30.746  45.555  56.900  1.00  0.00    -0.356 OA
HETATM   19  C   UNL     1      30.921  44.832  58.112  1.00  0.00     0.210 C 
ENDBRANCH  15  18
ENDBRANCH  11  12
ENDBRANCH   8  11
ENDBRANCH   1   7
BRANCH   4  20
HETATM   20  C   UNL     1      22.336  47.991  48.657  1.00  0.00     0.141 A 
HETATM   21  N   UNL     1      21.493  47.421  47.854  1.00  0.00    -0.230 NA
HETATM   22  C   UNL     1      20.484  48.205  47.270  1.00  0.00     0.074 A 
HETATM   23  C   UNL     1      20.359  49.574  47.514  1.00  0.00     0.061 A 
HETATM   24  C   UNL     1      19.581  47.599  46.393  1.00  0.00     0.032 A 
HETATM   25  C   UNL     1      21.334  50.187  48.428  1.00  0.00     0.259 A 
HETATM   26  C   UNL     1      19.361  50.337  46.899  1.00  0.00     0.019 A 
HETATM   27  O   UNL     1      21.325  51.383  48.692  1.00  0.00    -0.267 OA
HETATM   28  N   UNL     1      22.269  49.334  48.959  1.00  0.00    -0.307 N 
HETATM   29  H   UNL     1      22.964  49.784  49.533  1.00  0.00     0.170 HD
HETATM   30  C   UNL     1      18.469  49.719  46.024  1.00  0.00     0.001 A 
HETATM   31  C   UNL     1      18.578  48.351  45.772  1.00  0.00     0.002 A 
ENDBRANCH   4  20
TORSDOF 5
ENDMDL
MODEL 7
REMARK VINA RESULT:      -8.7      6.215      9.038
REMARK  5 active torsions:
REMARK  status: ('A' for Active; 'I' for Inactive)
REMARK    1  A    between atoms: O_2  and  C_3 
REMARK    2  A    between atoms: C_6  and  C_7 
REMARK    3  A    between atoms: C_7  and  C_8 
REMARK       I    between atoms: C_8  and  N_9 
REMARK    4  A    between atoms: N_9  and  C_10 
REMARK    5  A    between atoms: C_13  and  C_14 
ROOT
HETATM    1  C   UNL     1      27.472  41.743  50.430  1.00  0.00     0.034 A 
HETATM    2  C   UNL     1      27.406  43.129  50.569  1.00  0.00     0.030 A 
HETATM    3  C   UNL     1      27.875  43.752  51.732  1.00  0.00     0.017 A 
HETATM    4  C   UNL     1      28.425  42.998  52.774  1.00  0.00     0.010 A 
HETATM    5  C   UNL     1      28.457  41.605  52.658  1.00  0.00     0.017 A 
HETATM    6  C   UNL     1      27.986  40.985  51.491  1.00  0.00     0.030 A 
ENDROOT
BRANCH   1   7
HETATM    7  N   UNL     1      27.089  41.051  49.261  1.00  0.00    -0.327 N 
HETATM    8  C   UNL     1      27.916  40.370  48.382  1.00  0.00     0.226 C 
HETATM    9  O   UNL     1      29.144  40.371  48.388  1.00  0.00    -0.273 OA
HETATM   10  H   UNL     1      26.101  41.057  49.037  1.00  0.00     0.169 HD
BRANCH   8  11
HETATM   11  C   UNL     1      27.147  39.547  47.359  1.00  0.00     0.141 C 
BRANCH  11  12
HETATM   12  C   UNL     1      27.795  39.460  46.000  1.00  0.00    -0.049 A 
HETATM   13  C   UNL     1      28.089  40.607  45.252  1.00  0.00     0.010 A 
HETATM   14  C   UNL     1      28.749  40.512  44.021  1.00  0.00     0.037 A 
HETATM   15  C   UNL     1      29.142  39.269  43.528  1.00  0.00     0.068 A 
HETATM   16  C   UNL     1      28.866  38.124  44.277  1.00  0.00     0.037 A 
HETATM   17  C   UNL     1      28.204  38.214  45.503  1.00  0.00     0.010 A 
BRANCH  15  18
HETATM   18  O   UNL     1      29.802  39.038  42.353  1.00  0.00    -0.356 OA
HETATM   19  C   UNL     1      31.193  39.335  42.328  1.00  0.00     0.210 C 
ENDBRANCH  15  18
ENDBRANCH  11  12
ENDBRANCH   8  11
ENDBRANCH   1   7
BRANCH   4  20
HETATM   20  C   UNL     1      28.978  43.722  53.955  1.00  0.00     0.141 A 
HETATM   21  N   UNL     1      29.877  43.168  54.707  1.00  0.00    -0.230 NA
HETATM   22  C   UNL     1      30.335  43.868  55.836  1.00  0.00     0.074 A 
HETATM   23  C   UNL     1      29.853  45.131  56.184  1.00  0.00     0.061 A 
HETATM   24  C   UNL     1      31.293  43.271  56.658  1.00  0.00     0.032 A 
HETATM   25  C   UNL     1      28.833  45.728  55.310  1.00  0.00     0.259 A 
HETATM   26  C   UNL     1      30.308  45.796  57.329  1.00  0.00     0.019 A 
HETATM   27  O   UNL     1      28.330  46.821  55.537  1.00  0.00    -0.267 OA
HETATM   28  N   UNL     1      28.464  44.973  54.225  1.00  0.00    -0.307 N 
HETATM   29  H   UNL     1      27.721  45.371  53.674  1.00  0.00     0.170 HD
HETATM   30  C   UNL     1      31.263  45.186  58.140  1.00  0.00     0.001 A 
HETATM   31  C   UNL     1      31.756  43.924  57.804  1.00  0.00     0.002 A 
ENDBRANCH   4  20
TORSDOF 5
ENDMDL
MODEL 8
REMARK VINA RESULT:      -8.6      2.488      3.332
REMARK  5 active torsions:
REMARK  status: ('A' for Active; 'I' for Inactive)
REMARK    1  A    between atoms: O_2  and  C_3 
REMARK    2  A    between atoms: C_6  and  C_7 
REMARK    3  A    between atoms: C_7  and  C_8 
REMARK       I    between atoms: C_8  and  N_9 
REMARK    4  A    between atoms: N_9  and  C_10 
REMARK    5  A    between atoms: C_13  and  C_14 
ROOT
HETATM    1  C   UNL     1      24.778  44.752  50.097  1.00  0.00     0.034 A 
HETATM    2  C   UNL     1      25.671  43.730  50.419  1.00  0.00     0.030 A 
HETATM    3  C   UNL     1      26.573  43.880  51.481  1.00  0.00     0.017 A 
HETATM    4  C   UNL     1      26.592  45.054  52.241  1.00  0.00     0.010 A 
HETATM    5  C   UNL     1      25.727  46.098  51.897  1.00  0.00     0.017 A 
HETATM    6  C   UNL     1      24.825  45.943  50.834  1.00  0.00     0.030 A 
ENDROOT
BRANCH   1   7
HETATM    7  N   UNL     1      23.792  44.645  49.093  1.00  0.00    -0.327 N 
HETATM    8  C   UNL     1      22.504  44.153  49.232  1.00  0.00     0.226 C 
HETATM    9  O   UNL     1      22.043  43.589  50.220  1.00  0.00    -0.273 OA
HETATM   10  H   UNL     1      24.056  44.959  48.167  1.00  0.00     0.169 HD
BRANCH   8  11
HETATM   11  C   UNL     1      21.638  44.399  48.006  1.00  0.00     0.141 C 
BRANCH  11  12
HETATM   12  C   UNL     1      20.622  45.503  48.160  1.00  0.00    -0.049 A 
HETATM   13  C   UNL     1      19.249  45.233  48.234  1.00  0.00     0.010 A 
HETATM   14  C   UNL     1      18.325  46.264  48.442  1.00  0.00     0.037 A 
HETATM   15  C   UNL     1      18.762  47.578  48.598  1.00  0.00     0.068 A 
HETATM   16  C   UNL     1      20.130  47.851  48.541  1.00  0.00     0.037 A 
HETATM   17  C   UNL     1      21.054  46.826  48.329  1.00  0.00     0.010 A 
BRANCH  15  18
HETATM   18  O   UNL     1      17.970  48.671  48.819  1.00  0.00    -0.356 OA
HETATM   19  C   UNL     1      18.506  49.696  49.646  1.00  0.00     0.210 C 
ENDBRANCH  15  18
ENDBRANCH  11  12
ENDBRANCH   8  11
ENDBRANCH   1   7
BRANCH   4  20
HETATM   20  C   UNL     1      27.521  45.127  53.406  1.00  0.00     0.141 A 
HETATM   21  N   UNL     1      28.437  44.226  53.576  1.00  0.00    -0.230 NA
HETATM   22  C   UNL     1      29.259  44.308  54.713  1.00  0.00     0.074 A 
HETATM   23  C   UNL     1      29.122  45.316  55.669  1.00  0.00     0.061 A 
HETATM   24  C   UNL     1      30.239  43.332  54.909  1.00  0.00     0.032 A 
HETATM   25  C   UNL     1      28.071  46.320  55.443  1.00  0.00     0.259 A 
HETATM   26  C   UNL     1      29.938  45.361  56.805  1.00  0.00     0.019 A 
HETATM   27  O   UNL     1      27.855  47.233  56.231  1.00  0.00    -0.267 OA
HETATM   28  N   UNL     1      27.333  46.161  54.297  1.00  0.00    -0.307 N 
HETATM   29  H   UNL     1      26.580  46.822  54.193  1.00  0.00     0.170 HD
HETATM   30  C   UNL     1      30.909  44.378  56.988  1.00  0.00     0.001 A 
HETATM   31  C   UNL     1      31.060  43.366  56.040  1.00  0.00     0.002 A 
ENDBRANCH   4  20
TORSDOF 5
ENDMDL
MODEL 9
REMARK VINA RESULT:      -8.5      2.033      2.771
REMARK  5 active torsions:
REMARK  status: ('A' for Active; 'I' for Inactive)
REMARK    1  A    between atoms: O_2  and  C_3 
REMARK    2  A    between atoms: C_6  and  C_7 
REMARK    3  A    between atoms: C_7  and  C_8 
REMARK       I    between atoms: C_8  and  N_9 
REMARK    4  A    between atoms: N_9  and  C_10 
REMARK    5  A    between atoms: C_13  and  C_14 
ROOT
HETATM    1  C   UNL     1      23.941  46.730  49.756  1.00  0.00     0.034 A 
HETATM    2  C   UNL     1      24.588  47.580  50.653  1.00  0.00     0.030 A 
HETATM    3  C   UNL     1      25.538  47.077  51.551  1.00  0.00     0.017 A 
HETATM    4  C   UNL     1      25.862  45.717  51.562  1.00  0.00     0.010 A 
HETATM    5  C   UNL     1      25.187  44.853  50.693  1.00  0.00     0.017 A 
HETATM    6  C   UNL     1      24.236  45.361  49.795  1.00  0.00     0.030 A 
ENDROOT
BRANCH   1   7
HETATM    7  N   UNL     1      23.029  47.172  48.773  1.00  0.00    -0.327 N 
HETATM    8  C   UNL     1      21.948  46.474  48.258  1.00  0.00     0.226 C 
HETATM    9  O   UNL     1      21.680  45.294  48.463  1.00  0.00    -0.273 OA
HETATM   10  H   UNL     1      23.185  48.100  48.399  1.00  0.00     0.169 HD
BRANCH   8  11
HETATM   11  C   UNL     1      21.045  47.335  47.388  1.00  0.00     0.141 C 
BRANCH  11  12
HETATM   12  C   UNL     1      20.567  48.610  48.038  1.00  0.00    -0.049 A 
HETATM   13  C   UNL     1      20.898  49.868  47.518  1.00  0.00     0.010 A 
HETATM   14  C   UNL     1      20.393  51.039  48.095  1.00  0.00     0.037 A 
HETATM   15  C   UNL     1      19.534  50.968  49.191  1.00  0.00     0.068 A 
HETATM   16  C   UNL     1      19.189  49.716  49.703  1.00  0.00     0.037 A 
HETATM   17  C   UNL     1      19.694  48.546  49.132  1.00  0.00     0.010 A 
BRANCH  15  18
HETATM   18  O   UNL     1      18.962  52.028  49.838  1.00  0.00    -0.356 OA
HETATM   19  C   UNL     1      17.566  52.219  49.648  1.00  0.00     0.210 C 
ENDBRANCH  15  18
ENDBRANCH  11  12
ENDBRANCH   8  11
ENDBRANCH   1   7
BRANCH   4  20
HETATM   20  C   UNL     1      26.935  45.253  52.488  1.00  0.00     0.141 A 
HETATM   21  N   UNL     1      27.772  44.333  52.120  1.00  0.00    -0.230 NA
HETATM   22  C   UNL     1      28.737  43.893  53.041  1.00  0.00     0.074 A 
HETATM   23  C   UNL     1      28.825  44.401  54.339  1.00  0.00     0.061 A 
HETATM   24  C   UNL     1      29.632  42.894  52.655  1.00  0.00     0.032 A 
HETATM   25  C   UNL     1      27.858  45.440  54.722  1.00  0.00     0.259 A 
HETATM   26  C   UNL     1      29.779  43.927  55.245  1.00  0.00     0.019 A 
HETATM   27  O   UNL     1      27.836  45.936  55.842  1.00  0.00    -0.267 OA
HETATM   28  N   UNL     1      26.967  45.813  53.747  1.00  0.00    -0.307 N 
HETATM   29  H   UNL     1      26.276  46.481  54.049  1.00  0.00     0.170 HD
HETATM   30  C   UNL     1      30.665  42.927  54.846  1.00  0.00     0.001 A 
HETATM   31  C   UNL     1      30.592  42.412  53.551  1.00  0.00     0.002 A 
ENDBRANCH   4  20
TORSDOF 5
ENDMDL
MODEL 10
REMARK VINA RESULT:      -8.4      2.757     11.017
REMARK  5 active torsions:
REMARK  status: ('A' for Active; 'I' for Inactive)
REMARK    1  A    between atoms: O_2  and  C_3 
REMARK    2  A    between atoms: C_6  and  C_7 
REMARK    3  A    between atoms: C_7  and  C_8 
REMARK       I    between atoms: C_8  and  N_9 
REMARK    4  A    between atoms: N_9  and  C_10 
REMARK    5  A    between atoms: C_13  and  C_14 
ROOT
HETATM    1  C   UNL     1      26.112  44.848  50.528  1.00  0.00     0.034 A 
HETATM    2  C   UNL     1      25.392  44.097  49.599  1.00  0.00     0.030 A 
HETATM    3  C   UNL     1      24.280  44.647  48.947  1.00  0.00     0.017 A 
HETATM    4  C   UNL     1      23.875  45.960  49.209  1.00  0.00     0.010 A 
HETATM    5  C   UNL     1      24.570  46.704  50.169  1.00  0.00     0.017 A 
HETATM    6  C   UNL     1      25.682  46.149  50.819  1.00  0.00     0.030 A 
ENDROOT
BRANCH   1   7
HETATM    7  N   UNL     1      27.284  44.390  51.168  1.00  0.00    -0.327 N 
HETATM    8  C   UNL     1      27.365  43.548  52.265  1.00  0.00     0.226 C 
HETATM    9  O   UNL     1      26.428  43.167  52.961  1.00  0.00    -0.273 OA
HETATM   10  H   UNL     1      28.163  44.718  50.786  1.00  0.00     0.169 HD
BRANCH   8  11
HETATM   11  C   UNL     1      28.783  43.075  52.549  1.00  0.00     0.141 C 
BRANCH  11  12
HETATM   12  C   UNL     1      29.377  43.593  53.835  1.00  0.00    -0.049 A 
HETATM   13  C   UNL     1      28.879  44.741  54.464  1.00  0.00     0.010 A 
HETATM   14  C   UNL     1      29.400  45.171  55.691  1.00  0.00     0.037 A 
HETATM   15  C   UNL     1      30.414  44.447  56.316  1.00  0.00     0.068 A 
HETATM   16  C   UNL     1      30.903  43.293  55.701  1.00  0.00     0.037 A 
HETATM   17  C   UNL     1      30.389  42.864  54.475  1.00  0.00     0.010 A 
BRANCH  15  18
HETATM   18  O   UNL     1      30.999  44.747  57.515  1.00  0.00    -0.356 OA
HETATM   19  C   UNL     1      30.539  45.917  58.179  1.00  0.00     0.210 C 
ENDBRANCH  15  18
ENDBRANCH  11  12
ENDBRANCH   8  11
ENDBRANCH   1   7
BRANCH   4  20
HETATM   20  C   UNL     1      22.732  46.516  48.429  1.00  0.00     0.141 A 
HETATM   21  N   UNL     1      22.277  47.704  48.682  1.00  0.00    -0.230 NA
HETATM   22  C   UNL     1      21.169  48.169  47.954  1.00  0.00     0.074 A 
HETATM   23  C   UNL     1      20.534  47.400  46.977  1.00  0.00     0.061 A 
HETATM   24  C   UNL     1      20.666  49.442  48.231  1.00  0.00     0.032 A 
HETATM   25  C   UNL     1      21.076  46.057  46.720  1.00  0.00     0.259 A 
HETATM   26  C   UNL     1      19.416  47.877  46.285  1.00  0.00     0.019 A 
HETATM   27  O   UNL     1      20.579  45.295  45.899  1.00  0.00    -0.267 OA
HETATM   28  N   UNL     1      22.169  45.703  47.470  1.00  0.00    -0.307 N 
HETATM   29  H   UNL     1      22.486  44.758  47.322  1.00  0.00     0.170 HD
HETATM   30  C   UNL     1      18.923  49.148  46.575  1.00  0.00     0.001 A 
HETATM   31  C   UNL     1      19.549  49.931  47.546  1.00  0.00     0.002 A 
ENDBRANCH   4  20
TORSDOF 5
ENDMDL
