MODEL 1
REMARK VINA RESULT:      -8.0      0.000      0.000
REMARK  9 active torsions:
REMARK  status: ('A' for Active; 'I' for Inactive)
REMARK    1  A    between atoms: O_2  and  C_3 
REMARK    2  A    between atoms: C_6  and  C_7 
REMARK    3  A    between atoms: C_7  and  N_8 
REMARK       I    between atoms: N_8  and  C_9 
REMARK    4  A    between atoms: C_9  and  C_10 
REMARK    5  A    between atoms: C_10  and  S_11 
REMARK    6  A    between atoms: S_11  and  C_12 
REMARK    7  A    between atoms: N_13  and  C_14 
REMARK    8  A    between atoms: C_14  and  C_15 
REMARK    9  A    between atoms: C_21  and  C_22 
ROOT
HETATM    1  C   UNL     1      27.349  43.194  53.991  1.00  0.00     0.192 A 
HETATM    2  N   UNL     1      28.026  44.375  54.134  1.00  0.00    -0.307 N 
HETATM    3  C   UNL     1      27.053  45.348  54.147  1.00  0.00     0.135 A 
HETATM    4  N   UNL     1      25.869  44.772  54.098  1.00  0.00    -0.134 NA
HETATM    5  N   UNL     1      26.057  43.416  54.002  1.00  0.00    -0.123 NA
ENDROOT
BRANCH   1   6
HETATM    6  S   UNL     1      28.112  41.662  53.771  1.00  0.00    -0.081 SA
BRANCH   6   7
HETATM    7  C   UNL     1      28.203  41.527  51.968  1.00  0.00     0.185 C 
BRANCH   7   8
HETATM    8  C   UNL     1      26.888  41.537  51.205  1.00  0.00     0.227 C 
HETATM    9  N   UNL     1      26.422  42.646  50.565  1.00  0.00    -0.356 N 
HETATM   10  H   UNL     1      25.561  42.462  50.063  1.00  0.00     0.162 HD
HETATM   11  O   UNL     1      26.257  40.489  51.034  1.00  0.00    -0.273 OA
BRANCH   9  12
HETATM   12  C   UNL     1      26.973  43.980  50.508  1.00  0.00     0.161 C 
BRANCH  12  13
HETATM   13  C   UNL     1      25.917  45.025  50.252  1.00  0.00    -0.040 A 
HETATM   14  C   UNL     1      26.079  46.339  50.717  1.00  0.00     0.011 A 
HETATM   15  C   UNL     1      25.120  47.322  50.442  1.00  0.00     0.037 A 
HETATM   16  C   UNL     1      23.994  47.008  49.684  1.00  0.00     0.068 A 
HETATM   17  C   UNL     1      23.831  45.703  49.216  1.00  0.00     0.037 A 
HETATM   18  C   UNL     1      24.781  44.717  49.495  1.00  0.00     0.011 A 
BRANCH  16  19
HETATM   19  O   UNL     1      22.994  47.872  49.330  1.00  0.00    -0.356 OA
HETATM   20  C   UNL     1      23.340  49.248  49.226  1.00  0.00     0.210 C 
ENDBRANCH  16  19
ENDBRANCH  12  13
ENDBRANCH   9  12
ENDBRANCH   7   8
ENDBRANCH   6   7
ENDBRANCH   1   6
BRANCH   2  21
HETATM   21  C   UNL     1      29.460  44.594  54.158  1.00  0.00     0.171 C 
BRANCH  21  22
HETATM   22  C   UNL     1      30.097  44.465  55.525  1.00  0.00    -0.040 A 
HETATM   23  C   UNL     1      30.905  43.379  55.895  1.00  0.00     0.009 A 
HETATM   24  C   UNL     1      31.472  43.318  57.170  1.00  0.00     0.001 A 
HETATM   25  C   UNL     1      31.264  44.350  58.082  1.00  0.00     0.000 A 
HETATM   26  C   UNL     1      30.492  45.450  57.718  1.00  0.00     0.001 A 
HETATM   27  C   UNL     1      29.916  45.510  56.448  1.00  0.00     0.009 A 
ENDBRANCH  21  22
ENDBRANCH   2  21
BRANCH   3  28
HETATM   28  C   UNL     1      27.263  46.854  54.208  1.00  0.00     0.057 A 
HETATM   29  C   UNL     1      26.043  47.734  54.387  1.00  0.00     0.013 A 
HETATM   30  C   UNL     1      26.989  47.553  55.524  1.00  0.00     0.013 A 
ENDBRANCH   3  28
TORSDOF 9
ENDMDL
MODEL 2
REMARK VINA RESULT:      -8.0      2.489      6.734
REMARK  9 active torsions:
REMARK  status: ('A' for Active; 'I' for Inactive)
REMARK    1  A    between atoms: O_2  and  C_3 
REMARK    2  A    between atoms: C_6  and  C_7 
REMARK    3  A    between atoms: C_7  and  N_8 
REMARK       I    between atoms: N_8  and  C_9 
REMARK    4  A    between atoms: C_9  and  C_10 
REMARK    5  A    between atoms: C_10  and  S_11 
REMARK    6  A    between atoms: S_11  and  C_12 
REMARK    7  A    between atoms: N_13  and  C_14 
REMARK    8  A    between atoms: C_14  and  C_15 
REMARK    9  A    between atoms: C_21  and  C_22 
ROOT
HETATM    1  C   UNL     1      25.017  44.452  50.771  1.00  0.00     0.192 A 
HETATM    2  N   UNL     1      25.699  45.602  51.066  1.00  0.00    -0.307 N 
HETATM    3  C   UNL     1      25.395  45.873  52.380  1.00  0.00     0.135 A 
HETATM    4  N   UNL     1      24.647  44.900  52.858  1.00  0.00    -0.134 NA
HETATM    5  N   UNL     1      24.411  44.005  51.844  1.00  0.00    -0.123 NA
ENDROOT
BRANCH   1   6
HETATM    6  S   UNL     1      24.936  43.752  49.196  1.00  0.00    -0.081 SA
BRANCH   6   7
HETATM    7  C   UNL     1      25.542  42.072  49.483  1.00  0.00     0.185 C 
BRANCH   7   8
HETATM    8  C   UNL     1      27.047  41.858  49.432  1.00  0.00     0.227 C 
HETATM    9  N   UNL     1      27.773  41.505  50.529  1.00  0.00    -0.356 N 
HETATM   10  H   UNL     1      28.749  41.352  50.305  1.00  0.00     0.162 HD
HETATM   11  O   UNL     1      27.643  41.877  48.350  1.00  0.00    -0.273 OA
BRANCH   9  12
HETATM   12  C   UNL     1      27.351  41.322  51.898  1.00  0.00     0.161 C 
BRANCH  12  13
HETATM   13  C   UNL     1      28.118  42.197  52.855  1.00  0.00    -0.040 A 
HETATM   14  C   UNL     1      27.449  42.964  53.822  1.00  0.00     0.011 A 
HETATM   15  C   UNL     1      28.162  43.743  54.741  1.00  0.00     0.037 A 
HETATM   16  C   UNL     1      29.556  43.753  54.718  1.00  0.00     0.068 A 
HETATM   17  C   UNL     1      30.225  42.988  53.761  1.00  0.00     0.037 A 
HETATM   18  C   UNL     1      29.517  42.216  52.836  1.00  0.00     0.011 A 
BRANCH  16  19
HETATM   19  O   UNL     1      30.371  44.452  55.564  1.00  0.00    -0.356 OA
HETATM   20  C   UNL     1      29.905  45.723  56.001  1.00  0.00     0.210 C 
ENDBRANCH  16  19
ENDBRANCH  12  13
ENDBRANCH   9  12
ENDBRANCH   7   8
ENDBRANCH   6   7
ENDBRANCH   1   6
BRANCH   2  21
HETATM   21  C   UNL     1      26.488  46.434  50.177  1.00  0.00     0.171 C 
BRANCH  21  22
HETATM   22  C   UNL     1      25.753  47.632  49.616  1.00  0.00    -0.040 A 
HETATM   23  C   UNL     1      24.358  47.777  49.683  1.00  0.00     0.009 A 
HETATM   24  C   UNL     1      23.735  48.909  49.153  1.00  0.00     0.001 A 
HETATM   25  C   UNL     1      24.495  49.925  48.577  1.00  0.00     0.000 A 
HETATM   26  C   UNL     1      25.882  49.812  48.534  1.00  0.00     0.001 A 
HETATM   27  C   UNL     1      26.507  48.677  49.053  1.00  0.00     0.009 A 
ENDBRANCH  21  22
ENDBRANCH   2  21
BRANCH   3  28
HETATM   28  C   UNL     1      25.832  47.084  53.191  1.00  0.00     0.057 A 
HETATM   29  C   UNL     1      26.096  46.891  54.670  1.00  0.00     0.013 A 
HETATM   30  C   UNL     1      27.243  47.097  53.742  1.00  0.00     0.013 A 
ENDBRANCH   3  28
TORSDOF 9
ENDMDL
MODEL 3
REMARK VINA RESULT:      -7.9      3.423      6.113
REMARK  9 active torsions:
REMARK  status: ('A' for Active; 'I' for Inactive)
REMARK    1  A    between atoms: O_2  and  C_3 
REMARK    2  A    between atoms: C_6  and  C_7 
REMARK    3  A    between atoms: C_7  and  N_8 
REMARK       I    between atoms: N_8  and  C_9 
REMARK    4  A    between atoms: C_9  and  C_10 
REMARK    5  A    between atoms: C_10  and  S_11 
REMARK    6  A    between atoms: S_11  and  C_12 
REMARK    7  A    between atoms: N_13  and  C_14 
REMARK    8  A    between atoms: C_14  and  C_15 
REMARK    9  A    between atoms: C_21  and  C_22 
ROOT
HETATM    1  C   UNL     1      26.490  45.548  50.685  1.00  0.00     0.192 A 
HETATM    2  N   UNL     1      26.537  44.512  51.580  1.00  0.00    -0.307 N 
HETATM    3  C   UNL     1      26.906  43.414  50.839  1.00  0.00     0.135 A 
HETATM    4  N   UNL     1      27.145  43.792  49.600  1.00  0.00    -0.134 NA
HETATM    5  N   UNL     1      26.884  45.136  49.505  1.00  0.00    -0.123 NA
ENDROOT
BRANCH   1   6
HETATM    6  S   UNL     1      25.933  47.134  51.071  1.00  0.00    -0.081 SA
BRANCH   6   7
HETATM    7  C   UNL     1      24.492  47.316  49.991  1.00  0.00     0.185 C 
BRANCH   7   8
HETATM    8  C   UNL     1      24.355  48.627  49.231  1.00  0.00     0.227 C 
HETATM    9  N   UNL     1      23.146  49.144  48.879  1.00  0.00    -0.356 N 
HETATM   10  H   UNL     1      23.235  50.047  48.427  1.00  0.00     0.162 HD
HETATM   11  O   UNL     1      25.347  49.333  49.021  1.00  0.00    -0.273 OA
BRANCH   9  12
HETATM   12  C   UNL     1      21.819  48.602  49.062  1.00  0.00     0.161 C 
BRANCH  12  13
HETATM   13  C   UNL     1      20.783  49.679  49.259  1.00  0.00    -0.040 A 
HETATM   14  C   UNL     1      20.928  50.936  48.652  1.00  0.00     0.011 A 
HETATM   15  C   UNL     1      19.945  51.922  48.798  1.00  0.00     0.037 A 
HETATM   16  C   UNL     1      18.793  51.659  49.537  1.00  0.00     0.068 A 
HETATM   17  C   UNL     1      18.643  50.408  50.138  1.00  0.00     0.037 A 
HETATM   18  C   UNL     1      19.626  49.424  50.003  1.00  0.00     0.011 A 
BRANCH  16  19
HETATM   19  O   UNL     1      17.753  52.522  49.744  1.00  0.00    -0.356 OA
HETATM   20  C   UNL     1      16.442  51.979  49.668  1.00  0.00     0.210 C 
ENDBRANCH  16  19
ENDBRANCH  12  13
ENDBRANCH   9  12
ENDBRANCH   7   8
ENDBRANCH   6   7
ENDBRANCH   1   6
BRANCH   2  21
HETATM   21  C   UNL     1      26.172  44.519  52.984  1.00  0.00     0.171 C 
BRANCH  21  22
HETATM   22  C   UNL     1      27.253  45.023  53.915  1.00  0.00    -0.040 A 
HETATM   23  C   UNL     1      27.237  46.305  54.486  1.00  0.00     0.009 A 
HETATM   24  C   UNL     1      28.260  46.714  55.345  1.00  0.00     0.001 A 
HETATM   25  C   UNL     1      29.297  45.841  55.668  1.00  0.00     0.000 A 
HETATM   26  C   UNL     1      29.310  44.554  55.136  1.00  0.00     0.001 A 
HETATM   27  C   UNL     1      28.294  44.147  54.270  1.00  0.00     0.009 A 
ENDBRANCH  21  22
ENDBRANCH   2  21
BRANCH   3  28
HETATM   28  C   UNL     1      27.034  41.979  51.328  1.00  0.00     0.057 A 
HETATM   29  C   UNL     1      27.874  41.021  50.508  1.00  0.00     0.013 A 
HETATM   30  C   UNL     1      28.393  41.515  51.814  1.00  0.00     0.013 A 
ENDBRANCH   3  28
TORSDOF 9
ENDMDL
MODEL 4
REMARK VINA RESULT:      -7.6      2.806      4.541
REMARK  9 active torsions:
REMARK  status: ('A' for Active; 'I' for Inactive)
REMARK    1  A    between atoms: O_2  and  C_3 
REMARK    2  A    between atoms: C_6  and  C_7 
REMARK    3  A    between atoms: C_7  and  N_8 
REMARK       I    between atoms: N_8  and  C_9 
REMARK    4  A    between atoms: C_9  and  C_10 
REMARK    5  A    between atoms: C_10  and  S_11 
REMARK    6  A    between atoms: S_11  and  C_12 
REMARK    7  A    between atoms: N_13  and  C_14 
REMARK    8  A    between atoms: C_14  and  C_15 
REMARK    9  A    between atoms: C_21  and  C_22 
ROOT
HETATM    1  C   UNL     1      25.206  45.318  51.825  1.00  0.00     0.192 A 
HETATM    2  N   UNL     1      25.696  45.203  53.098  1.00  0.00    -0.307 N 
HETATM    3  C   UNL     1      25.892  46.495  53.526  1.00  0.00     0.135 A 
HETATM    4  N   UNL     1      25.467  47.325  52.597  1.00  0.00    -0.134 NA
HETATM    5  N   UNL     1      25.033  46.582  51.527  1.00  0.00    -0.123 NA
ENDROOT
BRANCH   1   6
HETATM    6  S   UNL     1      24.924  43.981  50.772  1.00  0.00    -0.081 SA
BRANCH   6   7
HETATM    7  C   UNL     1      24.243  44.781  49.298  1.00  0.00     0.185 C 
BRANCH   7   8
HETATM    8  C   UNL     1      22.735  44.969  49.245  1.00  0.00     0.227 C 
HETATM    9  N   UNL     1      22.158  46.162  48.932  1.00  0.00    -0.356 N 
HETATM   10  H   UNL     1      21.147  46.096  48.890  1.00  0.00     0.162 HD
HETATM   11  O   UNL     1      21.981  43.998  49.363  1.00  0.00    -0.273 OA
BRANCH   9  12
HETATM   12  C   UNL     1      22.769  47.442  48.660  1.00  0.00     0.161 C 
BRANCH  12  13
HETATM   13  C   UNL     1      21.881  48.596  49.051  1.00  0.00    -0.040 A 
HETATM   14  C   UNL     1      22.426  49.855  49.343  1.00  0.00     0.011 A 
HETATM   15  C   UNL     1      21.599  50.939  49.663  1.00  0.00     0.037 A 
HETATM   16  C   UNL     1      20.215  50.783  49.679  1.00  0.00     0.068 A 
HETATM   17  C   UNL     1      19.668  49.533  49.385  1.00  0.00     0.037 A 
HETATM   18  C   UNL     1      20.490  48.446  49.073  1.00  0.00     0.011 A 
BRANCH  16  19
HETATM   19  O   UNL     1      19.297  51.758  49.957  1.00  0.00    -0.356 OA
HETATM   20  C   UNL     1      18.674  52.390  48.846  1.00  0.00     0.210 C 
ENDBRANCH  16  19
ENDBRANCH  12  13
ENDBRANCH   9  12
ENDBRANCH   7   8
ENDBRANCH   6   7
ENDBRANCH   1   6
BRANCH   2  21
HETATM   21  C   UNL     1      26.048  43.994  53.821  1.00  0.00     0.171 C 
BRANCH  21  22
HETATM   22  C   UNL     1      27.499  43.584  53.698  1.00  0.00    -0.040 A 
HETATM   23  C   UNL     1      28.016  42.917  52.577  1.00  0.00     0.009 A 
HETATM   24  C   UNL     1      29.367  42.569  52.517  1.00  0.00     0.001 A 
HETATM   25  C   UNL     1      30.227  42.908  53.559  1.00  0.00     0.000 A 
HETATM   26  C   UNL     1      29.737  43.599  54.664  1.00  0.00     0.001 A 
HETATM   27  C   UNL     1      28.385  43.939  54.732  1.00  0.00     0.009 A 
ENDBRANCH  21  22
ENDBRANCH   2  21
BRANCH   3  28
HETATM   28  C   UNL     1      26.497  46.940  54.850  1.00  0.00     0.057 A 
HETATM   29  C   UNL     1      27.733  47.815  54.808  1.00  0.00     0.013 A 
HETATM   30  C   UNL     1      26.426  48.412  55.201  1.00  0.00     0.013 A 
ENDBRANCH   3  28
TORSDOF 9
ENDMDL
MODEL 5
REMARK VINA RESULT:      -7.6      2.760      7.894
REMARK  9 active torsions:
REMARK  status: ('A' for Active; 'I' for Inactive)
REMARK    1  A    between atoms: O_2  and  C_3 
REMARK    2  A    between atoms: C_6  and  C_7 
REMARK    3  A    between atoms: C_7  and  N_8 
REMARK       I    between atoms: N_8  and  C_9 
REMARK    4  A    between atoms: C_9  and  C_10 
REMARK    5  A    between atoms: C_10  and  S_11 
REMARK    6  A    between atoms: S_11  and  C_12 
REMARK    7  A    between atoms: N_13  and  C_14 
REMARK    8  A    between atoms: C_14  and  C_15 
REMARK    9  A    between atoms: C_21  and  C_22 
ROOT
HETATM    1  C   UNL     1      26.035  45.116  49.714  1.00  0.00     0.192 A 
HETATM    2  N   UNL     1      25.584  46.395  49.901  1.00  0.00    -0.307 N 
HETATM    3  C   UNL     1      26.657  47.202  49.602  1.00  0.00     0.135 A 
HETATM    4  N   UNL     1      27.656  46.452  49.184  1.00  0.00    -0.134 NA
HETATM    5  N   UNL     1      27.262  45.139  49.253  1.00  0.00    -0.123 NA
ENDROOT
BRANCH   1   6
HETATM    6  S   UNL     1      25.122  43.703  50.094  1.00  0.00    -0.081 SA
BRANCH   6   7
HETATM    7  C   UNL     1      26.054  42.996  51.475  1.00  0.00     0.185 C 
BRANCH   7   8
HETATM    8  C   UNL     1      27.301  42.195  51.133  1.00  0.00     0.227 C 
HETATM    9  N   UNL     1      28.019  41.523  52.075  1.00  0.00    -0.356 N 
HETATM   10  H   UNL     1      28.785  41.000  51.666  1.00  0.00     0.162 HD
HETATM   11  O   UNL     1      27.629  42.025  49.954  1.00  0.00    -0.273 OA
BRANCH   9  12
HETATM   12  C   UNL     1      27.835  41.458  53.506  1.00  0.00     0.161 C 
BRANCH  12  13
HETATM   13  C   UNL     1      28.481  42.618  54.220  1.00  0.00    -0.040 A 
HETATM   14  C   UNL     1      29.841  42.584  54.562  1.00  0.00     0.011 A 
HETATM   15  C   UNL     1      30.453  43.678  55.185  1.00  0.00     0.037 A 
HETATM   16  C   UNL     1      29.717  44.829  55.460  1.00  0.00     0.068 A 
HETATM   17  C   UNL     1      28.364  44.868  55.117  1.00  0.00     0.037 A 
HETATM   18  C   UNL     1      27.747  43.775  54.503  1.00  0.00     0.011 A 
BRANCH  16  19
HETATM   19  O   UNL     1      30.192  45.969  56.046  1.00  0.00    -0.356 OA
HETATM   20  C   UNL     1      30.311  45.962  57.463  1.00  0.00     0.210 C 
ENDBRANCH  16  19
ENDBRANCH  12  13
ENDBRANCH   9  12
ENDBRANCH   7   8
ENDBRANCH   6   7
ENDBRANCH   1   6
BRANCH   2  21
HETATM   21  C   UNL     1      24.297  46.831  50.411  1.00  0.00     0.171 C 
BRANCH  21  22
HETATM   22  C   UNL     1      23.329  47.314  49.352  1.00  0.00    -0.040 A 
HETATM   23  C   UNL     1      22.685  46.452  48.451  1.00  0.00     0.009 A 
HETATM   24  C   UNL     1      21.796  46.955  47.498  1.00  0.00     0.001 A 
HETATM   25  C   UNL     1      21.515  48.319  47.451  1.00  0.00     0.000 A 
HETATM   26  C   UNL     1      22.120  49.182  48.360  1.00  0.00     0.001 A 
HETATM   27  C   UNL     1      23.017  48.684  49.306  1.00  0.00     0.009 A 
ENDBRANCH  21  22
ENDBRANCH   2  21
BRANCH   3  28
HETATM   28  C   UNL     1      26.725  48.718  49.719  1.00  0.00     0.057 A 
HETATM   29  C   UNL     1      27.887  49.430  49.057  1.00  0.00     0.013 A 
HETATM   30  C   UNL     1      26.527  49.534  48.458  1.00  0.00     0.013 A 
ENDBRANCH   3  28
TORSDOF 9
ENDMDL
MODEL 6
REMARK VINA RESULT:      -7.4      2.855      7.984
REMARK  9 active torsions:
REMARK  status: ('A' for Active; 'I' for Inactive)
REMARK    1  A    between atoms: O_2  and  C_3 
REMARK    2  A    between atoms: C_6  and  C_7 
REMARK    3  A    between atoms: C_7  and  N_8 
REMARK       I    between atoms: N_8  and  C_9 
REMARK    4  A    between atoms: C_9  and  C_10 
REMARK    5  A    between atoms: C_10  and  S_11 
REMARK    6  A    between atoms: S_11  and  C_12 
REMARK    7  A    between atoms: N_13  and  C_14 
REMARK    8  A    between atoms: C_14  and  C_15 
REMARK    9  A    between atoms: C_21  and  C_22 
ROOT
HETATM    1  C   UNL     1      25.190  44.765  49.436  1.00  0.00     0.192 A 
HETATM    2  N   UNL     1      24.318  45.801  49.632  1.00  0.00    -0.307 N 
HETATM    3  C   UNL     1      23.206  45.481  48.889  1.00  0.00     0.135 A 
HETATM    4  N   UNL     1      23.376  44.290  48.353  1.00  0.00    -0.134 NA
HETATM    5  N   UNL     1      24.626  43.839  48.700  1.00  0.00    -0.123 NA
ENDROOT
BRANCH   1   6
HETATM    6  S   UNL     1      26.809  44.737  50.033  1.00  0.00    -0.081 SA
BRANCH   6   7
HETATM    7  C   UNL     1      26.657  43.733  51.530  1.00  0.00     0.185 C 
BRANCH   7   8
HETATM    8  C   UNL     1      25.701  44.229  52.604  1.00  0.00     0.227 C 
HETATM    9  N   UNL     1      25.986  45.300  53.397  1.00  0.00    -0.356 N 
HETATM   10  H   UNL     1      25.219  45.526  54.020  1.00  0.00     0.162 HD
HETATM   11  O   UNL     1      24.569  43.746  52.705  1.00  0.00    -0.273 OA
BRANCH   9  12
HETATM   12  C   UNL     1      27.175  46.117  53.456  1.00  0.00     0.161 C 
BRANCH  12  13
HETATM   13  C   UNL     1      28.156  45.626  54.491  1.00  0.00    -0.040 A 
HETATM   14  C   UNL     1      28.875  44.438  54.294  1.00  0.00     0.011 A 
HETATM   15  C   UNL     1      29.818  44.004  55.233  1.00  0.00     0.037 A 
HETATM   16  C   UNL     1      30.069  44.762  56.376  1.00  0.00     0.068 A 
HETATM   17  C   UNL     1      29.358  45.948  56.574  1.00  0.00     0.037 A 
HETATM   18  C   UNL     1      28.409  46.380  55.643  1.00  0.00     0.011 A 
BRANCH  16  19
HETATM   19  O   UNL     1      30.971  44.464  57.359  1.00  0.00    -0.356 OA
HETATM   20  C   UNL     1      31.827  43.353  57.130  1.00  0.00     0.210 C 
ENDBRANCH  16  19
ENDBRANCH  12  13
ENDBRANCH   9  12
ENDBRANCH   7   8
ENDBRANCH   6   7
ENDBRANCH   1   6
BRANCH   2  21
HETATM   21  C   UNL     1      24.535  47.034  50.367  1.00  0.00     0.171 C 
BRANCH  21  22
HETATM   22  C   UNL     1      25.249  48.117  49.587  1.00  0.00    -0.040 A 
HETATM   23  C   UNL     1      24.581  49.045  48.774  1.00  0.00     0.009 A 
HETATM   24  C   UNL     1      25.294  50.027  48.082  1.00  0.00     0.001 A 
HETATM   25  C   UNL     1      26.678  50.115  48.216  1.00  0.00     0.000 A 
HETATM   26  C   UNL     1      27.352  49.223  49.046  1.00  0.00     0.001 A 
HETATM   27  C   UNL     1      26.644  48.234  49.729  1.00  0.00     0.009 A 
ENDBRANCH  21  22
ENDBRANCH   2  21
BRANCH   3  28
HETATM   28  C   UNL     1      21.959  46.331  48.690  1.00  0.00     0.057 A 
HETATM   29  C   UNL     1      21.820  47.095  47.390  1.00  0.00     0.013 A 
HETATM   30  C   UNL     1      20.968  45.897  47.629  1.00  0.00     0.013 A 
ENDBRANCH   3  28
TORSDOF 9
ENDMDL
MODEL 7
REMARK VINA RESULT:      -7.4      2.606      5.872
REMARK  9 active torsions:
REMARK  status: ('A' for Active; 'I' for Inactive)
REMARK    1  A    between atoms: O_2  and  C_3 
REMARK    2  A    between atoms: C_6  and  C_7 
REMARK    3  A    between atoms: C_7  and  N_8 
REMARK       I    between atoms: N_8  and  C_9 
REMARK    4  A    between atoms: C_9  and  C_10 
REMARK    5  A    between atoms: C_10  and  S_11 
REMARK    6  A    between atoms: S_11  and  C_12 
REMARK    7  A    between atoms: N_13  and  C_14 
REMARK    8  A    between atoms: C_14  and  C_15 
REMARK    9  A    between atoms: C_21  and  C_22 
ROOT
HETATM    1  C   UNL     1      26.277  44.563  50.421  1.00  0.00     0.192 A 
HETATM    2  N   UNL     1      25.964  45.823  50.854  1.00  0.00    -0.307 N 
HETATM    3  C   UNL     1      26.690  46.670  50.050  1.00  0.00     0.135 A 
HETATM    4  N   UNL     1      27.329  45.960  49.143  1.00  0.00    -0.134 NA
HETATM    5  N   UNL     1      27.066  44.632  49.378  1.00  0.00    -0.123 NA
ENDROOT
BRANCH   1   6
HETATM    6  S   UNL     1      25.745  43.115  51.194  1.00  0.00    -0.081 SA
BRANCH   6   7
HETATM    7  C   UNL     1      25.983  41.872  49.901  1.00  0.00     0.185 C 
BRANCH   7   8
HETATM    8  C   UNL     1      27.416  41.506  49.546  1.00  0.00     0.227 C 
HETATM    9  N   UNL     1      28.247  40.874  50.421  1.00  0.00    -0.356 N 
HETATM   10  H   UNL     1      29.145  40.659  50.004  1.00  0.00     0.162 HD
HETATM   11  O   UNL     1      27.833  41.660  48.393  1.00  0.00    -0.273 OA
BRANCH   9  12
HETATM   12  C   UNL     1      28.022  40.486  51.794  1.00  0.00     0.161 C 
BRANCH  12  13
HETATM   13  C   UNL     1      28.653  41.445  52.771  1.00  0.00    -0.040 A 
HETATM   14  C   UNL     1      29.945  41.948  52.552  1.00  0.00     0.011 A 
HETATM   15  C   UNL     1      30.515  42.873  53.435  1.00  0.00     0.037 A 
HETATM   16  C   UNL     1      29.795  43.322  54.540  1.00  0.00     0.068 A 
HETATM   17  C   UNL     1      28.508  42.827  54.759  1.00  0.00     0.037 A 
HETATM   18  C   UNL     1      27.938  41.897  53.885  1.00  0.00     0.011 A 
BRANCH  16  19
HETATM   19  O   UNL     1      30.224  44.231  55.467  1.00  0.00    -0.356 OA
HETATM   20  C   UNL     1      31.277  43.821  56.330  1.00  0.00     0.210 C 
ENDBRANCH  16  19
ENDBRANCH  12  13
ENDBRANCH   9  12
ENDBRANCH   7   8
ENDBRANCH   6   7
ENDBRANCH   1   6
BRANCH   2  21
HETATM   21  C   UNL     1      25.138  46.209  51.983  1.00  0.00     0.171 C 
BRANCH  21  22
HETATM   22  C   UNL     1      25.909  46.622  53.218  1.00  0.00    -0.040 A 
HETATM   23  C   UNL     1      26.983  45.883  53.735  1.00  0.00     0.009 A 
HETATM   24  C   UNL     1      27.662  46.318  54.876  1.00  0.00     0.001 A 
HETATM   25  C   UNL     1      27.299  47.510  55.497  1.00  0.00     0.000 A 
HETATM   26  C   UNL     1      26.257  48.273  54.977  1.00  0.00     0.001 A 
HETATM   27  C   UNL     1      25.570  47.835  53.844  1.00  0.00     0.009 A 
ENDBRANCH  21  22
ENDBRANCH   2  21
BRANCH   3  28
HETATM   28  C   UNL     1      26.772  48.187  50.151  1.00  0.00     0.057 A 
HETATM   29  C   UNL     1      27.608  48.923  49.126  1.00  0.00     0.013 A 
HETATM   30  C   UNL     1      26.122  49.005  49.054  1.00  0.00     0.013 A 
ENDBRANCH   3  28
TORSDOF 9
ENDMDL
MODEL 8
REMARK VINA RESULT:      -7.4      3.777      9.460
REMARK  9 active torsions:
REMARK  status: ('A' for Active; 'I' for Inactive)
REMARK    1  A    between atoms: O_2  and  C_3 
REMARK    2  A    between atoms: C_6  and  C_7 
REMARK    3  A    between atoms: C_7  and  N_8 
REMARK       I    between atoms: N_8  and  C_9 
REMARK    4  A    between atoms: C_9  and  C_10 
REMARK    5  A    between atoms: C_10  and  S_11 
REMARK    6  A    between atoms: S_11  and  C_12 
REMARK    7  A    between atoms: N_13  and  C_14 
REMARK    8  A    between atoms: C_14  and  C_15 
REMARK    9  A    between atoms: C_21  and  C_22 
ROOT
HETATM    1  C   UNL     1      24.041  47.098  49.498  1.00  0.00     0.192 A 
HETATM    2  N   UNL     1      23.172  47.604  48.569  1.00  0.00    -0.307 N 
HETATM    3  C   UNL     1      23.372  48.965  48.595  1.00  0.00     0.135 A 
HETATM    4  N   UNL     1      24.356  49.239  49.426  1.00  0.00    -0.134 NA
HETATM    5  N   UNL     1      24.777  48.062  49.993  1.00  0.00    -0.123 NA
ENDROOT
BRANCH   1   6
HETATM    6  S   UNL     1      24.094  45.439  49.969  1.00  0.00    -0.081 SA
BRANCH   6   7
HETATM    7  C   UNL     1      25.470  45.410  51.144  1.00  0.00     0.185 C 
BRANCH   7   8
HETATM    8  C   UNL     1      26.807  44.897  50.633  1.00  0.00     0.227 C 
HETATM    9  N   UNL     1      27.547  43.978  51.315  1.00  0.00    -0.356 N 
HETATM   10  H   UNL     1      28.381  43.709  50.807  1.00  0.00     0.162 HD
HETATM   11  O   UNL     1      27.207  45.209  49.506  1.00  0.00    -0.273 OA
BRANCH   9  12
HETATM   12  C   UNL     1      27.304  43.366  52.600  1.00  0.00     0.161 C 
BRANCH  12  13
HETATM   13  C   UNL     1      28.372  43.707  53.608  1.00  0.00    -0.040 A 
HETATM   14  C   UNL     1      28.222  44.804  54.470  1.00  0.00     0.011 A 
HETATM   15  C   UNL     1      29.192  45.096  55.437  1.00  0.00     0.037 A 
HETATM   16  C   UNL     1      30.317  44.285  55.567  1.00  0.00     0.068 A 
HETATM   17  C   UNL     1      30.467  43.189  54.715  1.00  0.00     0.037 A 
HETATM   18  C   UNL     1      29.506  42.899  53.743  1.00  0.00     0.011 A 
BRANCH  16  19
HETATM   19  O   UNL     1      31.326  44.446  56.476  1.00  0.00    -0.356 OA
HETATM   20  C   UNL     1      31.723  43.294  57.209  1.00  0.00     0.210 C 
ENDBRANCH  16  19
ENDBRANCH  12  13
ENDBRANCH   9  12
ENDBRANCH   7   8
ENDBRANCH   6   7
ENDBRANCH   1   6
BRANCH   2  21
HETATM   21  C   UNL     1      22.170  46.897  47.793  1.00  0.00     0.171 C 
BRANCH  21  22
HETATM   22  C   UNL     1      20.753  47.386  47.997  1.00  0.00    -0.040 A 
HETATM   23  C   UNL     1      20.165  47.529  49.263  1.00  0.00     0.009 A 
HETATM   24  C   UNL     1      18.853  47.992  49.390  1.00  0.00     0.001 A 
HETATM   25  C   UNL     1      18.121  48.346  48.259  1.00  0.00     0.000 A 
HETATM   26  C   UNL     1      18.701  48.242  46.997  1.00  0.00     0.001 A 
HETATM   27  C   UNL     1      20.008  47.769  46.867  1.00  0.00     0.009 A 
ENDBRANCH  21  22
ENDBRANCH   2  21
BRANCH   3  28
HETATM   28  C   UNL     1      22.608  50.019  47.807  1.00  0.00     0.057 A 
HETATM   29  C   UNL     1      21.633  50.901  48.560  1.00  0.00     0.013 A 
HETATM   30  C   UNL     1      22.923  51.475  48.083  1.00  0.00     0.013 A 
ENDBRANCH   3  28
TORSDOF 9
ENDMDL
MODEL 9
REMARK VINA RESULT:      -7.3      3.478      6.527
REMARK  9 active torsions:
REMARK  status: ('A' for Active; 'I' for Inactive)
REMARK    1  A    between atoms: O_2  and  C_3 
REMARK    2  A    between atoms: C_6  and  C_7 
REMARK    3  A    between atoms: C_7  and  N_8 
REMARK       I    between atoms: N_8  and  C_9 
REMARK    4  A    between atoms: C_9  and  C_10 
REMARK    5  A    between atoms: C_10  and  S_11 
REMARK    6  A    between atoms: S_11  and  C_12 
REMARK    7  A    between atoms: N_13  and  C_14 
REMARK    8  A    between atoms: C_14  and  C_15 
REMARK    9  A    between atoms: C_21  and  C_22 
ROOT
HETATM    1  C   UNL     1      25.135  44.460  50.827  1.00  0.00     0.192 A 
HETATM    2  N   UNL     1      25.941  45.534  51.093  1.00  0.00    -0.307 N 
HETATM    3  C   UNL     1      25.598  45.934  52.363  1.00  0.00     0.135 A 
HETATM    4  N   UNL     1      24.703  45.100  52.851  1.00  0.00    -0.134 NA
HETATM    5  N   UNL     1      24.414  44.171  51.882  1.00  0.00    -0.123 NA
ENDROOT
BRANCH   1   6
HETATM    6  S   UNL     1      25.057  43.664  49.298  1.00  0.00    -0.081 SA
BRANCH   6   7
HETATM    7  C   UNL     1      23.756  44.587  48.443  1.00  0.00     0.185 C 
BRANCH   7   8
HETATM    8  C   UNL     1      22.362  44.545  49.050  1.00  0.00     0.227 C 
HETATM    9  N   UNL     1      21.480  45.576  48.926  1.00  0.00    -0.356 N 
HETATM   10  H   UNL     1      20.582  45.359  49.343  1.00  0.00     0.162 HD
HETATM   11  O   UNL     1      21.940  43.509  49.572  1.00  0.00    -0.273 OA
BRANCH   9  12
HETATM   12  C   UNL     1      21.649  46.868  48.303  1.00  0.00     0.161 C 
BRANCH  12  13
HETATM   13  C   UNL     1      20.648  47.879  48.802  1.00  0.00    -0.040 A 
HETATM   14  C   UNL     1      19.396  47.472  49.287  1.00  0.00     0.011 A 
HETATM   15  C   UNL     1      18.483  48.406  49.792  1.00  0.00     0.037 A 
HETATM   16  C   UNL     1      18.817  49.758  49.837  1.00  0.00     0.068 A 
HETATM   17  C   UNL     1      20.064  50.166  49.360  1.00  0.00     0.037 A 
HETATM   18  C   UNL     1      20.974  49.239  48.847  1.00  0.00     0.011 A 
BRANCH  16  19
HETATM   19  O   UNL     1      18.029  50.767  50.318  1.00  0.00    -0.356 OA
HETATM   20  C   UNL     1      18.362  52.090  49.916  1.00  0.00     0.210 C 
ENDBRANCH  16  19
ENDBRANCH  12  13
ENDBRANCH   9  12
ENDBRANCH   7   8
ENDBRANCH   6   7
ENDBRANCH   1   6
BRANCH   2  21
HETATM   21  C   UNL     1      26.881  46.196  50.208  1.00  0.00     0.171 C 
BRANCH  21  22
HETATM   22  C   UNL     1      26.378  47.489  49.604  1.00  0.00    -0.040 A 
HETATM   23  C   UNL     1      25.017  47.827  49.541  1.00  0.00     0.009 A 
HETATM   24  C   UNL     1      24.612  49.039  48.977  1.00  0.00     0.001 A 
HETATM   25  C   UNL     1      25.558  49.942  48.497  1.00  0.00     0.000 A 
HETATM   26  C   UNL     1      26.914  49.636  48.583  1.00  0.00     0.001 A 
HETATM   27  C   UNL     1      27.321  48.421  49.136  1.00  0.00     0.009 A 
ENDBRANCH  21  22
ENDBRANCH   2  21
BRANCH   3  28
HETATM   28  C   UNL     1      26.138  47.138  53.123  1.00  0.00     0.057 A 
HETATM   29  C   UNL     1      26.004  47.144  54.632  1.00  0.00     0.013 A 
HETATM   30  C   UNL     1      27.344  46.927  54.017  1.00  0.00     0.013 A 
ENDBRANCH   3  28
TORSDOF 9
ENDMDL
MODEL 10
REMARK VINA RESULT:      -7.2     12.900     15.422
REMARK  9 active torsions:
REMARK  status: ('A' for Active; 'I' for Inactive)
REMARK    1  A    between atoms: O_2  and  C_3 
REMARK    2  A    between atoms: C_6  and  C_7 
REMARK    3  A    between atoms: C_7  and  N_8 
REMARK       I    between atoms: N_8  and  C_9 
REMARK    4  A    between atoms: C_9  and  C_10 
REMARK    5  A    between atoms: C_10  and  S_11 
REMARK    6  A    between atoms: S_11  and  C_12 
REMARK    7  A    between atoms: N_13  and  C_14 
REMARK    8  A    between atoms: C_14  and  C_15 
REMARK    9  A    between atoms: C_21  and  C_22 
ROOT
HETATM    1  C   UNL     1      28.365  50.185  38.248  1.00  0.00     0.192 A 
HETATM    2  N   UNL     1      28.825  48.909  38.427  1.00  0.00    -0.307 N 
HETATM    3  C   UNL     1      27.698  48.120  38.442  1.00  0.00     0.135 A 
HETATM    4  N   UNL     1      26.644  48.872  38.203  1.00  0.00    -0.134 NA
HETATM    5  N   UNL     1      27.066  50.173  38.080  1.00  0.00    -0.123 NA
ENDROOT
BRANCH   1   6
HETATM    6  S   UNL     1      29.366  51.590  38.301  1.00  0.00    -0.081 SA
BRANCH   6   7
HETATM    7  C   UNL     1      28.495  52.645  39.486  1.00  0.00     0.185 C 
BRANCH   7   8
HETATM    8  C   UNL     1      28.471  52.187  40.936  1.00  0.00     0.227 C 
HETATM    9  N   UNL     1      29.459  52.505  41.819  1.00  0.00    -0.356 N 
HETATM   10  H   UNL     1      29.257  52.165  42.752  1.00  0.00     0.162 HD
HETATM   11  O   UNL     1      27.478  51.612  41.393  1.00  0.00    -0.273 OA
BRANCH   9  12
HETATM   12  C   UNL     1      30.689  53.231  41.609  1.00  0.00     0.161 C 
BRANCH  12  13
HETATM   13  C   UNL     1      31.904  52.347  41.726  1.00  0.00    -0.040 A 
HETATM   14  C   UNL     1      32.582  51.900  40.581  1.00  0.00     0.011 A 
HETATM   15  C   UNL     1      33.736  51.115  40.690  1.00  0.00     0.037 A 
HETATM   16  C   UNL     1      34.239  50.780  41.945  1.00  0.00     0.068 A 
HETATM   17  C   UNL     1      33.571  51.226  43.087  1.00  0.00     0.037 A 
HETATM   18  C   UNL     1      32.414  52.003  42.983  1.00  0.00     0.011 A 
BRANCH  16  19
HETATM   19  O   UNL     1      35.361  50.038  42.192  1.00  0.00    -0.356 OA
HETATM   20  C   UNL     1      36.604  50.730  42.188  1.00  0.00     0.210 C 
ENDBRANCH  16  19
ENDBRANCH  12  13
ENDBRANCH   9  12
ENDBRANCH   7   8
ENDBRANCH   6   7
ENDBRANCH   1   6
BRANCH   2  21
HETATM   21  C   UNL     1      30.187  48.466  38.664  1.00  0.00     0.171 C 
BRANCH  21  22
HETATM   22  C   UNL     1      30.611  48.477  40.116  1.00  0.00    -0.040 A 
HETATM   23  C   UNL     1      29.798  48.970  41.149  1.00  0.00     0.009 A 
HETATM   24  C   UNL     1      30.240  48.948  42.474  1.00  0.00     0.001 A 
HETATM   25  C   UNL     1      31.485  48.408  42.789  1.00  0.00     0.000 A 
HETATM   26  C   UNL     1      32.290  47.885  41.781  1.00  0.00     0.001 A 
HETATM   27  C   UNL     1      31.855  47.916  40.455  1.00  0.00     0.009 A 
ENDBRANCH  21  22
ENDBRANCH   2  21
BRANCH   3  28
HETATM   28  C   UNL     1      27.632  46.619  38.688  1.00  0.00     0.057 A 
HETATM   29  C   UNL     1      26.721  45.794  37.803  1.00  0.00     0.013 A 
HETATM   30  C   UNL     1      28.197  45.702  37.622  1.00  0.00     0.013 A 
ENDBRANCH   3  28
TORSDOF 9
ENDMDL
