MODEL 1
REMARK VINA RESULT:      -8.8      0.000      0.000
REMARK  3 active torsions:
REMARK  status: ('A' for Active; 'I' for Inactive)
REMARK    1  A    between atoms: N_1  and  C_5 
REMARK    2  A    between atoms: C_8  and  C_10 
REMARK       I    between atoms: C_10  and  N_12 
REMARK    3  A    between atoms: N_12  and  C_13 
ROOT
HETATM    1  C   UNL     1      28.770  44.201  54.024  1.00  0.00     0.057 A 
HETATM    2  C   UNL     1      28.698  45.160  55.042  1.00  0.00     0.043 A 
HETATM    3  C   UNL     1      29.568  45.093  56.143  1.00  0.00    -0.017 A 
HETATM    4  C   UNL     1      29.492  46.077  57.227  1.00  0.00     0.029 A 
HETATM    5  C   UNL     1      30.332  45.977  58.264  1.00  0.00     0.092 A 
HETATM    6  N   UNL     1      31.268  44.979  58.333  1.00  0.00    -0.333 N 
HETATM    7  C   UNL     1      31.435  44.000  57.379  1.00  0.00     0.256 A 
HETATM    8  O   UNL     1      32.286  43.126  57.478  1.00  0.00    -0.267 OA
HETATM    9  C   UNL     1      30.520  44.063  56.211  1.00  0.00     0.044 A 
HETATM   10  C   UNL     1      30.606  43.101  55.205  1.00  0.00     0.044 A 
HETATM   11  C   UNL     1      29.731  43.172  54.124  1.00  0.00     0.061 A 
HETATM   12 CL   UNL     1      29.857  41.964  52.888  1.00  0.00    -0.082 Cl
HETATM   13  H   UNL     1      31.894  44.923  59.129  1.00  0.00     0.168 HD
ENDROOT
BRANCH   1  14
HETATM   14  N   UNL     1      27.908  44.193  52.899  1.00  0.00    -0.325 N 
HETATM   15  C   UNL     1      26.536  44.158  52.873  1.00  0.00     0.226 C 
HETATM   16  O   UNL     1      25.773  44.236  53.837  1.00  0.00    -0.273 OA
HETATM   17  H   UNL     1      28.400  44.249  52.009  1.00  0.00     0.169 HD
BRANCH  15  18
HETATM   18  C   UNL     1      25.968  44.124  51.452  1.00  0.00     0.080 C 
HETATM   19  C   UNL     1      26.933  44.792  50.475  1.00  0.00     0.016 C 
HETATM   20  C   UNL     1      26.645  46.292  50.606  1.00  0.00     0.033 C 
HETATM   21  C   UNL     1      25.207  46.408  51.121  1.00  0.00     0.184 C 
HETATM   22  C   UNL     1      24.703  44.974  51.300  1.00  0.00     0.046 C 
BRANCH  21  23
HETATM   23  N   UNL     1      25.198  47.105  52.432  1.00  0.00    -0.075 N 
HETATM   24  H   UNL     1      25.988  47.750  52.550  1.00  0.00     0.274 HD
HETATM   25  H   UNL     1      24.331  47.635  52.582  1.00  0.00     0.274 HD
HETATM   26  H   UNL     1      25.244  46.418  53.216  1.00  0.00     0.274 HD
ENDBRANCH  21  23
ENDBRANCH  15  18
ENDBRANCH   1  14
TORSDOF 3
ENDMDL
MODEL 2
REMARK VINA RESULT:      -8.8      1.114      2.021
REMARK  3 active torsions:
REMARK  status: ('A' for Active; 'I' for Inactive)
REMARK    1  A    between atoms: N_1  and  C_5 
REMARK    2  A    between atoms: C_8  and  C_10 
REMARK       I    between atoms: C_10  and  N_12 
REMARK    3  A    between atoms: N_12  and  C_13 
ROOT
HETATM    1  C   UNL     1      28.879  44.428  54.001  1.00  0.00     0.057 A 
HETATM    2  C   UNL     1      28.837  45.346  55.058  1.00  0.00     0.043 A 
HETATM    3  C   UNL     1      29.661  45.172  56.182  1.00  0.00    -0.017 A 
HETATM    4  C   UNL     1      29.615  46.112  57.306  1.00  0.00     0.029 A 
HETATM    5  C   UNL     1      30.409  45.911  58.364  1.00  0.00     0.092 A 
HETATM    6  N   UNL     1      31.270  44.847  58.419  1.00  0.00    -0.333 N 
HETATM    7  C   UNL     1      31.404  43.900  57.428  1.00  0.00     0.256 A 
HETATM    8  O   UNL     1      32.189  42.965  57.516  1.00  0.00    -0.267 OA
HETATM    9  C   UNL     1      30.537  44.076  56.235  1.00  0.00     0.044 A 
HETATM   10  C   UNL     1      30.593  43.154  55.190  1.00  0.00     0.044 A 
HETATM   11  C   UNL     1      29.763  43.330  54.086  1.00  0.00     0.061 A 
HETATM   12 CL   UNL     1      29.849  42.170  52.803  1.00  0.00    -0.082 Cl
HETATM   13  H   UNL     1      31.863  44.715  59.232  1.00  0.00     0.168 HD
ENDROOT
BRANCH   1  14
HETATM   14  N   UNL     1      28.059  44.527  52.850  1.00  0.00    -0.325 N 
HETATM   15  C   UNL     1      26.696  44.388  52.756  1.00  0.00     0.226 C 
HETATM   16  O   UNL     1      25.898  44.256  53.683  1.00  0.00    -0.273 OA
HETATM   17  H   UNL     1      28.573  44.760  52.002  1.00  0.00     0.169 HD
BRANCH  15  18
HETATM   18  C   UNL     1      26.181  44.532  51.321  1.00  0.00     0.080 C 
HETATM   19  C   UNL     1      24.685  44.234  51.257  1.00  0.00     0.016 C 
HETATM   20  C   UNL     1      24.594  42.706  51.188  1.00  0.00     0.033 C 
HETATM   21  C   UNL     1      25.926  42.224  50.606  1.00  0.00     0.184 C 
HETATM   22  C   UNL     1      26.768  43.481  50.374  1.00  0.00     0.046 C 
BRANCH  21  23
HETATM   23  N   UNL     1      26.611  41.341  51.583  1.00  0.00    -0.075 N 
HETATM   24  H   UNL     1      26.857  40.423  51.192  1.00  0.00     0.274 HD
HETATM   25  H   UNL     1      27.468  41.767  51.955  1.00  0.00     0.274 HD
HETATM   26  H   UNL     1      26.003  41.168  52.413  1.00  0.00     0.274 HD
ENDBRANCH  21  23
ENDBRANCH  15  18
ENDBRANCH   1  14
TORSDOF 3
ENDMDL
MODEL 3
REMARK VINA RESULT:      -8.4      2.234      3.112
REMARK  3 active torsions:
REMARK  status: ('A' for Active; 'I' for Inactive)
REMARK    1  A    between atoms: N_1  and  C_5 
REMARK    2  A    between atoms: C_8  and  C_10 
REMARK       I    between atoms: C_10  and  N_12 
REMARK    3  A    between atoms: N_12  and  C_13 
ROOT
HETATM    1  C   UNL     1      27.454  45.580  53.876  1.00  0.00     0.057 A 
HETATM    2  C   UNL     1      28.385  44.537  53.961  1.00  0.00     0.043 A 
HETATM    3  C   UNL     1      29.290  44.479  55.034  1.00  0.00    -0.017 A 
HETATM    4  C   UNL     1      30.285  43.406  55.126  1.00  0.00     0.029 A 
HETATM    5  C   UNL     1      31.137  43.388  56.158  1.00  0.00     0.092 A 
HETATM    6  N   UNL     1      31.097  44.347  57.135  1.00  0.00    -0.333 N 
HETATM    7  C   UNL     1      30.211  45.401  57.158  1.00  0.00     0.256 A 
HETATM    8  O   UNL     1      30.207  46.236  58.052  1.00  0.00    -0.267 OA
HETATM    9  C   UNL     1      29.249  45.469  56.028  1.00  0.00     0.044 A 
HETATM   10  C   UNL     1      28.327  46.514  55.960  1.00  0.00     0.044 A 
HETATM   11  C   UNL     1      27.442  46.566  54.886  1.00  0.00     0.061 A 
HETATM   12 CL   UNL     1      26.308  47.874  54.823  1.00  0.00    -0.082 Cl
HETATM   13  H   UNL     1      31.753  44.312  57.908  1.00  0.00     0.168 HD
ENDROOT
BRANCH   1  14
HETATM   14  N   UNL     1      26.530  45.714  52.811  1.00  0.00    -0.325 N 
HETATM   15  C   UNL     1      25.383  44.995  52.577  1.00  0.00     0.226 C 
HETATM   16  O   UNL     1      24.871  44.154  53.316  1.00  0.00    -0.273 OA
HETATM   17  H   UNL     1      26.758  46.469  52.167  1.00  0.00     0.169 HD
BRANCH  15  18
HETATM   18  C   UNL     1      24.668  45.419  51.292  1.00  0.00     0.080 C 
HETATM   19  C   UNL     1      23.829  44.267  50.742  1.00  0.00     0.016 C 
HETATM   20  C   UNL     1      24.821  43.400  49.960  1.00  0.00     0.033 C 
HETATM   21  C   UNL     1      25.975  44.325  49.560  1.00  0.00     0.184 C 
HETATM   22  C   UNL     1      25.637  45.700  50.140  1.00  0.00     0.046 C 
BRANCH  21  23
HETATM   23  N   UNL     1      27.242  43.832  50.156  1.00  0.00    -0.075 N 
HETATM   24  H   UNL     1      27.542  42.927  49.773  1.00  0.00     0.274 HD
HETATM   25  H   UNL     1      28.013  44.499  50.031  1.00  0.00     0.274 HD
HETATM   26  H   UNL     1      27.143  43.711  51.187  1.00  0.00     0.274 HD
ENDBRANCH  21  23
ENDBRANCH  15  18
ENDBRANCH   1  14
TORSDOF 3
ENDMDL
MODEL 4
REMARK VINA RESULT:      -8.3      1.790      2.372
REMARK  3 active torsions:
REMARK  status: ('A' for Active; 'I' for Inactive)
REMARK    1  A    between atoms: N_1  and  C_5 
REMARK    2  A    between atoms: C_8  and  C_10 
REMARK       I    between atoms: C_10  and  N_12 
REMARK    3  A    between atoms: N_12  and  C_13 
ROOT
HETATM    1  C   UNL     1      28.697  44.382  53.750  1.00  0.00     0.057 A 
HETATM    2  C   UNL     1      29.702  43.604  54.337  1.00  0.00     0.043 A 
HETATM    3  C   UNL     1      30.230  43.954  55.591  1.00  0.00    -0.017 A 
HETATM    4  C   UNL     1      31.297  43.162  56.210  1.00  0.00     0.029 A 
HETATM    5  C   UNL     1      31.782  43.530  57.402  1.00  0.00     0.092 A 
HETATM    6  N   UNL     1      31.299  44.629  58.061  1.00  0.00    -0.333 N 
HETATM    7  C   UNL     1      30.302  45.450  57.582  1.00  0.00     0.256 A 
HETATM    8  O   UNL     1      29.898  46.422  58.205  1.00  0.00    -0.267 OA
HETATM    9  C   UNL     1      29.737  45.086  56.258  1.00  0.00     0.044 A 
HETATM   10  C   UNL     1      28.735  45.872  55.689  1.00  0.00     0.044 A 
HETATM   11  C   UNL     1      28.226  45.521  54.440  1.00  0.00     0.061 A 
HETATM   12 CL   UNL     1      26.984  46.513  53.753  1.00  0.00    -0.082 Cl
HETATM   13  H   UNL     1      31.683  44.890  58.964  1.00  0.00     0.168 HD
ENDROOT
BRANCH   1  14
HETATM   14  N   UNL     1      28.137  44.102  52.479  1.00  0.00    -0.325 N 
HETATM   15  C   UNL     1      26.914  43.552  52.186  1.00  0.00     0.226 C 
HETATM   16  O   UNL     1      26.009  43.290  52.978  1.00  0.00    -0.273 OA
HETATM   17  H   UNL     1      28.732  44.382  51.702  1.00  0.00     0.169 HD
BRANCH  15  18
HETATM   18  C   UNL     1      26.687  43.374  50.682  1.00  0.00     0.080 C 
HETATM   19  C   UNL     1      27.191  44.596  49.917  1.00  0.00     0.016 C 
HETATM   20  C   UNL     1      26.052  45.616  50.017  1.00  0.00     0.033 C 
HETATM   21  C   UNL     1      24.773  44.807  50.252  1.00  0.00     0.184 C 
HETATM   22  C   UNL     1      25.202  43.339  50.308  1.00  0.00     0.046 C 
BRANCH  21  23
HETATM   23  N   UNL     1      24.165  45.196  51.549  1.00  0.00    -0.075 N 
HETATM   24  H   UNL     1      24.031  46.211  51.643  1.00  0.00     0.274 HD
HETATM   25  H   UNL     1      23.256  44.742  51.702  1.00  0.00     0.274 HD
HETATM   26  H   UNL     1      24.766  44.891  52.346  1.00  0.00     0.274 HD
ENDBRANCH  21  23
ENDBRANCH  15  18
ENDBRANCH   1  14
TORSDOF 3
ENDMDL
MODEL 5
REMARK VINA RESULT:      -7.8      3.127      3.967
REMARK  3 active torsions:
REMARK  status: ('A' for Active; 'I' for Inactive)
REMARK    1  A    between atoms: N_1  and  C_5 
REMARK    2  A    between atoms: C_8  and  C_10 
REMARK       I    between atoms: C_10  and  N_12 
REMARK    3  A    between atoms: N_12  and  C_13 
ROOT
HETATM    1  C   UNL     1      27.451  42.822  53.165  1.00  0.00     0.057 A 
HETATM    2  C   UNL     1      28.707  42.590  53.740  1.00  0.00     0.043 A 
HETATM    3  C   UNL     1      29.261  43.523  54.632  1.00  0.00    -0.017 A 
HETATM    4  C   UNL     1      30.583  43.305  55.228  1.00  0.00     0.029 A 
HETATM    5  C   UNL     1      31.084  44.219  56.067  1.00  0.00     0.092 A 
HETATM    6  N   UNL     1      30.386  45.353  56.389  1.00  0.00    -0.333 N 
HETATM    7  C   UNL     1      29.139  45.667  55.895  1.00  0.00     0.256 A 
HETATM    8  O   UNL     1      28.548  46.691  56.210  1.00  0.00    -0.267 OA
HETATM    9  C   UNL     1      28.544  44.686  54.952  1.00  0.00     0.044 A 
HETATM   10  C   UNL     1      27.292  44.932  54.389  1.00  0.00     0.044 A 
HETATM   11  C   UNL     1      26.757  44.005  53.497  1.00  0.00     0.061 A 
HETATM   12 CL   UNL     1      25.202  44.334  52.809  1.00  0.00    -0.082 Cl
HETATM   13  H   UNL     1      30.786  46.032  57.028  1.00  0.00     0.168 HD
ENDROOT
BRANCH   1  14
HETATM   14  N   UNL     1      26.844  41.938  52.239  1.00  0.00    -0.325 N 
HETATM   15  C   UNL     1      27.442  41.165  51.274  1.00  0.00     0.226 C 
HETATM   16  O   UNL     1      28.650  41.005  51.095  1.00  0.00    -0.273 OA
HETATM   17  H   UNL     1      25.834  41.868  52.346  1.00  0.00     0.169 HD
BRANCH  15  18
HETATM   18  C   UNL     1      26.435  40.365  50.444  1.00  0.00     0.080 C 
HETATM   19  C   UNL     1      27.082  39.867  49.154  1.00  0.00     0.016 C 
HETATM   20  C   UNL     1      27.002  41.057  48.191  1.00  0.00     0.033 C 
HETATM   21  C   UNL     1      25.835  41.922  48.678  1.00  0.00     0.184 C 
HETATM   22  C   UNL     1      25.281  41.227  49.923  1.00  0.00     0.046 C 
BRANCH  21  23
HETATM   23  N   UNL     1      26.330  43.274  49.041  1.00  0.00    -0.075 N 
HETATM   24  H   UNL     1      27.327  43.284  49.288  1.00  0.00     0.274 HD
HETATM   25  H   UNL     1      26.183  43.955  48.287  1.00  0.00     0.274 HD
HETATM   26  H   UNL     1      25.807  43.650  49.862  1.00  0.00     0.274 HD
ENDBRANCH  21  23
ENDBRANCH  15  18
ENDBRANCH   1  14
TORSDOF 3
ENDMDL
MODEL 6
REMARK VINA RESULT:      -7.8      2.030      2.467
REMARK  3 active torsions:
REMARK  status: ('A' for Active; 'I' for Inactive)
REMARK    1  A    between atoms: N_1  and  C_5 
REMARK    2  A    between atoms: C_8  and  C_10 
REMARK       I    between atoms: C_10  and  N_12 
REMARK    3  A    between atoms: N_12  and  C_13 
ROOT
HETATM    1  C   UNL     1      27.462  43.104  52.935  1.00  0.00     0.057 A 
HETATM    2  C   UNL     1      27.371  44.309  53.642  1.00  0.00     0.043 A 
HETATM    3  C   UNL     1      28.357  44.658  54.580  1.00  0.00    -0.017 A 
HETATM    4  C   UNL     1      28.265  45.907  55.343  1.00  0.00     0.029 A 
HETATM    5  C   UNL     1      29.219  46.203  56.235  1.00  0.00     0.092 A 
HETATM    6  N   UNL     1      30.283  45.368  56.447  1.00  0.00    -0.333 N 
HETATM    7  C   UNL     1      30.478  44.171  55.793  1.00  0.00     0.256 A 
HETATM    8  O   UNL     1      31.446  43.455  56.011  1.00  0.00    -0.267 OA
HETATM    9  C   UNL     1      29.441  43.795  54.798  1.00  0.00     0.044 A 
HETATM   10  C   UNL     1      29.549  42.591  54.102  1.00  0.00     0.044 A 
HETATM   11  C   UNL     1      28.560  42.250  53.182  1.00  0.00     0.061 A 
HETATM   12 CL   UNL     1      28.714  40.749  52.332  1.00  0.00    -0.082 Cl
HETATM   13  H   UNL     1      30.994  45.613  57.128  1.00  0.00     0.168 HD
ENDROOT
BRANCH   1  14
HETATM   14  N   UNL     1      26.493  42.677  51.994  1.00  0.00    -0.325 N 
HETATM   15  C   UNL     1      26.439  42.932  50.646  1.00  0.00     0.226 C 
HETATM   16  O   UNL     1      27.293  43.498  49.963  1.00  0.00    -0.273 OA
HETATM   17  H   UNL     1      25.770  42.083  52.396  1.00  0.00     0.169 HD
BRANCH  15  18
HETATM   18  C   UNL     1      25.207  42.321  49.974  1.00  0.00     0.080 C 
HETATM   19  C   UNL     1      25.011  42.909  48.579  1.00  0.00     0.016 C 
HETATM   20  C   UNL     1      24.284  44.238  48.813  1.00  0.00     0.033 C 
HETATM   21  C   UNL     1      23.558  44.097  50.155  1.00  0.00     0.184 C 
HETATM   22  C   UNL     1      23.900  42.700  50.678  1.00  0.00     0.046 C 
BRANCH  21  23
HETATM   23  N   UNL     1      24.059  45.120  51.106  1.00  0.00    -0.075 N 
HETATM   24  H   UNL     1      24.164  46.049  50.680  1.00  0.00     0.274 HD
HETATM   25  H   UNL     1      23.449  45.216  51.927  1.00  0.00     0.274 HD
HETATM   26  H   UNL     1      24.993  44.849  51.483  1.00  0.00     0.274 HD
ENDBRANCH  21  23
ENDBRANCH  15  18
ENDBRANCH   1  14
TORSDOF 3
ENDMDL
MODEL 7
REMARK VINA RESULT:      -7.6      3.014      3.924
REMARK  3 active torsions:
REMARK  status: ('A' for Active; 'I' for Inactive)
REMARK    1  A    between atoms: N_1  and  C_5 
REMARK    2  A    between atoms: C_8  and  C_10 
REMARK       I    between atoms: C_10  and  N_12 
REMARK    3  A    between atoms: N_12  and  C_13 
ROOT
HETATM    1  C   UNL     1      27.592  42.837  52.731  1.00  0.00     0.057 A 
HETATM    2  C   UNL     1      27.289  44.105  53.244  1.00  0.00     0.043 A 
HETATM    3  C   UNL     1      28.117  44.694  54.214  1.00  0.00    -0.017 A 
HETATM    4  C   UNL     1      27.803  46.011  54.777  1.00  0.00     0.029 A 
HETATM    5  C   UNL     1      28.610  46.537  55.705  1.00  0.00     0.092 A 
HETATM    6  N   UNL     1      29.728  45.875  56.139  1.00  0.00    -0.333 N 
HETATM    7  C   UNL     1      30.125  44.636  55.687  1.00  0.00     0.256 A 
HETATM    8  O   UNL     1      31.134  44.080  56.101  1.00  0.00    -0.267 OA
HETATM    9  C   UNL     1      29.257  44.007  54.660  1.00  0.00     0.044 A 
HETATM   10  C   UNL     1      29.574  42.744  54.159  1.00  0.00     0.044 A 
HETATM   11  C   UNL     1      28.740  42.166  53.205  1.00  0.00     0.061 A 
HETATM   12 CL   UNL     1      29.153  40.597  52.599  1.00  0.00    -0.082 Cl
HETATM   13  H   UNL     1      30.325  46.294  56.845  1.00  0.00     0.168 HD
ENDROOT
BRANCH   1  14
HETATM   14  N   UNL     1      26.789  42.174  51.770  1.00  0.00    -0.325 N 
HETATM   15  C   UNL     1      26.683  42.424  50.424  1.00  0.00     0.226 C 
HETATM   16  O   UNL     1      27.356  43.212  49.760  1.00  0.00    -0.273 OA
HETATM   17  H   UNL     1      26.252  41.399  52.154  1.00  0.00     0.169 HD
BRANCH  15  18
HETATM   18  C   UNL     1      25.675  41.507  49.726  1.00  0.00     0.080 C 
HETATM   19  C   UNL     1      25.794  40.080  50.256  1.00  0.00     0.016 C 
HETATM   20  C   UNL     1      26.962  39.469  49.474  1.00  0.00     0.033 C 
HETATM   21  C   UNL     1      27.064  40.263  48.168  1.00  0.00     0.184 C 
HETATM   22  C   UNL     1      25.969  41.331  48.233  1.00  0.00     0.046 C 
BRANCH  21  23
HETATM   23  N   UNL     1      28.393  40.919  48.082  1.00  0.00    -0.075 N 
HETATM   24  H   UNL     1      29.145  40.272  47.813  1.00  0.00     0.274 HD
HETATM   25  H   UNL     1      28.396  41.701  47.417  1.00  0.00     0.274 HD
HETATM   26  H   UNL     1      28.660  41.334  49.002  1.00  0.00     0.274 HD
ENDBRANCH  21  23
ENDBRANCH  15  18
ENDBRANCH   1  14
TORSDOF 3
ENDMDL
MODEL 8
REMARK VINA RESULT:      -7.4      7.089      9.996
REMARK  3 active torsions:
REMARK  status: ('A' for Active; 'I' for Inactive)
REMARK    1  A    between atoms: N_1  and  C_5 
REMARK    2  A    between atoms: C_8  and  C_10 
REMARK       I    between atoms: C_10  and  N_12 
REMARK    3  A    between atoms: N_12  and  C_13 
ROOT
HETATM    1  C   UNL     1      22.812  49.696  48.270  1.00  0.00     0.057 A 
HETATM    2  C   UNL     1      24.080  50.271  48.123  1.00  0.00     0.043 A 
HETATM    3  C   UNL     1      25.225  49.590  48.568  1.00  0.00    -0.017 A 
HETATM    4  C   UNL     1      26.558  50.187  48.440  1.00  0.00     0.029 A 
HETATM    5  C   UNL     1      27.625  49.512  48.883  1.00  0.00     0.092 A 
HETATM    6  N   UNL     1      27.501  48.271  49.449  1.00  0.00    -0.333 N 
HETATM    7  C   UNL     1      26.306  47.608  49.623  1.00  0.00     0.256 A 
HETATM    8  O   UNL     1      26.241  46.498  50.132  1.00  0.00    -0.267 OA
HETATM    9  C   UNL     1      25.091  48.321  49.154  1.00  0.00     0.044 A 
HETATM   10  C   UNL     1      23.835  47.733  49.307  1.00  0.00     0.044 A 
HETATM   11  C   UNL     1      22.707  48.422  48.871  1.00  0.00     0.061 A 
HETATM   12 CL   UNL     1      21.159  47.672  49.075  1.00  0.00    -0.082 Cl
HETATM   13  H   UNL     1      28.325  47.778  49.778  1.00  0.00     0.168 HD
ENDROOT
BRANCH   1  14
HETATM   14  N   UNL     1      21.614  50.336  47.867  1.00  0.00    -0.325 N 
HETATM   15  C   UNL     1      20.702  51.010  48.641  1.00  0.00     0.226 C 
HETATM   16  O   UNL     1      20.803  51.286  49.837  1.00  0.00    -0.273 OA
HETATM   17  H   UNL     1      21.450  50.298  46.863  1.00  0.00     0.169 HD
BRANCH  15  18
HETATM   18  C   UNL     1      19.511  51.534  47.836  1.00  0.00     0.080 C 
HETATM   19  C   UNL     1      18.732  52.569  48.645  1.00  0.00     0.016 C 
HETATM   20  C   UNL     1      17.815  51.745  49.555  1.00  0.00     0.033 C 
HETATM   21  C   UNL     1      17.624  50.394  48.858  1.00  0.00     0.184 C 
HETATM   22  C   UNL     1      18.453  50.458  47.574  1.00  0.00     0.046 C 
BRANCH  21  23
HETATM   23  N   UNL     1      18.136  49.305  49.727  1.00  0.00    -0.075 N 
HETATM   24  H   UNL     1      17.735  48.387  49.501  1.00  0.00     0.274 HD
HETATM   25  H   UNL     1      19.159  49.223  49.683  1.00  0.00     0.274 HD
HETATM   26  H   UNL     1      17.915  49.497  50.729  1.00  0.00     0.274 HD
ENDBRANCH  21  23
ENDBRANCH  15  18
ENDBRANCH   1  14
TORSDOF 3
ENDMDL
MODEL 9
REMARK VINA RESULT:      -7.3      3.449      4.984
REMARK  3 active torsions:
REMARK  status: ('A' for Active; 'I' for Inactive)
REMARK    1  A    between atoms: N_1  and  C_5 
REMARK    2  A    between atoms: C_8  and  C_10 
REMARK       I    between atoms: C_10  and  N_12 
REMARK    3  A    between atoms: N_12  and  C_13 
ROOT
HETATM    1  C   UNL     1      26.437  43.556  52.697  1.00  0.00     0.057 A 
HETATM    2  C   UNL     1      27.357  43.829  53.717  1.00  0.00     0.043 A 
HETATM    3  C   UNL     1      27.344  45.072  54.370  1.00  0.00    -0.017 A 
HETATM    4  C   UNL     1      28.313  45.382  55.426  1.00  0.00     0.029 A 
HETATM    5  C   UNL     1      28.276  46.580  56.021  1.00  0.00     0.092 A 
HETATM    6  N   UNL     1      27.347  47.523  55.670  1.00  0.00    -0.333 N 
HETATM    7  C   UNL     1      26.389  47.350  54.697  1.00  0.00     0.256 A 
HETATM    8  O   UNL     1      25.575  48.220  54.416  1.00  0.00    -0.267 OA
HETATM    9  C   UNL     1      26.394  46.038  54.001  1.00  0.00     0.044 A 
HETATM   10  C   UNL     1      25.470  45.782  52.989  1.00  0.00     0.044 A 
HETATM   11  C   UNL     1      25.499  44.550  52.341  1.00  0.00     0.061 A 
HETATM   12 CL   UNL     1      24.343  44.257  51.085  1.00  0.00    -0.082 Cl
HETATM   13  H   UNL     1      27.339  48.425  56.136  1.00  0.00     0.168 HD
ENDROOT
BRANCH   1  14
HETATM   14  N   UNL     1      26.409  42.335  51.979  1.00  0.00    -0.325 N 
HETATM   15  C   UNL     1      27.462  41.632  51.445  1.00  0.00     0.226 C 
HETATM   16  O   UNL     1      28.661  41.874  51.581  1.00  0.00    -0.273 OA
HETATM   17  H   UNL     1      25.476  41.938  51.887  1.00  0.00     0.169 HD
BRANCH  15  18
HETATM   18  C   UNL     1      27.018  40.367  50.706  1.00  0.00     0.080 C 
HETATM   19  C   UNL     1      28.099  39.912  49.729  1.00  0.00     0.016 C 
HETATM   20  C   UNL     1      27.885  40.774  48.480  1.00  0.00     0.033 C 
HETATM   21  C   UNL     1      26.417  41.210  48.508  1.00  0.00     0.184 C 
HETATM   22  C   UNL     1      25.820  40.611  49.783  1.00  0.00     0.046 C 
BRANCH  21  23
HETATM   23  N   UNL     1      26.335  42.691  48.568  1.00  0.00    -0.075 N 
HETATM   24  H   UNL     1      25.689  43.029  49.292  1.00  0.00     0.274 HD
HETATM   25  H   UNL     1      27.252  43.123  48.734  1.00  0.00     0.274 HD
HETATM   26  H   UNL     1      26.004  43.079  47.658  1.00  0.00     0.274 HD
ENDBRANCH  21  23
ENDBRANCH  15  18
ENDBRANCH   1  14
TORSDOF 3
ENDMDL
MODEL 10
REMARK VINA RESULT:      -7.2      3.978      6.051
REMARK  3 active torsions:
REMARK  status: ('A' for Active; 'I' for Inactive)
REMARK    1  A    between atoms: N_1  and  C_5 
REMARK    2  A    between atoms: C_8  and  C_10 
REMARK       I    between atoms: C_10  and  N_12 
REMARK    3  A    between atoms: N_12  and  C_13 
ROOT
HETATM    1  C   UNL     1      24.643  46.655  50.616  1.00  0.00     0.057 A 
HETATM    2  C   UNL     1      25.081  47.267  51.797  1.00  0.00     0.043 A 
HETATM    3  C   UNL     1      25.996  46.613  52.639  1.00  0.00    -0.017 A 
HETATM    4  C   UNL     1      26.448  47.230  53.889  1.00  0.00     0.029 A 
HETATM    5  C   UNL     1      27.314  46.574  54.670  1.00  0.00     0.092 A 
HETATM    6  N   UNL     1      27.793  45.338  54.324  1.00  0.00    -0.333 N 
HETATM    7  C   UNL     1      27.443  44.658  53.179  1.00  0.00     0.256 A 
HETATM    8  O   UNL     1      27.897  43.555  52.907  1.00  0.00    -0.267 OA
HETATM    9  C   UNL     1      26.477  45.343  52.283  1.00  0.00     0.044 A 
HETATM   10  C   UNL     1      26.053  44.720  51.109  1.00  0.00     0.044 A 
HETATM   11  C   UNL     1      25.138  45.374  50.288  1.00  0.00     0.061 A 
HETATM   12 CL   UNL     1      24.624  44.579  48.838  1.00  0.00    -0.082 Cl
HETATM   13  H   UNL     1      28.449  44.859  54.933  1.00  0.00     0.168 HD
ENDROOT
BRANCH   1  14
HETATM   14  N   UNL     1      23.704  47.246  49.735  1.00  0.00    -0.325 N 
HETATM   15  C   UNL     1      23.680  48.529  49.244  1.00  0.00     0.226 C 
HETATM   16  O   UNL     1      24.542  49.396  49.391  1.00  0.00    -0.273 OA
HETATM   17  H   UNL     1      22.981  46.603  49.420  1.00  0.00     0.169 HD
BRANCH  15  18
HETATM   18  C   UNL     1      22.475  48.797  48.340  1.00  0.00     0.080 C 
HETATM   19  C   UNL     1      22.685  50.076  47.534  1.00  0.00     0.016 C 
HETATM   20  C   UNL     1      22.283  51.209  48.486  1.00  0.00     0.033 C 
HETATM   21  C   UNL     1      21.318  50.590  49.502  1.00  0.00     0.184 C 
HETATM   22  C   UNL     1      21.200  49.111  49.130  1.00  0.00     0.046 C 
BRANCH  21  23
HETATM   23  N   UNL     1      21.880  50.717  50.870  1.00  0.00    -0.075 N 
HETATM   24  H   UNL     1      21.356  51.373  51.462  1.00  0.00     0.274 HD
HETATM   25  H   UNL     1      21.920  49.813  51.356  1.00  0.00     0.274 HD
HETATM   26  H   UNL     1      22.866  51.057  50.834  1.00  0.00     0.274 HD
ENDBRANCH  21  23
ENDBRANCH  15  18
ENDBRANCH   1  14
TORSDOF 3
ENDMDL
