MODEL 1
REMARK VINA RESULT:     -10.6      0.000      0.000
REMARK  5 active torsions:
REMARK  status: ('A' for Active; 'I' for Inactive)
REMARK    1  A    between atoms: C_7  and  C_8 
REMARK    2  A    between atoms: C_16  and  C_17 
REMARK    3  A    between atoms: C_20  and  O_21 
REMARK    4  A    between atoms: C_24  and  C_25 
REMARK       I    between atoms: C_25  and  N_26 
REMARK    5  A    between atoms: N_26  and  C_27 
ROOT
HETATM    1  C   UNL     1      22.890  43.597  47.545  1.00  0.00     0.070 C 
HETATM    2  C   UNL     1      23.726  44.337  48.564  1.00  0.00     0.037 A 
HETATM    3  N   UNL     1      24.751  43.589  49.136  1.00  0.00    -0.192 N 
HETATM    4  C   UNL     1      25.523  44.031  50.142  1.00  0.00     0.726 A 
HETATM    5  N   UNL     1      25.366  45.308  50.582  1.00  0.00    -0.083 N 
HETATM    6  N   UNL     1      26.117  45.552  51.675  1.00  0.00    -0.135 NA
HETATM    7  C   UNL     1      26.800  44.396  51.787  1.00  0.00     0.199 A 
HETATM    8  N   UNL     1      26.437  43.434  50.860  1.00  0.00    -0.041 NA
HETATM    9  C   UNL     1      24.406  46.261  50.018  1.00  0.00     0.202 A 
HETATM   10  C   UNL     1      23.511  45.625  48.952  1.00  0.00     0.062 A 
HETATM   11  H   UNL     1      24.852  42.622  48.838  1.00  0.00     0.184 HD
ENDROOT
BRANCH  10  12
HETATM   12  C   UNL     1      22.426  46.452  48.313  1.00  0.00     0.256 C 
HETATM   13  N   UNL     1      21.522  47.034  49.183  1.00  0.00    -0.323 N 
HETATM   14  H   UNL     1      21.698  47.000  50.173  1.00  0.00     0.169 HD
HETATM   15  O   UNL     1      22.414  46.603  47.095  1.00  0.00    -0.267 OA
BRANCH  13  16
HETATM   16  C   UNL     1      20.361  47.764  48.838  1.00  0.00     0.035 A 
HETATM   17  C   UNL     1      19.076  47.220  48.797  1.00  0.00     0.029 A 
HETATM   18  C   UNL     1      17.976  48.022  48.478  1.00  0.00     0.002 A 
HETATM   19  C   UNL     1      18.150  49.374  48.191  1.00  0.00     0.000 A 
HETATM   20  C   UNL     1      19.427  49.927  48.227  1.00  0.00     0.002 A 
HETATM   21  C   UNL     1      20.525  49.127  48.555  1.00  0.00     0.029 A 
ENDBRANCH  13  16
ENDBRANCH  10  12
BRANCH   9  22
HETATM   22  C   UNL     1      25.152  47.508  49.547  1.00  0.00    -0.028 A 
HETATM   23  C   UNL     1      24.473  48.639  49.061  1.00  0.00     0.012 A 
HETATM   24  C   UNL     1      25.182  49.755  48.608  1.00  0.00     0.037 A 
HETATM   25  C   UNL     1      26.572  49.739  48.628  1.00  0.00     0.065 A 
HETATM   26  C   UNL     1      27.265  48.629  49.092  1.00  0.00     0.037 A 
HETATM   27  C   UNL     1      26.559  47.515  49.546  1.00  0.00     0.012 A 
BRANCH  25  28
HETATM   28  O   UNL     1      27.302  50.802  48.185  1.00  0.00    -0.361 OA
HETATM   29  H   UNL     1      27.804  50.529  47.400  1.00  0.00     0.217 HD
ENDBRANCH  25  28
ENDBRANCH   9  22
BRANCH   7  30
HETATM   30  C   UNL     1      27.823  44.154  52.800  1.00  0.00     0.014 A 
HETATM   31  C   UNL     1      27.801  44.842  54.024  1.00  0.00     0.017 A 
HETATM   32  C   UNL     1      28.788  44.613  54.989  1.00  0.00     0.025 A 
HETATM   33  C   UNL     1      29.804  43.694  54.734  1.00  0.00     0.034 A 
HETATM   34 CL   UNL     1      31.019  43.414  55.919  1.00  0.00    -0.084 Cl
HETATM   35  C   UNL     1      29.840  43.002  53.526  1.00  0.00     0.025 A 
HETATM   36  C   UNL     1      28.853  43.232  52.562  1.00  0.00     0.017 A 
ENDBRANCH   7  30
TORSDOF 5
ENDMDL
MODEL 2
REMARK VINA RESULT:     -10.5      2.642      3.782
REMARK  5 active torsions:
REMARK  status: ('A' for Active; 'I' for Inactive)
REMARK    1  A    between atoms: C_7  and  C_8 
REMARK    2  A    between atoms: C_16  and  C_17 
REMARK    3  A    between atoms: C_20  and  O_21 
REMARK    4  A    between atoms: C_24  and  C_25 
REMARK       I    between atoms: C_25  and  N_26 
REMARK    5  A    between atoms: N_26  and  C_27 
ROOT
HETATM    1  C   UNL     1      26.239  40.735  48.752  1.00  0.00     0.070 C 
HETATM    2  C   UNL     1      26.376  41.805  49.811  1.00  0.00     0.037 A 
HETATM    3  N   UNL     1      27.535  41.726  50.578  1.00  0.00    -0.192 N 
HETATM    4  C   UNL     1      27.779  42.509  51.641  1.00  0.00     0.726 A 
HETATM    5  N   UNL     1      26.897  43.498  51.949  1.00  0.00    -0.083 N 
HETATM    6  N   UNL     1      27.215  44.103  53.111  1.00  0.00    -0.135 NA
HETATM    7  C   UNL     1      28.382  43.498  53.410  1.00  0.00     0.199 A 
HETATM    8  N   UNL     1      28.742  42.497  52.524  1.00  0.00    -0.041 NA
HETATM    9  C   UNL     1      25.680  43.784  51.183  1.00  0.00     0.202 A 
HETATM   10  C   UNL     1      25.448  42.771  50.060  1.00  0.00     0.062 A 
HETATM   11  H   UNL     1      28.182  40.968  50.377  1.00  0.00     0.184 HD
ENDROOT
BRANCH  10  12
HETATM   12  C   UNL     1      24.207  42.884  49.212  1.00  0.00     0.256 C 
HETATM   13  N   UNL     1      24.334  43.634  48.058  1.00  0.00    -0.323 N 
HETATM   14  H   UNL     1      25.247  43.944  47.768  1.00  0.00     0.169 HD
HETATM   15  O   UNL     1      23.184  42.294  49.548  1.00  0.00    -0.267 OA
BRANCH  13  16
HETATM   16  C   UNL     1      23.304  43.979  47.152  1.00  0.00     0.035 A 
HETATM   17  C   UNL     1      22.957  43.222  46.033  1.00  0.00     0.029 A 
HETATM   18  C   UNL     1      21.901  43.619  45.206  1.00  0.00     0.002 A 
HETATM   19  C   UNL     1      21.185  44.780  45.488  1.00  0.00     0.000 A 
HETATM   20  C   UNL     1      21.523  45.544  46.601  1.00  0.00     0.002 A 
HETATM   21  C   UNL     1      22.572  45.143  47.431  1.00  0.00     0.029 A 
ENDBRANCH  13  16
ENDBRANCH  10  12
BRANCH   9  22
HETATM   22  C   UNL     1      25.710  45.239  50.718  1.00  0.00    -0.028 A 
HETATM   23  C   UNL     1      24.645  46.121  50.974  1.00  0.00     0.012 A 
HETATM   24  C   UNL     1      24.685  47.439  50.511  1.00  0.00     0.037 A 
HETATM   25  C   UNL     1      25.783  47.875  49.779  1.00  0.00     0.065 A 
HETATM   26  C   UNL     1      26.841  47.020  49.503  1.00  0.00     0.037 A 
HETATM   27  C   UNL     1      26.804  45.704  49.966  1.00  0.00     0.012 A 
BRANCH  25  28
HETATM   28  O   UNL     1      25.857  49.150  49.299  1.00  0.00    -0.361 OA
HETATM   29  H   UNL     1      24.976  49.554  49.355  1.00  0.00     0.217 HD
ENDBRANCH  25  28
ENDBRANCH   9  22
BRANCH   7  30
HETATM   30  C   UNL     1      29.199  43.842  54.570  1.00  0.00     0.014 A 
HETATM   31  C   UNL     1      30.229  42.993  55.003  1.00  0.00     0.017 A 
HETATM   32  C   UNL     1      31.004  43.323  56.120  1.00  0.00     0.025 A 
HETATM   33  C   UNL     1      30.752  44.507  56.811  1.00  0.00     0.034 A 
HETATM   34 CL   UNL     1      31.703  44.912  58.186  1.00  0.00    -0.084 Cl
HETATM   35  C   UNL     1      29.734  45.361  56.394  1.00  0.00     0.025 A 
HETATM   36  C   UNL     1      28.960  45.030  55.278  1.00  0.00     0.017 A 
ENDBRANCH   7  30
TORSDOF 5
ENDMDL
MODEL 3
REMARK VINA RESULT:     -10.3      3.990      9.292
REMARK  5 active torsions:
REMARK  status: ('A' for Active; 'I' for Inactive)
REMARK    1  A    between atoms: C_7  and  C_8 
REMARK    2  A    between atoms: C_16  and  C_17 
REMARK    3  A    between atoms: C_20  and  O_21 
REMARK    4  A    between atoms: C_24  and  C_25 
REMARK       I    between atoms: C_25  and  N_26 
REMARK    5  A    between atoms: N_26  and  C_27 
ROOT
HETATM    1  C   UNL     1      27.475  48.978  49.141  1.00  0.00     0.070 C 
HETATM    2  C   UNL     1      25.987  48.710  49.146  1.00  0.00     0.037 A 
HETATM    3  N   UNL     1      25.224  49.630  48.432  1.00  0.00    -0.192 N 
HETATM    4  C   UNL     1      23.881  49.630  48.418  1.00  0.00     0.726 A 
HETATM    5  N   UNL     1      23.213  48.634  49.059  1.00  0.00    -0.083 N 
HETATM    6  N   UNL     1      21.883  48.851  49.063  1.00  0.00    -0.135 NA
HETATM    7  C   UNL     1      21.796  49.959  48.301  1.00  0.00     0.199 A 
HETATM    8  N   UNL     1      23.020  50.469  47.904  1.00  0.00    -0.041 NA
HETATM    9  C   UNL     1      23.866  47.530  49.770  1.00  0.00     0.202 A 
HETATM   10  C   UNL     1      25.388  47.683  49.811  1.00  0.00     0.062 A 
HETATM   11  H   UNL     1      25.713  50.398  47.980  1.00  0.00     0.184 HD
ENDROOT
BRANCH  10  12
HETATM   12  C   UNL     1      26.210  46.664  50.557  1.00  0.00     0.256 C 
HETATM   13  N   UNL     1      26.045  46.647  51.929  1.00  0.00    -0.323 N 
HETATM   14  H   UNL     1      25.310  47.194  52.346  1.00  0.00     0.169 HD
HETATM   15  O   UNL     1      26.935  45.894  49.935  1.00  0.00    -0.267 OA
BRANCH  13  16
HETATM   16  C   UNL     1      26.768  45.867  52.862  1.00  0.00     0.035 A 
HETATM   17  C   UNL     1      27.031  44.505  52.708  1.00  0.00     0.029 A 
HETATM   18  C   UNL     1      27.785  43.815  53.664  1.00  0.00     0.002 A 
HETATM   19  C   UNL     1      28.278  44.480  54.785  1.00  0.00     0.000 A 
HETATM   20  C   UNL     1      28.020  45.837  54.949  1.00  0.00     0.002 A 
HETATM   21  C   UNL     1      27.275  46.528  53.990  1.00  0.00     0.029 A 
ENDBRANCH  13  16
ENDBRANCH  10  12
BRANCH   9  22
HETATM   22  C   UNL     1      23.386  46.203  49.186  1.00  0.00    -0.028 A 
HETATM   23  C   UNL     1      22.867  46.111  47.882  1.00  0.00     0.012 A 
HETATM   24  C   UNL     1      22.407  44.889  47.383  1.00  0.00     0.037 A 
HETATM   25  C   UNL     1      22.452  43.758  48.191  1.00  0.00     0.065 A 
HETATM   26  C   UNL     1      22.949  43.826  49.485  1.00  0.00     0.037 A 
HETATM   27  C   UNL     1      23.411  45.045  49.984  1.00  0.00     0.012 A 
BRANCH  25  28
HETATM   28  O   UNL     1      22.003  42.549  47.747  1.00  0.00    -0.361 OA
HETATM   29  H   UNL     1      22.005  42.555  46.776  1.00  0.00     0.217 HD
ENDBRANCH  25  28
ENDBRANCH   9  22
BRANCH   7  30
HETATM   30  C   UNL     1      20.532  50.590  47.931  1.00  0.00     0.014 A 
HETATM   31  C   UNL     1      20.103  51.768  48.563  1.00  0.00     0.017 A 
HETATM   32  C   UNL     1      18.888  52.364  48.211  1.00  0.00     0.025 A 
HETATM   33  C   UNL     1      18.094  51.785  47.223  1.00  0.00     0.034 A 
HETATM   34 CL   UNL     1      16.599  52.517  46.791  1.00  0.00    -0.084 Cl
HETATM   35  C   UNL     1      18.505  50.617  46.585  1.00  0.00     0.025 A 
HETATM   36  C   UNL     1      19.720  50.021  46.939  1.00  0.00     0.017 A 
ENDBRANCH   7  30
TORSDOF 5
ENDMDL
MODEL 4
REMARK VINA RESULT:     -10.3      1.611      2.175
REMARK  5 active torsions:
REMARK  status: ('A' for Active; 'I' for Inactive)
REMARK    1  A    between atoms: C_7  and  C_8 
REMARK    2  A    between atoms: C_16  and  C_17 
REMARK    3  A    between atoms: C_20  and  O_21 
REMARK    4  A    between atoms: C_24  and  C_25 
REMARK       I    between atoms: C_25  and  N_26 
REMARK    5  A    between atoms: N_26  and  C_27 
ROOT
HETATM    1  C   UNL     1      24.628  42.232  48.819  1.00  0.00     0.070 C 
HETATM    2  C   UNL     1      25.053  43.371  49.717  1.00  0.00     0.037 A 
HETATM    3  N   UNL     1      26.056  43.055  50.630  1.00  0.00    -0.192 N 
HETATM    4  C   UNL     1      26.482  43.895  51.587  1.00  0.00     0.726 A 
HETATM    5  N   UNL     1      25.980  45.158  51.629  1.00  0.00    -0.083 N 
HETATM    6  N   UNL     1      26.407  45.826  52.719  1.00  0.00    -0.135 NA
HETATM    7  C   UNL     1      27.266  44.935  53.252  1.00  0.00     0.199 A 
HETATM    8  N   UNL     1      27.316  43.726  52.578  1.00  0.00    -0.041 NA
HETATM    9  C   UNL     1      24.997  45.685  50.678  1.00  0.00     0.202 A 
HETATM   10  C   UNL     1      24.505  44.619  49.697  1.00  0.00     0.062 A 
HETATM   11  H   UNL     1      26.411  42.103  50.628  1.00  0.00     0.184 HD
ENDROOT
BRANCH  10  12
HETATM   12  C   UNL     1      23.444  44.979  48.689  1.00  0.00     0.256 C 
HETATM   13  N   UNL     1      22.317  45.597  49.198  1.00  0.00    -0.323 N 
HETATM   14  H   UNL     1      22.310  45.898  50.158  1.00  0.00     0.169 HD
HETATM   15  O   UNL     1      23.635  44.753  47.498  1.00  0.00    -0.267 OA
BRANCH  13  16
HETATM   16  C   UNL     1      21.143  45.939  48.487  1.00  0.00     0.035 A 
HETATM   17  C   UNL     1      21.059  46.987  47.569  1.00  0.00     0.029 A 
HETATM   18  C   UNL     1      19.865  47.236  46.883  1.00  0.00     0.002 A 
HETATM   19  C   UNL     1      18.743  46.443  47.114  1.00  0.00     0.000 A 
HETATM   20  C   UNL     1      18.815  45.397  48.029  1.00  0.00     0.002 A 
HETATM   21  C   UNL     1      20.010  45.143  48.707  1.00  0.00     0.029 A 
ENDBRANCH  13  16
ENDBRANCH  10  12
BRANCH   9  22
HETATM   22  C   UNL     1      25.564  46.937  50.010  1.00  0.00    -0.028 A 
HETATM   23  C   UNL     1      24.741  48.013  49.631  1.00  0.00     0.012 A 
HETATM   24  C   UNL     1      25.282  49.133  48.995  1.00  0.00     0.037 A 
HETATM   25  C   UNL     1      26.644  49.176  48.722  1.00  0.00     0.065 A 
HETATM   26  C   UNL     1      27.474  48.121  49.075  1.00  0.00     0.037 A 
HETATM   27  C   UNL     1      26.937  47.002  49.713  1.00  0.00     0.012 A 
BRANCH  25  28
HETATM   28  O   UNL     1      27.210  50.245  48.093  1.00  0.00    -0.361 OA
HETATM   29  H   UNL     1      28.096  50.390  48.464  1.00  0.00     0.217 HD
ENDBRANCH  25  28
ENDBRANCH   9  22
BRANCH   7  30
HETATM   30  C   UNL     1      28.068  45.196  54.444  1.00  0.00     0.014 A 
HETATM   31  C   UNL     1      27.699  46.199  55.355  1.00  0.00     0.017 A 
HETATM   32  C   UNL     1      28.475  46.451  56.491  1.00  0.00     0.025 A 
HETATM   33  C   UNL     1      29.625  45.700  56.723  1.00  0.00     0.034 A 
HETATM   34 CL   UNL     1      30.581  46.012  58.119  1.00  0.00    -0.084 Cl
HETATM   35  C   UNL     1      30.005  44.701  55.831  1.00  0.00     0.025 A 
HETATM   36  C   UNL     1      29.230  44.451  54.695  1.00  0.00     0.017 A 
ENDBRANCH   7  30
TORSDOF 5
ENDMDL
MODEL 5
REMARK VINA RESULT:      -9.9      4.652      9.361
REMARK  5 active torsions:
REMARK  status: ('A' for Active; 'I' for Inactive)
REMARK    1  A    between atoms: C_7  and  C_8 
REMARK    2  A    between atoms: C_16  and  C_17 
REMARK    3  A    between atoms: C_20  and  O_21 
REMARK    4  A    between atoms: C_24  and  C_25 
REMARK       I    between atoms: C_25  and  N_26 
REMARK    5  A    between atoms: N_26  and  C_27 
ROOT
HETATM    1  C   UNL     1      25.925  47.132  52.862  1.00  0.00     0.070 C 
HETATM    2  C   UNL     1      25.468  45.923  52.078  1.00  0.00     0.037 A 
HETATM    3  N   UNL     1      24.706  46.211  50.949  1.00  0.00    -0.192 N 
HETATM    4  C   UNL     1      24.111  45.273  50.194  1.00  0.00     0.726 A 
HETATM    5  N   UNL     1      24.324  43.961  50.482  1.00  0.00    -0.083 N 
HETATM    6  N   UNL     1      23.556  43.155  49.721  1.00  0.00    -0.135 NA
HETATM    7  C   UNL     1      22.969  44.050  48.902  1.00  0.00     0.199 A 
HETATM    8  N   UNL     1      23.285  45.368  49.186  1.00  0.00    -0.041 NA
HETATM    9  C   UNL     1      25.182  43.486  51.571  1.00  0.00     0.202 A 
HETATM   10  C   UNL     1      25.725  44.632  52.427  1.00  0.00     0.062 A 
HETATM   11  H   UNL     1      24.514  47.189  50.747  1.00  0.00     0.184 HD
ENDROOT
BRANCH  10  12
HETATM   12  C   UNL     1      26.577  44.313  53.628  1.00  0.00     0.256 C 
HETATM   13  N   UNL     1      27.910  44.667  53.531  1.00  0.00    -0.323 N 
HETATM   14  H   UNL     1      28.216  45.228  52.753  1.00  0.00     0.169 HD
HETATM   15  O   UNL     1      26.064  43.808  54.622  1.00  0.00    -0.267 OA
BRANCH  13  16
HETATM   16  C   UNL     1      28.933  44.387  54.465  1.00  0.00     0.035 A 
HETATM   17  C   UNL     1      29.656  43.193  54.503  1.00  0.00     0.029 A 
HETATM   18  C   UNL     1      30.677  43.011  55.441  1.00  0.00     0.002 A 
HETATM   19  C   UNL     1      30.982  44.018  56.354  1.00  0.00     0.000 A 
HETATM   20  C   UNL     1      30.268  45.212  56.326  1.00  0.00     0.002 A 
HETATM   21  C   UNL     1      29.254  45.397  55.384  1.00  0.00     0.029 A 
ENDBRANCH  13  16
ENDBRANCH  10  12
BRANCH   9  22
HETATM   22  C   UNL     1      26.260  42.567  50.997  1.00  0.00    -0.028 A 
HETATM   23  C   UNL     1      26.606  42.591  49.634  1.00  0.00     0.012 A 
HETATM   24  C   UNL     1      27.575  41.720  49.131  1.00  0.00     0.037 A 
HETATM   25  C   UNL     1      28.191  40.811  49.984  1.00  0.00     0.065 A 
HETATM   26  C   UNL     1      27.857  40.760  51.330  1.00  0.00     0.037 A 
HETATM   27  C   UNL     1      26.892  41.632  51.836  1.00  0.00     0.012 A 
BRANCH  25  28
HETATM   28  O   UNL     1      29.133  39.936  49.531  1.00  0.00    -0.361 OA
HETATM   29  H   UNL     1      30.011  40.283  49.754  1.00  0.00     0.217 HD
ENDBRANCH  25  28
ENDBRANCH   9  22
BRANCH   7  30
HETATM   30  C   UNL     1      22.065  43.683  47.815  1.00  0.00     0.014 A 
HETATM   31  C   UNL     1      22.265  42.504  47.079  1.00  0.00     0.017 A 
HETATM   32  C   UNL     1      21.400  42.161  46.035  1.00  0.00     0.025 A 
HETATM   33  C   UNL     1      20.329  42.995  45.721  1.00  0.00     0.034 A 
HETATM   34 CL   UNL     1      19.268  42.573  44.435  1.00  0.00    -0.084 Cl
HETATM   35  C   UNL     1      20.115  44.167  46.442  1.00  0.00     0.025 A 
HETATM   36  C   UNL     1      20.981  44.510  47.485  1.00  0.00     0.017 A 
ENDBRANCH   7  30
TORSDOF 5
ENDMDL
MODEL 6
REMARK VINA RESULT:      -9.7      5.278      8.586
REMARK  5 active torsions:
REMARK  status: ('A' for Active; 'I' for Inactive)
REMARK    1  A    between atoms: C_7  and  C_8 
REMARK    2  A    between atoms: C_16  and  C_17 
REMARK    3  A    between atoms: C_20  and  O_21 
REMARK    4  A    between atoms: C_24  and  C_25 
REMARK       I    between atoms: C_25  and  N_26 
REMARK    5  A    between atoms: N_26  and  C_27 
ROOT
HETATM    1  C   UNL     1      17.011  52.846  49.956  1.00  0.00     0.070 C 
HETATM    2  C   UNL     1      17.955  51.873  49.286  1.00  0.00     0.037 A 
HETATM    3  N   UNL     1      19.192  51.733  49.910  1.00  0.00    -0.192 N 
HETATM    4  C   UNL     1      20.203  51.010  49.402  1.00  0.00     0.726 A 
HETATM    5  N   UNL     1      19.998  50.299  48.261  1.00  0.00    -0.083 N 
HETATM    6  N   UNL     1      21.140  49.739  47.813  1.00  0.00    -0.135 NA
HETATM    7  C   UNL     1      21.996  50.064  48.803  1.00  0.00     0.199 A 
HETATM    8  N   UNL     1      21.442  50.864  49.788  1.00  0.00    -0.041 NA
HETATM    9  C   UNL     1      18.725  50.253  47.536  1.00  0.00     0.202 A 
HETATM   10  C   UNL     1      17.677  51.190  48.141  1.00  0.00     0.062 A 
HETATM   11  H   UNL     1      19.364  52.288  50.743  1.00  0.00     0.184 HD
ENDROOT
BRANCH  10  12
HETATM   12  C   UNL     1      16.328  51.310  47.480  1.00  0.00     0.256 C 
HETATM   13  N   UNL     1      16.175  52.377  46.615  1.00  0.00    -0.323 N 
HETATM   14  H   UNL     1      16.980  52.928  46.363  1.00  0.00     0.169 HD
HETATM   15  O   UNL     1      15.466  50.463  47.697  1.00  0.00    -0.267 OA
BRANCH  13  16
HETATM   16  C   UNL     1      14.989  52.772  45.955  1.00  0.00     0.035 A 
HETATM   17  C   UNL     1      14.489  52.157  44.806  1.00  0.00     0.029 A 
HETATM   18  C   UNL     1      13.287  52.590  44.235  1.00  0.00     0.002 A 
HETATM   19  C   UNL     1      12.578  53.645  44.804  1.00  0.00     0.000 A 
HETATM   20  C   UNL     1      13.067  54.267  45.948  1.00  0.00     0.002 A 
HETATM   21  C   UNL     1      14.263  53.829  46.524  1.00  0.00     0.029 A 
ENDBRANCH  13  16
ENDBRANCH  10  12
BRANCH   9  22
HETATM   22  C   UNL     1      18.269  48.801  47.411  1.00  0.00    -0.028 A 
HETATM   23  C   UNL     1      17.885  48.045  48.533  1.00  0.00     0.012 A 
HETATM   24  C   UNL     1      17.501  46.709  48.394  1.00  0.00     0.037 A 
HETATM   25  C   UNL     1      17.513  46.119  47.135  1.00  0.00     0.065 A 
HETATM   26  C   UNL     1      17.900  46.841  46.015  1.00  0.00     0.037 A 
HETATM   27  C   UNL     1      18.281  48.176  46.151  1.00  0.00     0.012 A 
BRANCH  25  28
HETATM   28  O   UNL     1      17.156  44.815  46.958  1.00  0.00    -0.361 OA
HETATM   29  H   UNL     1      17.959  44.270  46.967  1.00  0.00     0.217 HD
ENDBRANCH  25  28
ENDBRANCH   9  22
BRANCH   7  30
HETATM   30  C   UNL     1      23.391  49.633  48.841  1.00  0.00     0.014 A 
HETATM   31  C   UNL     1      23.775  48.504  49.583  1.00  0.00     0.017 A 
HETATM   32  C   UNL     1      25.114  48.100  49.623  1.00  0.00     0.025 A 
HETATM   33  C   UNL     1      26.076  48.823  48.920  1.00  0.00     0.034 A 
HETATM   34 CL   UNL     1      27.723  48.328  48.972  1.00  0.00    -0.084 Cl
HETATM   35  C   UNL     1      25.711  49.945  48.179  1.00  0.00     0.025 A 
HETATM   36  C   UNL     1      24.373  50.348  48.140  1.00  0.00     0.017 A 
ENDBRANCH   7  30
TORSDOF 5
ENDMDL
MODEL 7
REMARK VINA RESULT:      -9.6      4.012      8.628
REMARK  5 active torsions:
REMARK  status: ('A' for Active; 'I' for Inactive)
REMARK    1  A    between atoms: C_7  and  C_8 
REMARK    2  A    between atoms: C_16  and  C_17 
REMARK    3  A    between atoms: C_20  and  O_21 
REMARK    4  A    between atoms: C_24  and  C_25 
REMARK       I    between atoms: C_25  and  N_26 
REMARK    5  A    between atoms: N_26  and  C_27 
ROOT
HETATM    1  C   UNL     1      23.620  41.836  48.450  1.00  0.00     0.070 C 
HETATM    2  C   UNL     1      23.736  43.299  48.814  1.00  0.00     0.037 A 
HETATM    3  N   UNL     1      22.582  44.048  48.603  1.00  0.00    -0.192 N 
HETATM    4  C   UNL     1      22.523  45.382  48.752  1.00  0.00     0.726 A 
HETATM    5  N   UNL     1      23.616  46.043  49.218  1.00  0.00    -0.083 N 
HETATM    6  N   UNL     1      23.440  47.379  49.184  1.00  0.00    -0.135 NA
HETATM    7  C   UNL     1      22.156  47.463  48.782  1.00  0.00     0.199 A 
HETATM    8  N   UNL     1      21.573  46.241  48.493  1.00  0.00    -0.041 NA
HETATM    9  C   UNL     1      24.877  45.392  49.587  1.00  0.00     0.202 A 
HETATM   10  C   UNL     1      24.869  43.893  49.282  1.00  0.00     0.062 A 
HETATM   11  H   UNL     1      21.771  43.567  48.222  1.00  0.00     0.184 HD
ENDROOT
BRANCH  10  12
HETATM   12  C   UNL     1      26.112  43.082  49.546  1.00  0.00     0.256 C 
HETATM   13  N   UNL     1      26.031  42.181  50.591  1.00  0.00    -0.323 N 
HETATM   14  H   UNL     1      25.140  42.008  51.027  1.00  0.00     0.169 HD
HETATM   15  O   UNL     1      27.094  43.220  48.823  1.00  0.00    -0.267 OA
BRANCH  13  16
HETATM   16  C   UNL     1      27.078  41.383  51.107  1.00  0.00     0.035 A 
HETATM   17  C   UNL     1      27.641  40.297  50.435  1.00  0.00     0.029 A 
HETATM   18  C   UNL     1      28.699  39.580  51.005  1.00  0.00     0.002 A 
HETATM   19  C   UNL     1      29.201  39.940  52.253  1.00  0.00     0.000 A 
HETATM   20  C   UNL     1      28.647  41.021  52.933  1.00  0.00     0.002 A 
HETATM   21  C   UNL     1      27.596  41.742  52.360  1.00  0.00     0.029 A 
ENDBRANCH  13  16
ENDBRANCH  10  12
BRANCH   9  22
HETATM   22  C   UNL     1      25.212  45.734  51.038  1.00  0.00    -0.028 A 
HETATM   23  C   UNL     1      24.752  44.950  52.110  1.00  0.00     0.012 A 
HETATM   24  C   UNL     1      25.050  45.302  53.429  1.00  0.00     0.037 A 
HETATM   25  C   UNL     1      25.796  46.448  53.682  1.00  0.00     0.065 A 
HETATM   26  C   UNL     1      26.251  47.245  52.640  1.00  0.00     0.037 A 
HETATM   27  C   UNL     1      25.957  46.893  51.322  1.00  0.00     0.012 A 
BRANCH  25  28
HETATM   28  O   UNL     1      26.098  46.834  54.954  1.00  0.00    -0.361 OA
HETATM   29  H   UNL     1      26.506  46.084  55.417  1.00  0.00     0.217 HD
ENDBRANCH  25  28
ENDBRANCH   9  22
BRANCH   7  30
HETATM   30  C   UNL     1      21.432  48.724  48.643  1.00  0.00     0.014 A 
HETATM   31  C   UNL     1      21.967  49.921  49.146  1.00  0.00     0.017 A 
HETATM   32  C   UNL     1      21.266  51.124  49.017  1.00  0.00     0.025 A 
HETATM   33  C   UNL     1      20.026  51.138  48.382  1.00  0.00     0.034 A 
HETATM   34 CL   UNL     1      19.163  52.618  48.225  1.00  0.00    -0.084 Cl
HETATM   35  C   UNL     1      19.482  49.960  47.876  1.00  0.00     0.025 A 
HETATM   36  C   UNL     1      20.182  48.757  48.006  1.00  0.00     0.017 A 
ENDBRANCH   7  30
TORSDOF 5
ENDMDL
MODEL 8
REMARK VINA RESULT:      -9.3     19.821     21.891
REMARK  5 active torsions:
REMARK  status: ('A' for Active; 'I' for Inactive)
REMARK    1  A    between atoms: C_7  and  C_8 
REMARK    2  A    between atoms: C_16  and  C_17 
REMARK    3  A    between atoms: C_20  and  O_21 
REMARK    4  A    between atoms: C_24  and  C_25 
REMARK       I    between atoms: C_25  and  N_26 
REMARK    5  A    between atoms: N_26  and  C_27 
ROOT
HETATM    1  C   UNL     1      35.071  43.380  66.080  1.00  0.00     0.070 C 
HETATM    2  C   UNL     1      36.021  44.547  65.934  1.00  0.00     0.037 A 
HETATM    3  N   UNL     1      35.724  45.648  66.733  1.00  0.00    -0.192 N 
HETATM    4  C   UNL     1      36.377  46.819  66.658  1.00  0.00     0.726 A 
HETATM    5  N   UNL     1      37.446  46.927  65.824  1.00  0.00    -0.083 N 
HETATM    6  N   UNL     1      37.904  48.194  65.767  1.00  0.00    -0.135 NA
HETATM    7  C   UNL     1      37.126  48.796  66.687  1.00  0.00     0.199 A 
HETATM    8  N   UNL     1      36.162  47.969  67.240  1.00  0.00    -0.041 NA
HETATM    9  C   UNL     1      37.955  45.833  64.992  1.00  0.00     0.202 A 
HETATM   10  C   UNL     1      37.079  44.581  65.077  1.00  0.00     0.062 A 
HETATM   11  H   UNL     1      34.906  45.587  67.333  1.00  0.00     0.184 HD
ENDROOT
BRANCH  10  12
HETATM   12  C   UNL     1      37.428  43.381  64.234  1.00  0.00     0.256 C 
HETATM   13  N   UNL     1      38.164  42.397  64.866  1.00  0.00    -0.323 N 
HETATM   14  H   UNL     1      38.312  42.452  65.861  1.00  0.00     0.169 HD
HETATM   15  O   UNL     1      37.024  43.311  63.078  1.00  0.00    -0.267 OA
BRANCH  13  16
HETATM   16  C   UNL     1      38.705  41.230  64.277  1.00  0.00     0.035 A 
HETATM   17  C   UNL     1      38.977  41.094  62.915  1.00  0.00     0.029 A 
HETATM   18  C   UNL     1      39.545  39.915  62.419  1.00  0.00     0.002 A 
HETATM   19  C   UNL     1      39.840  38.861  63.279  1.00  0.00     0.000 A 
HETATM   20  C   UNL     1      39.572  38.985  64.639  1.00  0.00     0.002 A 
HETATM   21  C   UNL     1      39.013  40.166  65.136  1.00  0.00     0.029 A 
ENDBRANCH  13  16
ENDBRANCH  10  12
BRANCH   9  22
HETATM   22  C   UNL     1      39.426  45.591  65.325  1.00  0.00    -0.028 A 
HETATM   23  C   UNL     1      39.855  45.321  66.637  1.00  0.00     0.012 A 
HETATM   24  C   UNL     1      41.211  45.133  66.919  1.00  0.00     0.037 A 
HETATM   25  C   UNL     1      42.144  45.228  65.893  1.00  0.00     0.065 A 
HETATM   26  C   UNL     1      41.747  45.506  64.592  1.00  0.00     0.037 A 
HETATM   27  C   UNL     1      40.393  45.692  64.308  1.00  0.00     0.012 A 
BRANCH  25  28
HETATM   28  O   UNL     1      43.477  45.063  66.127  1.00  0.00    -0.361 OA
HETATM   29  H   UNL     1      43.963  45.763  65.661  1.00  0.00     0.217 HD
ENDBRANCH  25  28
ENDBRANCH   9  22
BRANCH   7  30
HETATM   30  C   UNL     1      37.260  50.199  67.068  1.00  0.00     0.014 A 
HETATM   31  C   UNL     1      37.731  51.152  66.151  1.00  0.00     0.017 A 
HETATM   32  C   UNL     1      37.865  52.494  66.524  1.00  0.00     0.025 A 
HETATM   33  C   UNL     1      37.529  52.890  67.816  1.00  0.00     0.034 A 
HETATM   34 CL   UNL     1      37.697  54.539  68.275  1.00  0.00    -0.084 Cl
HETATM   35  C   UNL     1      37.060  51.958  68.738  1.00  0.00     0.025 A 
HETATM   36  C   UNL     1      36.926  50.617  68.365  1.00  0.00     0.017 A 
ENDBRANCH   7  30
TORSDOF 5
ENDMDL
MODEL 9
REMARK VINA RESULT:      -9.3      5.493      7.954
REMARK  5 active torsions:
REMARK  status: ('A' for Active; 'I' for Inactive)
REMARK    1  A    between atoms: C_7  and  C_8 
REMARK    2  A    between atoms: C_16  and  C_17 
REMARK    3  A    between atoms: C_20  and  O_21 
REMARK    4  A    between atoms: C_24  and  C_25 
REMARK       I    between atoms: C_25  and  N_26 
REMARK    5  A    between atoms: N_26  and  C_27 
ROOT
HETATM    1  C   UNL     1      23.774  41.792  48.931  1.00  0.00     0.070 C 
HETATM    2  C   UNL     1      25.140  41.884  49.571  1.00  0.00     0.037 A 
HETATM    3  N   UNL     1      25.158  42.467  50.836  1.00  0.00    -0.192 N 
HETATM    4  C   UNL     1      26.284  42.744  51.512  1.00  0.00     0.726 A 
HETATM    5  N   UNL     1      27.480  42.363  50.987  1.00  0.00    -0.083 N 
HETATM    6  N   UNL     1      28.513  42.829  51.717  1.00  0.00    -0.135 NA
HETATM    7  C   UNL     1      27.866  43.404  52.750  1.00  0.00     0.199 A 
HETATM    8  N   UNL     1      26.486  43.378  52.636  1.00  0.00    -0.041 NA
HETATM    9  C   UNL     1      27.631  41.647  49.717  1.00  0.00     0.202 A 
HETATM   10  C   UNL     1      26.299  41.475  48.984  1.00  0.00     0.062 A 
HETATM   11  H   UNL     1      24.272  42.786  51.219  1.00  0.00     0.184 HD
ENDROOT
BRANCH  10  12
HETATM   12  C   UNL     1      26.285  40.811  47.630  1.00  0.00     0.256 C 
HETATM   13  N   UNL     1      27.054  41.418  46.655  1.00  0.00    -0.323 N 
HETATM   14  H   UNL     1      27.679  42.165  46.912  1.00  0.00     0.169 HD
HETATM   15  O   UNL     1      25.647  39.776  47.467  1.00  0.00    -0.267 OA
BRANCH  13  16
HETATM   16  C   UNL     1      27.130  41.060  45.289  1.00  0.00     0.035 A 
HETATM   17  C   UNL     1      26.053  41.112  44.404  1.00  0.00     0.029 A 
HETATM   18  C   UNL     1      26.223  40.773  43.057  1.00  0.00     0.002 A 
HETATM   19  C   UNL     1      27.471  40.373  42.585  1.00  0.00     0.000 A 
HETATM   20  C   UNL     1      28.552  40.316  43.459  1.00  0.00     0.002 A 
HETATM   21  C   UNL     1      28.384  40.663  44.802  1.00  0.00     0.029 A 
ENDBRANCH  13  16
ENDBRANCH  10  12
BRANCH   9  22
HETATM   22  C   UNL     1      28.384  40.340  49.963  1.00  0.00    -0.028 A 
HETATM   23  C   UNL     1      28.828  39.529  48.904  1.00  0.00     0.012 A 
HETATM   24  C   UNL     1      29.488  38.324  49.158  1.00  0.00     0.037 A 
HETATM   25  C   UNL     1      29.695  37.919  50.472  1.00  0.00     0.065 A 
HETATM   26  C   UNL     1      29.255  38.697  51.534  1.00  0.00     0.037 A 
HETATM   27  C   UNL     1      28.598  39.901  51.283  1.00  0.00     0.012 A 
BRANCH  25  28
HETATM   28  O   UNL     1      30.325  36.745  50.763  1.00  0.00    -0.361 OA
HETATM   29  H   UNL     1      29.965  36.398  51.595  1.00  0.00     0.217 HD
ENDBRANCH  25  28
ENDBRANCH   9  22
BRANCH   7  30
HETATM   30  C   UNL     1      28.542  44.020  53.888  1.00  0.00     0.014 A 
HETATM   31  C   UNL     1      29.705  43.448  54.429  1.00  0.00     0.017 A 
HETATM   32  C   UNL     1      30.345  44.038  55.525  1.00  0.00     0.025 A 
HETATM   33  C   UNL     1      29.826  45.202  56.085  1.00  0.00     0.034 A 
HETATM   34 CL   UNL     1      30.611  45.925  57.434  1.00  0.00    -0.084 Cl
HETATM   35  C   UNL     1      28.674  45.783  55.560  1.00  0.00     0.025 A 
HETATM   36  C   UNL     1      28.034  45.193  54.466  1.00  0.00     0.017 A 
ENDBRANCH   7  30
TORSDOF 5
ENDMDL
MODEL 10
REMARK VINA RESULT:      -8.9      4.358      8.758
REMARK  5 active torsions:
REMARK  status: ('A' for Active; 'I' for Inactive)
REMARK    1  A    between atoms: C_7  and  C_8 
REMARK    2  A    between atoms: C_16  and  C_17 
REMARK    3  A    between atoms: C_20  and  O_21 
REMARK    4  A    between atoms: C_24  and  C_25 
REMARK       I    between atoms: C_25  and  N_26 
REMARK    5  A    between atoms: N_26  and  C_27 
ROOT
HETATM    1  C   UNL     1      22.997  40.391  47.551  1.00  0.00     0.070 C 
HETATM    2  C   UNL     1      23.396  41.779  47.997  1.00  0.00     0.037 A 
HETATM    3  N   UNL     1      22.353  42.701  48.048  1.00  0.00    -0.192 N 
HETATM    4  C   UNL     1      22.528  44.008  48.304  1.00  0.00     0.726 A 
HETATM    5  N   UNL     1      23.771  44.459  48.619  1.00  0.00    -0.083 N 
HETATM    6  N   UNL     1      23.801  45.803  48.717  1.00  0.00    -0.135 NA
HETATM    7  C   UNL     1      22.499  46.107  48.554  1.00  0.00     0.199 A 
HETATM    8  N   UNL     1      21.694  45.014  48.281  1.00  0.00    -0.041 NA
HETATM    9  C   UNL     1      24.958  43.604  48.713  1.00  0.00     0.202 A 
HETATM   10  C   UNL     1      24.668  42.159  48.303  1.00  0.00     0.062 A 
HETATM   11  H   UNL     1      21.427  42.380  47.780  1.00  0.00     0.184 HD
ENDROOT
BRANCH  10  12
HETATM   12  C   UNL     1      25.796  41.159  48.283  1.00  0.00     0.256 C 
HETATM   13  N   UNL     1      25.857  40.301  49.366  1.00  0.00    -0.323 N 
HETATM   14  H   UNL     1      25.097  40.283  50.026  1.00  0.00     0.169 HD
HETATM   15  O   UNL     1      26.561  41.122  47.325  1.00  0.00    -0.267 OA
BRANCH  13  16
HETATM   16  C   UNL     1      26.867  39.350  49.639  1.00  0.00     0.035 A 
HETATM   17  C   UNL     1      26.762  37.988  49.351  1.00  0.00     0.029 A 
HETATM   18  C   UNL     1      27.825  37.120  49.624  1.00  0.00     0.002 A 
HETATM   19  C   UNL     1      29.000  37.605  50.193  1.00  0.00     0.000 A 
HETATM   20  C   UNL     1      29.116  38.960  50.487  1.00  0.00     0.002 A 
HETATM   21  C   UNL     1      28.058  39.829  50.206  1.00  0.00     0.029 A 
ENDBRANCH  13  16
ENDBRANCH  10  12
BRANCH   9  22
HETATM   22  C   UNL     1      25.573  43.749  50.104  1.00  0.00    -0.028 A 
HETATM   23  C   UNL     1      24.789  43.702  51.270  1.00  0.00     0.012 A 
HETATM   24  C   UNL     1      25.374  43.867  52.528  1.00  0.00     0.037 A 
HETATM   25  C   UNL     1      26.743  44.093  52.624  1.00  0.00     0.065 A 
HETATM   26  C   UNL     1      27.535  44.156  51.487  1.00  0.00     0.037 A 
HETATM   27  C   UNL     1      26.954  43.989  50.230  1.00  0.00     0.012 A 
BRANCH  25  28
HETATM   28  O   UNL     1      27.351  44.271  53.832  1.00  0.00    -0.361 OA
HETATM   29  H   UNL     1      28.274  44.527  53.679  1.00  0.00     0.217 HD
ENDBRANCH  25  28
ENDBRANCH   9  22
BRANCH   7  30
HETATM   30  C   UNL     1      21.967  47.464  48.637  1.00  0.00     0.014 A 
HETATM   31  C   UNL     1      20.595  47.712  48.468  1.00  0.00     0.017 A 
HETATM   32  C   UNL     1      20.091  49.015  48.541  1.00  0.00     0.025 A 
HETATM   33  C   UNL     1      20.958  50.078  48.784  1.00  0.00     0.034 A 
HETATM   34 CL   UNL     1      20.339  51.681  48.871  1.00  0.00    -0.084 Cl
HETATM   35  C   UNL     1      22.321  49.851  48.955  1.00  0.00     0.025 A 
HETATM   36  C   UNL     1      22.824  48.548  48.881  1.00  0.00     0.017 A 
ENDBRANCH   7  30
TORSDOF 5
ENDMDL
