MODEL 1
REMARK VINA RESULT:      -9.4      0.000      0.000
REMARK  8 active torsions:
REMARK  status: ('A' for Active; 'I' for Inactive)
REMARK    1  A    between atoms: C_4  and  N_5 
REMARK       I    between atoms: N_5  and  C_6 
REMARK    2  A    between atoms: C_6  and  C_7 
REMARK    3  A    between atoms: C_7  and  N_8 
REMARK    4  A    between atoms: C_7  and  C_24 
REMARK    5  A    between atoms: N_8  and  C_11 
REMARK    6  A    between atoms: C_11  and  C_12 
REMARK    7  A    between atoms: C_15  and  N_16 
REMARK    8  A    between atoms: C_31  and  O_32 
ROOT
HETATM    1  C   UNL     1      26.776  43.504  50.886  1.00  0.00     0.310 C 
ENDROOT
BRANCH   1   2
HETATM    2  C   UNL     1      25.647  43.391  51.940  1.00  0.00     0.257 C 
HETATM    3  N   UNL     1      25.858  43.609  53.267  1.00  0.00    -0.323 N 
HETATM    4  H   UNL     1      25.149  43.195  53.872  1.00  0.00     0.169 HD
HETATM    5  O   UNL     1      24.521  43.053  51.547  1.00  0.00    -0.270 OA
BRANCH   3   6
HETATM    6  C   UNL     1      26.988  44.089  53.962  1.00  0.00     0.069 A 
HETATM    7  C   UNL     1      28.164  43.347  54.115  1.00  0.00     0.039 A 
HETATM    8  C   UNL     1      29.253  43.875  54.822  1.00  0.00    -0.060 A 
HETATM    9  C   UNL     1      30.501  43.063  55.015  1.00  0.00     0.048 C 
HETATM   10  C   UNL     1      29.148  45.152  55.379  1.00  0.00     0.009 A 
HETATM   11  C   UNL     1      27.996  45.919  55.191  1.00  0.00     0.039 A 
HETATM   12  C   UNL     1      26.917  45.400  54.474  1.00  0.00     0.095 A 
BRANCH  12  13
HETATM   13  O   UNL     1      25.733  46.058  54.242  1.00  0.00    -0.354 OA
HETATM   14  C   UNL     1      25.768  47.140  53.316  1.00  0.00     0.210 C 
ENDBRANCH  12  13
ENDBRANCH   3   6
ENDBRANCH   1   2
BRANCH   1  15
HETATM   15  N   UNL     1      26.355  44.479  49.788  1.00  0.00    -0.054 N 
HETATM   16  H   UNL     1      26.773  44.125  48.914  1.00  0.00     0.278 HD
HETATM   17  H   UNL     1      25.339  44.451  49.670  1.00  0.00     0.278 HD
BRANCH  15  18
HETATM   18  C   UNL     1      26.802  45.895  49.913  1.00  0.00     0.272 C 
BRANCH  18  19
HETATM   19  C   UNL     1      25.661  46.834  49.636  1.00  0.00    -0.033 A 
HETATM   20  C   UNL     1      24.351  46.348  49.567  1.00  0.00     0.011 A 
HETATM   21  C   UNL     1      23.285  47.206  49.278  1.00  0.00     0.030 A 
HETATM   22  C   UNL     1      23.487  48.574  49.069  1.00  0.00     0.037 A 
HETATM   23  C   UNL     1      24.800  49.057  49.161  1.00  0.00     0.030 A 
HETATM   24  C   UNL     1      25.877  48.200  49.429  1.00  0.00     0.011 A 
BRANCH  22  25
HETATM   25  N   UNL     1      22.403  49.446  48.790  1.00  0.00    -0.318 N 
HETATM   26  C   UNL     1      22.145  50.673  49.426  1.00  0.00     0.224 C 
HETATM   27  O   UNL     1      22.768  51.216  50.324  1.00  0.00    -0.273 OA
HETATM   28  C   UNL     1      20.850  51.217  48.867  1.00  0.00     0.105 C 
HETATM   29  C   UNL     1      20.684  50.444  47.573  1.00  0.00     0.029 C 
HETATM   30  C   UNL     1      21.337  49.112  47.875  1.00  0.00     0.133 C 
ENDBRANCH  22  25
ENDBRANCH  18  19
ENDBRANCH  15  18
ENDBRANCH   1  15
BRANCH   1  31
HETATM   31  C   UNL     1      27.271  42.190  50.310  1.00  0.00    -0.019 A 
HETATM   32  C   UNL     1      27.895  41.254  51.153  1.00  0.00     0.010 A 
HETATM   33  C   UNL     1      28.393  40.056  50.636  1.00  0.00     0.001 A 
HETATM   34  C   UNL     1      28.283  39.780  49.276  1.00  0.00     0.000 A 
HETATM   35  C   UNL     1      27.677  40.700  48.426  1.00  0.00     0.001 A 
HETATM   36  C   UNL     1      27.178  41.900  48.935  1.00  0.00     0.010 A 
ENDBRANCH   1  31
TORSDOF 8
ENDMDL
MODEL 2
REMARK VINA RESULT:      -9.3      2.447      8.652
REMARK  8 active torsions:
REMARK  status: ('A' for Active; 'I' for Inactive)
REMARK    1  A    between atoms: C_4  and  N_5 
REMARK       I    between atoms: N_5  and  C_6 
REMARK    2  A    between atoms: C_6  and  C_7 
REMARK    3  A    between atoms: C_7  and  N_8 
REMARK    4  A    between atoms: C_7  and  C_24 
REMARK    5  A    between atoms: N_8  and  C_11 
REMARK    6  A    between atoms: C_11  and  C_12 
REMARK    7  A    between atoms: C_15  and  N_16 
REMARK    8  A    between atoms: C_31  and  O_32 
ROOT
HETATM    1  C   UNL     1      25.225  47.021  50.848  1.00  0.00     0.310 C 
ENDROOT
BRANCH   1   2
HETATM    2  C   UNL     1      25.462  47.933  49.620  1.00  0.00     0.257 C 
HETATM    3  N   UNL     1      24.483  48.220  48.718  1.00  0.00    -0.323 N 
HETATM    4  H   UNL     1      24.833  48.540  47.815  1.00  0.00     0.169 HD
HETATM    5  O   UNL     1      26.604  48.383  49.445  1.00  0.00    -0.270 OA
BRANCH   3   6
HETATM    6  C   UNL     1      23.102  47.930  48.722  1.00  0.00     0.069 A 
HETATM    7  C   UNL     1      22.577  46.701  48.309  1.00  0.00     0.039 A 
HETATM    8  C   UNL     1      21.195  46.474  48.330  1.00  0.00    -0.060 A 
HETATM    9  C   UNL     1      20.630  45.167  47.853  1.00  0.00     0.048 C 
HETATM   10  C   UNL     1      20.344  47.493  48.764  1.00  0.00     0.009 A 
HETATM   11  C   UNL     1      20.862  48.707  49.223  1.00  0.00     0.039 A 
HETATM   12  C   UNL     1      22.240  48.928  49.217  1.00  0.00     0.095 A 
BRANCH  12  13
HETATM   13  O   UNL     1      22.856  50.085  49.630  1.00  0.00    -0.354 OA
HETATM   14  C   UNL     1      22.708  51.229  48.794  1.00  0.00     0.210 C 
ENDBRANCH  12  13
ENDBRANCH   3   6
ENDBRANCH   1   2
BRANCH   1  15
HETATM   15  N   UNL     1      26.131  47.464  51.995  1.00  0.00    -0.054 N 
HETATM   16  H   UNL     1      27.041  47.005  51.837  1.00  0.00     0.278 HD
HETATM   17  H   UNL     1      26.290  48.473  51.944  1.00  0.00     0.278 HD
BRANCH  15  18
HETATM   18  C   UNL     1      25.722  47.097  53.380  1.00  0.00     0.272 C 
BRANCH  18  19
HETATM   19  C   UNL     1      26.874  46.483  54.126  1.00  0.00    -0.033 A 
HETATM   20  C   UNL     1      27.120  45.109  54.033  1.00  0.00     0.011 A 
HETATM   21  C   UNL     1      28.170  44.522  54.747  1.00  0.00     0.030 A 
HETATM   22  C   UNL     1      29.017  45.285  55.557  1.00  0.00     0.037 A 
HETATM   23  C   UNL     1      28.777  46.665  55.628  1.00  0.00     0.030 A 
HETATM   24  C   UNL     1      27.714  47.258  54.932  1.00  0.00     0.011 A 
BRANCH  22  25
HETATM   25  N   UNL     1      30.090  44.691  56.269  1.00  0.00    -0.318 N 
HETATM   26  C   UNL     1      30.567  45.090  57.530  1.00  0.00     0.224 C 
HETATM   27  O   UNL     1      30.179  46.003  58.242  1.00  0.00    -0.273 OA
HETATM   28  C   UNL     1      31.764  44.230  57.863  1.00  0.00     0.105 C 
HETATM   29  C   UNL     1      31.609  43.048  56.925  1.00  0.00     0.029 C 
HETATM   30  C   UNL     1      30.925  43.650  55.716  1.00  0.00     0.133 C 
ENDBRANCH  22  25
ENDBRANCH  18  19
ENDBRANCH  15  18
ENDBRANCH   1  15
BRANCH   1  31
HETATM   31  C   UNL     1      25.333  45.530  50.591  1.00  0.00    -0.019 A 
HETATM   32  C   UNL     1      26.542  44.995  50.112  1.00  0.00     0.010 A 
HETATM   33  C   UNL     1      26.651  43.631  49.832  1.00  0.00     0.001 A 
HETATM   34  C   UNL     1      25.559  42.788  50.017  1.00  0.00     0.000 A 
HETATM   35  C   UNL     1      24.352  43.303  50.481  1.00  0.00     0.001 A 
HETATM   36  C   UNL     1      24.236  44.665  50.762  1.00  0.00     0.010 A 
ENDBRANCH   1  31
TORSDOF 8
ENDMDL
MODEL 3
REMARK VINA RESULT:      -9.0      2.021      3.137
REMARK  8 active torsions:
REMARK  status: ('A' for Active; 'I' for Inactive)
REMARK    1  A    between atoms: C_4  and  N_5 
REMARK       I    between atoms: N_5  and  C_6 
REMARK    2  A    between atoms: C_6  and  C_7 
REMARK    3  A    between atoms: C_7  and  N_8 
REMARK    4  A    between atoms: C_7  and  C_24 
REMARK    5  A    between atoms: N_8  and  C_11 
REMARK    6  A    between atoms: C_11  and  C_12 
REMARK    7  A    between atoms: C_15  and  N_16 
REMARK    8  A    between atoms: C_31  and  O_32 
ROOT
HETATM    1  C   UNL     1      26.696  46.168  52.156  1.00  0.00     0.310 C 
ENDROOT
BRANCH   1   2
HETATM    2  C   UNL     1      26.308  46.229  53.654  1.00  0.00     0.257 C 
HETATM    3  N   UNL     1      26.823  45.375  54.580  1.00  0.00    -0.323 N 
HETATM    4  H   UNL     1      26.264  45.299  55.429  1.00  0.00     0.169 HD
HETATM    5  O   UNL     1      25.466  47.071  54.000  1.00  0.00    -0.270 OA
BRANCH   3   6
HETATM    6  C   UNL     1      27.846  44.407  54.485  1.00  0.00     0.069 A 
HETATM    7  C   UNL     1      27.680  43.181  53.834  1.00  0.00     0.039 A 
HETATM    8  C   UNL     1      28.732  42.256  53.777  1.00  0.00    -0.060 A 
HETATM    9  C   UNL     1      28.541  40.925  53.109  1.00  0.00     0.048 C 
HETATM   10  C   UNL     1      29.950  42.572  54.385  1.00  0.00     0.009 A 
HETATM   11  C   UNL     1      30.140  43.814  54.997  1.00  0.00     0.039 A 
HETATM   12  C   UNL     1      29.098  44.741  55.040  1.00  0.00     0.095 A 
BRANCH  12  13
HETATM   13  O   UNL     1      29.168  45.982  55.626  1.00  0.00    -0.354 OA
HETATM   14  C   UNL     1      29.481  46.022  57.015  1.00  0.00     0.210 C 
ENDBRANCH  12  13
ENDBRANCH   3   6
ENDBRANCH   1   2
BRANCH   1  15
HETATM   15  N   UNL     1      26.307  47.479  51.474  1.00  0.00    -0.054 N 
HETATM   16  H   UNL     1      25.347  47.691  51.786  1.00  0.00     0.278 HD
HETATM   17  H   UNL     1      26.908  48.237  51.809  1.00  0.00     0.278 HD
BRANCH  15  18
HETATM   18  C   UNL     1      26.268  47.498  49.985  1.00  0.00     0.272 C 
BRANCH  18  19
HETATM   19  C   UNL     1      24.983  48.108  49.499  1.00  0.00    -0.033 A 
HETATM   20  C   UNL     1      24.989  49.364  48.881  1.00  0.00     0.011 A 
HETATM   21  C   UNL     1      23.796  49.956  48.454  1.00  0.00     0.030 A 
HETATM   22  C   UNL     1      22.565  49.310  48.610  1.00  0.00     0.037 A 
HETATM   23  C   UNL     1      22.569  48.043  49.211  1.00  0.00     0.030 A 
HETATM   24  C   UNL     1      23.759  47.452  49.661  1.00  0.00     0.011 A 
BRANCH  22  25
HETATM   25  N   UNL     1      21.358  49.905  48.163  1.00  0.00    -0.318 N 
HETATM   26  C   UNL     1      20.377  49.287  47.368  1.00  0.00     0.224 C 
HETATM   27  O   UNL     1      20.366  48.158  46.904  1.00  0.00    -0.273 OA
HETATM   28  C   UNL     1      19.309  50.316  47.073  1.00  0.00     0.105 C 
HETATM   29  C   UNL     1      19.544  51.369  48.139  1.00  0.00     0.029 C 
HETATM   30  C   UNL     1      21.037  51.297  48.379  1.00  0.00     0.133 C 
ENDBRANCH  22  25
ENDBRANCH  18  19
ENDBRANCH  15  18
ENDBRANCH   1  15
BRANCH   1  31
HETATM   31  C   UNL     1      26.180  44.964  51.391  1.00  0.00    -0.019 A 
HETATM   32  C   UNL     1      24.862  44.522  51.600  1.00  0.00     0.010 A 
HETATM   33  C   UNL     1      24.379  43.392  50.936  1.00  0.00     0.001 A 
HETATM   34  C   UNL     1      25.203  42.686  50.064  1.00  0.00     0.000 A 
HETATM   35  C   UNL     1      26.514  43.104  49.853  1.00  0.00     0.001 A 
HETATM   36  C   UNL     1      27.003  44.232  50.514  1.00  0.00     0.010 A 
ENDBRANCH   1  31
TORSDOF 8
ENDMDL
MODEL 4
REMARK VINA RESULT:      -8.9      1.068      2.128
REMARK  8 active torsions:
REMARK  status: ('A' for Active; 'I' for Inactive)
REMARK    1  A    between atoms: C_4  and  N_5 
REMARK       I    between atoms: N_5  and  C_6 
REMARK    2  A    between atoms: C_6  and  C_7 
REMARK    3  A    between atoms: C_7  and  N_8 
REMARK    4  A    between atoms: C_7  and  C_24 
REMARK    5  A    between atoms: N_8  and  C_11 
REMARK    6  A    between atoms: C_11  and  C_12 
REMARK    7  A    between atoms: C_15  and  N_16 
REMARK    8  A    between atoms: C_31  and  O_32 
ROOT
HETATM    1  C   UNL     1      26.732  43.309  50.371  1.00  0.00     0.310 C 
ENDROOT
BRANCH   1   2
HETATM    2  C   UNL     1      25.528  43.149  51.331  1.00  0.00     0.257 C 
HETATM    3  N   UNL     1      25.587  43.495  52.647  1.00  0.00    -0.323 N 
HETATM    4  H   UNL     1      24.875  43.050  53.224  1.00  0.00     0.169 HD
HETATM    5  O   UNL     1      24.488  42.649  50.878  1.00  0.00    -0.270 OA
BRANCH   3   6
HETATM    6  C   UNL     1      26.587  44.159  53.388  1.00  0.00     0.069 A 
HETATM    7  C   UNL     1      26.551  45.529  53.666  1.00  0.00     0.039 A 
HETATM    8  C   UNL     1      27.578  46.134  54.403  1.00  0.00    -0.060 A 
HETATM    9  C   UNL     1      27.555  47.611  54.671  1.00  0.00     0.048 C 
HETATM   10  C   UNL     1      28.644  45.352  54.855  1.00  0.00     0.009 A 
HETATM   11  C   UNL     1      28.665  43.974  54.622  1.00  0.00     0.039 A 
HETATM   12  C   UNL     1      27.635  43.369  53.901  1.00  0.00     0.095 A 
BRANCH  12  13
HETATM   13  O   UNL     1      27.561  42.029  53.602  1.00  0.00    -0.354 OA
HETATM   14  C   UNL     1      28.791  41.311  53.553  1.00  0.00     0.210 C 
ENDBRANCH  12  13
ENDBRANCH   3   6
ENDBRANCH   1   2
BRANCH   1  15
HETATM   15  N   UNL     1      26.472  44.473  49.417  1.00  0.00    -0.054 N 
HETATM   16  H   UNL     1      27.064  44.304  48.589  1.00  0.00     0.278 HD
HETATM   17  H   UNL     1      25.499  44.454  49.101  1.00  0.00     0.278 HD
BRANCH  15  18
HETATM   18  C   UNL     1      26.812  45.844  49.891  1.00  0.00     0.272 C 
BRANCH  18  19
HETATM   19  C   UNL     1      25.673  46.790  49.629  1.00  0.00    -0.033 A 
HETATM   20  C   UNL     1      24.356  46.317  49.608  1.00  0.00     0.011 A 
HETATM   21  C   UNL     1      23.291  47.181  49.335  1.00  0.00     0.030 A 
HETATM   22  C   UNL     1      23.502  48.543  49.093  1.00  0.00     0.037 A 
HETATM   23  C   UNL     1      24.822  49.014  49.137  1.00  0.00     0.030 A 
HETATM   24  C   UNL     1      25.897  48.149  49.390  1.00  0.00     0.011 A 
BRANCH  22  25
HETATM   25  N   UNL     1      22.419  49.422  48.830  1.00  0.00    -0.318 N 
HETATM   26  C   UNL     1      22.071  50.554  49.586  1.00  0.00     0.224 C 
HETATM   27  O   UNL     1      22.599  50.993  50.595  1.00  0.00    -0.273 OA
HETATM   28  C   UNL     1      20.812  51.138  48.987  1.00  0.00     0.105 C 
HETATM   29  C   UNL     1      20.779  50.530  47.599  1.00  0.00     0.029 C 
HETATM   30  C   UNL     1      21.444  49.183  47.791  1.00  0.00     0.133 C 
ENDBRANCH  22  25
ENDBRANCH  18  19
ENDBRANCH  15  18
ENDBRANCH   1  15
BRANCH   1  31
HETATM   31  C   UNL     1      27.149  42.056  49.625  1.00  0.00    -0.019 A 
HETATM   32  C   UNL     1      26.720  41.861  48.300  1.00  0.00     0.010 A 
HETATM   33  C   UNL     1      27.060  40.696  47.609  1.00  0.00     0.001 A 
HETATM   34  C   UNL     1      27.824  39.710  48.229  1.00  0.00     0.000 A 
HETATM   35  C   UNL     1      28.249  39.883  49.543  1.00  0.00     0.001 A 
HETATM   36  C   UNL     1      27.911  41.044  50.240  1.00  0.00     0.010 A 
ENDBRANCH   1  31
TORSDOF 8
ENDMDL
MODEL 5
REMARK VINA RESULT:      -8.9      2.714      7.945
REMARK  8 active torsions:
REMARK  status: ('A' for Active; 'I' for Inactive)
REMARK    1  A    between atoms: C_4  and  N_5 
REMARK       I    between atoms: N_5  and  C_6 
REMARK    2  A    between atoms: C_6  and  C_7 
REMARK    3  A    between atoms: C_7  and  N_8 
REMARK    4  A    between atoms: C_7  and  C_24 
REMARK    5  A    between atoms: N_8  and  C_11 
REMARK    6  A    between atoms: C_11  and  C_12 
REMARK    7  A    between atoms: C_15  and  N_16 
REMARK    8  A    between atoms: C_31  and  O_32 
ROOT
HETATM    1  C   UNL     1      25.991  45.329  50.273  1.00  0.00     0.310 C 
ENDROOT
BRANCH   1   2
HETATM    2  C   UNL     1      25.242  44.405  49.281  1.00  0.00     0.257 C 
HETATM    3  N   UNL     1      25.599  43.108  49.073  1.00  0.00    -0.323 N 
HETATM    4  H   UNL     1      25.261  42.722  48.192  1.00  0.00     0.169 HD
HETATM    5  O   UNL     1      24.306  44.893  48.630  1.00  0.00    -0.270 OA
BRANCH   3   6
HETATM    6  C   UNL     1      26.540  42.287  49.730  1.00  0.00     0.069 A 
HETATM    7  C   UNL     1      26.632  42.192  51.122  1.00  0.00     0.039 A 
HETATM    8  C   UNL     1      27.593  41.363  51.718  1.00  0.00    -0.060 A 
HETATM    9  C   UNL     1      27.713  41.289  53.213  1.00  0.00     0.048 C 
HETATM   10  C   UNL     1      28.463  40.635  50.903  1.00  0.00     0.009 A 
HETATM   11  C   UNL     1      28.348  40.688  49.512  1.00  0.00     0.039 A 
HETATM   12  C   UNL     1      27.382  41.501  48.918  1.00  0.00     0.095 A 
BRANCH  12  13
HETATM   13  O   UNL     1      27.190  41.640  47.564  1.00  0.00    -0.354 OA
HETATM   14  C   UNL     1      26.777  40.479  46.849  1.00  0.00     0.210 C 
ENDBRANCH  12  13
ENDBRANCH   3   6
ENDBRANCH   1   2
BRANCH   1  15
HETATM   15  N   UNL     1      25.264  45.331  51.616  1.00  0.00    -0.054 N 
HETATM   16  H   UNL     1      24.256  45.346  51.398  1.00  0.00     0.278 HD
HETATM   17  H   UNL     1      25.452  44.458  52.115  1.00  0.00     0.278 HD
BRANCH  15  18
HETATM   18  C   UNL     1      25.503  46.484  52.529  1.00  0.00     0.272 C 
BRANCH  18  19
HETATM   19  C   UNL     1      26.598  46.164  53.508  1.00  0.00    -0.033 A 
HETATM   20  C   UNL     1      26.978  44.836  53.728  1.00  0.00     0.011 A 
HETATM   21  C   UNL     1      27.974  44.522  54.659  1.00  0.00     0.030 A 
HETATM   22  C   UNL     1      28.634  45.521  55.384  1.00  0.00     0.037 A 
HETATM   23  C   UNL     1      28.262  46.851  55.143  1.00  0.00     0.030 A 
HETATM   24  C   UNL     1      27.250  47.171  54.226  1.00  0.00     0.011 A 
BRANCH  22  25
HETATM   25  N   UNL     1      29.653  45.203  56.318  1.00  0.00    -0.318 N 
HETATM   26  C   UNL     1      29.694  45.606  57.665  1.00  0.00     0.224 C 
HETATM   27  O   UNL     1      28.899  46.295  58.283  1.00  0.00    -0.273 OA
HETATM   28  C   UNL     1      30.994  45.107  58.253  1.00  0.00     0.105 C 
HETATM   29  C   UNL     1      31.419  44.024  57.281  1.00  0.00     0.029 C 
HETATM   30  C   UNL     1      30.866  44.508  55.957  1.00  0.00     0.133 C 
ENDBRANCH  22  25
ENDBRANCH  18  19
ENDBRANCH  15  18
ENDBRANCH   1  15
BRANCH   1  31
HETATM   31  C   UNL     1      26.264  46.738  49.781  1.00  0.00    -0.019 A 
HETATM   32  C   UNL     1      25.193  47.631  49.604  1.00  0.00     0.010 A 
HETATM   33  C   UNL     1      25.418  48.920  49.115  1.00  0.00     0.001 A 
HETATM   34  C   UNL     1      26.709  49.331  48.790  1.00  0.00     0.000 A 
HETATM   35  C   UNL     1      27.779  48.456  48.950  1.00  0.00     0.001 A 
HETATM   36  C   UNL     1      27.561  47.166  49.437  1.00  0.00     0.010 A 
ENDBRANCH   1  31
TORSDOF 8
ENDMDL
MODEL 6
REMARK VINA RESULT:      -8.7      1.994      5.133
REMARK  8 active torsions:
REMARK  status: ('A' for Active; 'I' for Inactive)
REMARK    1  A    between atoms: C_4  and  N_5 
REMARK       I    between atoms: N_5  and  C_6 
REMARK    2  A    between atoms: C_6  and  C_7 
REMARK    3  A    between atoms: C_7  and  N_8 
REMARK    4  A    between atoms: C_7  and  C_24 
REMARK    5  A    between atoms: N_8  and  C_11 
REMARK    6  A    between atoms: C_11  and  C_12 
REMARK    7  A    between atoms: C_15  and  N_16 
REMARK    8  A    between atoms: C_31  and  O_32 
ROOT
HETATM    1  C   UNL     1      26.825  42.477  51.501  1.00  0.00     0.310 C 
ENDROOT
BRANCH   1   2
HETATM    2  C   UNL     1      27.216  42.736  50.026  1.00  0.00     0.257 C 
HETATM    3  N   UNL     1      27.605  41.739  49.184  1.00  0.00    -0.323 N 
HETATM    4  H   UNL     1      28.135  42.063  48.376  1.00  0.00     0.169 HD
HETATM    5  O   UNL     1      27.204  43.907  49.620  1.00  0.00    -0.270 OA
BRANCH   3   6
HETATM    6  C   UNL     1      27.618  40.337  49.347  1.00  0.00     0.069 A 
HETATM    7  C   UNL     1      28.677  39.646  49.943  1.00  0.00     0.039 A 
HETATM    8  C   UNL     1      28.635  38.251  50.071  1.00  0.00    -0.060 A 
HETATM    9  C   UNL     1      29.789  37.507  50.679  1.00  0.00     0.048 C 
HETATM   10  C   UNL     1      27.522  37.556  49.592  1.00  0.00     0.009 A 
HETATM   11  C   UNL     1      26.438  38.242  49.038  1.00  0.00     0.039 A 
HETATM   12  C   UNL     1      26.473  39.633  48.924  1.00  0.00     0.095 A 
BRANCH  12  13
HETATM   13  O   UNL     1      25.473  40.406  48.384  1.00  0.00    -0.354 OA
HETATM   14  C   UNL     1      25.014  40.050  47.083  1.00  0.00     0.210 C 
ENDBRANCH  12  13
ENDBRANCH   3   6
ENDBRANCH   1   2
BRANCH   1  15
HETATM   15  N   UNL     1      25.510  43.190  51.814  1.00  0.00    -0.054 N 
HETATM   16  H   UNL     1      25.111  42.710  52.634  1.00  0.00     0.278 HD
HETATM   17  H   UNL     1      25.697  44.157  52.091  1.00  0.00     0.278 HD
BRANCH  15  18
HETATM   18  C   UNL     1      24.448  43.170  50.769  1.00  0.00     0.272 C 
BRANCH  18  19
HETATM   19  C   UNL     1      24.160  44.563  50.283  1.00  0.00    -0.033 A 
HETATM   20  C   UNL     1      24.723  45.666  50.934  1.00  0.00     0.011 A 
HETATM   21  C   UNL     1      24.437  46.968  50.511  1.00  0.00     0.030 A 
HETATM   22  C   UNL     1      23.600  47.211  49.417  1.00  0.00     0.037 A 
HETATM   23  C   UNL     1      23.057  46.101  48.756  1.00  0.00     0.030 A 
HETATM   24  C   UNL     1      23.322  44.792  49.187  1.00  0.00     0.011 A 
BRANCH  22  25
HETATM   25  N   UNL     1      23.322  48.532  48.980  1.00  0.00    -0.318 N 
HETATM   26  C   UNL     1      24.270  49.480  48.557  1.00  0.00     0.224 C 
HETATM   27  O   UNL     1      25.485  49.371  48.492  1.00  0.00    -0.273 OA
HETATM   28  C   UNL     1      23.534  50.766  48.261  1.00  0.00     0.105 C 
HETATM   29  C   UNL     1      22.097  50.311  48.102  1.00  0.00     0.029 C 
HETATM   30  C   UNL     1      22.003  49.119  49.031  1.00  0.00     0.133 C 
ENDBRANCH  22  25
ENDBRANCH  18  19
ENDBRANCH  15  18
ENDBRANCH   1  15
BRANCH   1  31
HETATM   31  C   UNL     1      27.893  42.795  52.530  1.00  0.00    -0.019 A 
HETATM   32  C   UNL     1      27.592  43.656  53.601  1.00  0.00     0.010 A 
HETATM   33  C   UNL     1      28.571  43.993  54.537  1.00  0.00     0.001 A 
HETATM   34  C   UNL     1      29.862  43.484  54.415  1.00  0.00     0.000 A 
HETATM   35  C   UNL     1      30.180  42.639  53.356  1.00  0.00     0.001 A 
HETATM   36  C   UNL     1      29.206  42.299  52.416  1.00  0.00     0.010 A 
ENDBRANCH   1  31
TORSDOF 8
ENDMDL
MODEL 7
REMARK VINA RESULT:      -8.7      3.080      7.120
REMARK  8 active torsions:
REMARK  status: ('A' for Active; 'I' for Inactive)
REMARK    1  A    between atoms: C_4  and  N_5 
REMARK       I    between atoms: N_5  and  C_6 
REMARK    2  A    between atoms: C_6  and  C_7 
REMARK    3  A    between atoms: C_7  and  N_8 
REMARK    4  A    between atoms: C_7  and  C_24 
REMARK    5  A    between atoms: N_8  and  C_11 
REMARK    6  A    between atoms: C_11  and  C_12 
REMARK    7  A    between atoms: C_15  and  N_16 
REMARK    8  A    between atoms: C_31  and  O_32 
ROOT
HETATM    1  C   UNL     1      27.904  44.343  53.467  1.00  0.00     0.310 C 
ENDROOT
BRANCH   1   2
HETATM    2  C   UNL     1      26.439  44.152  53.931  1.00  0.00     0.257 C 
HETATM    3  N   UNL     1      25.379  44.653  53.240  1.00  0.00    -0.323 N 
HETATM    4  H   UNL     1      24.530  44.748  53.796  1.00  0.00     0.169 HD
HETATM    5  O   UNL     1      26.244  43.548  54.996  1.00  0.00    -0.270 OA
BRANCH   3   6
HETATM    6  C   UNL     1      25.305  45.282  51.979  1.00  0.00     0.069 A 
HETATM    7  C   UNL     1      26.039  46.426  51.650  1.00  0.00     0.039 A 
HETATM    8  C   UNL     1      25.920  47.010  50.382  1.00  0.00    -0.060 A 
HETATM    9  C   UNL     1      26.682  48.258  50.043  1.00  0.00     0.048 C 
HETATM   10  C   UNL     1      25.052  46.437  49.448  1.00  0.00     0.009 A 
HETATM   11  C   UNL     1      24.350  45.268  49.751  1.00  0.00     0.039 A 
HETATM   12  C   UNL     1      24.480  44.678  51.009  1.00  0.00     0.095 A 
BRANCH  12  13
HETATM   13  O   UNL     1      23.829  43.539  51.419  1.00  0.00    -0.354 OA
HETATM   14  C   UNL     1      23.211  42.750  50.406  1.00  0.00     0.210 C 
ENDBRANCH  12  13
ENDBRANCH   3   6
ENDBRANCH   1   2
BRANCH   1  15
HETATM   15  N   UNL     1      28.232  43.323  52.378  1.00  0.00    -0.054 N 
HETATM   16  H   UNL     1      27.980  43.767  51.482  1.00  0.00     0.278 HD
HETATM   17  H   UNL     1      29.240  43.149  52.356  1.00  0.00     0.278 HD
BRANCH  15  18
HETATM   18  C   UNL     1      27.506  42.022  52.409  1.00  0.00     0.272 C 
BRANCH  18  19
HETATM   19  C   UNL     1      26.983  41.677  51.043  1.00  0.00    -0.033 A 
HETATM   20  C   UNL     1      27.054  42.613  50.006  1.00  0.00     0.011 A 
HETATM   21  C   UNL     1      26.542  42.316  48.739  1.00  0.00     0.030 A 
HETATM   22  C   UNL     1      25.962  41.074  48.460  1.00  0.00     0.037 A 
HETATM   23  C   UNL     1      25.913  40.133  49.499  1.00  0.00     0.030 A 
HETATM   24  C   UNL     1      26.406  40.431  50.778  1.00  0.00     0.011 A 
BRANCH  22  25
HETATM   25  N   UNL     1      25.455  40.768  47.171  1.00  0.00    -0.318 N 
HETATM   26  C   UNL     1      24.101  40.589  46.836  1.00  0.00     0.224 C 
HETATM   27  O   UNL     1      23.120  40.645  47.560  1.00  0.00    -0.273 OA
HETATM   28  C   UNL     1      24.036  40.203  45.377  1.00  0.00     0.105 C 
HETATM   29  C   UNL     1      25.386  40.642  44.844  1.00  0.00     0.029 C 
HETATM   30  C   UNL     1      26.302  40.478  46.038  1.00  0.00     0.133 C 
ENDBRANCH  22  25
ENDBRANCH  18  19
ENDBRANCH  15  18
ENDBRANCH   1  15
BRANCH   1  31
HETATM   31  C   UNL     1      28.948  44.344  54.567  1.00  0.00    -0.019 A 
HETATM   32  C   UNL     1      29.088  45.476  55.390  1.00  0.00     0.010 A 
HETATM   33  C   UNL     1      30.069  45.514  56.383  1.00  0.00     0.001 A 
HETATM   34  C   UNL     1      30.925  44.430  56.564  1.00  0.00     0.000 A 
HETATM   35  C   UNL     1      30.806  43.306  55.753  1.00  0.00     0.001 A 
HETATM   36  C   UNL     1      29.829  43.263  54.757  1.00  0.00     0.010 A 
ENDBRANCH   1  31
TORSDOF 8
ENDMDL
MODEL 8
REMARK VINA RESULT:      -8.6      1.844      2.185
REMARK  8 active torsions:
REMARK  status: ('A' for Active; 'I' for Inactive)
REMARK    1  A    between atoms: C_4  and  N_5 
REMARK       I    between atoms: N_5  and  C_6 
REMARK    2  A    between atoms: C_6  and  C_7 
REMARK    3  A    between atoms: C_7  and  N_8 
REMARK    4  A    between atoms: C_7  and  C_24 
REMARK    5  A    between atoms: N_8  and  C_11 
REMARK    6  A    between atoms: C_11  and  C_12 
REMARK    7  A    between atoms: C_15  and  N_16 
REMARK    8  A    between atoms: C_31  and  O_32 
ROOT
HETATM    1  C   UNL     1      26.854  44.112  51.386  1.00  0.00     0.310 C 
ENDROOT
BRANCH   1   2
HETATM    2  C   UNL     1      25.793  44.093  52.513  1.00  0.00     0.257 C 
HETATM    3  N   UNL     1      26.102  44.332  53.817  1.00  0.00    -0.323 N 
HETATM    4  H   UNL     1      25.412  43.976  54.478  1.00  0.00     0.169 HD
HETATM    5  O   UNL     1      24.625  43.811  52.204  1.00  0.00    -0.270 OA
BRANCH   3   6
HETATM    6  C   UNL     1      27.302  44.762  54.423  1.00  0.00     0.069 A 
HETATM    7  C   UNL     1      28.400  43.922  54.626  1.00  0.00     0.039 A 
HETATM    8  C   UNL     1      29.564  44.405  55.240  1.00  0.00    -0.060 A 
HETATM    9  C   UNL     1      30.729  43.492  55.489  1.00  0.00     0.048 C 
HETATM   10  C   UNL     1      29.612  45.739  55.653  1.00  0.00     0.009 A 
HETATM   11  C   UNL     1      28.537  46.598  55.412  1.00  0.00     0.039 A 
HETATM   12  C   UNL     1      27.384  46.121  54.787  1.00  0.00     0.095 A 
BRANCH  12  13
HETATM   13  O   UNL     1      26.265  46.871  54.514  1.00  0.00    -0.354 OA
HETATM   14  C   UNL     1      26.180  48.151  55.134  1.00  0.00     0.210 C 
ENDBRANCH  12  13
ENDBRANCH   3   6
ENDBRANCH   1   2
BRANCH   1  15
HETATM   15  N   UNL     1      26.415  45.078  50.287  1.00  0.00    -0.054 N 
HETATM   16  H   UNL     1      27.268  45.322  49.761  1.00  0.00     0.278 HD
HETATM   17  H   UNL     1      25.786  44.601  49.636  1.00  0.00     0.278 HD
BRANCH  15  18
HETATM   18  C   UNL     1      25.808  46.372  50.707  1.00  0.00     0.272 C 
BRANCH  18  19
HETATM   19  C   UNL     1      24.531  46.623  49.954  1.00  0.00    -0.033 A 
HETATM   20  C   UNL     1      23.831  45.557  49.379  1.00  0.00     0.011 A 
HETATM   21  C   UNL     1      22.660  45.781  48.649  1.00  0.00     0.030 A 
HETATM   22  C   UNL     1      22.138  47.069  48.487  1.00  0.00     0.037 A 
HETATM   23  C   UNL     1      22.833  48.131  49.084  1.00  0.00     0.030 A 
HETATM   24  C   UNL     1      24.020  47.916  49.800  1.00  0.00     0.011 A 
BRANCH  22  25
HETATM   25  N   UNL     1      20.942  47.295  47.759  1.00  0.00    -0.318 N 
HETATM   26  C   UNL     1      20.706  46.926  46.422  1.00  0.00     0.224 C 
HETATM   27  O   UNL     1      21.457  46.369  45.638  1.00  0.00    -0.273 OA
HETATM   28  C   UNL     1      19.334  47.433  46.041  1.00  0.00     0.105 C 
HETATM   29  C   UNL     1      18.673  47.678  47.384  1.00  0.00     0.029 C 
HETATM   30  C   UNL     1      19.832  48.059  48.280  1.00  0.00     0.133 C 
ENDBRANCH  22  25
ENDBRANCH  18  19
ENDBRANCH  15  18
ENDBRANCH   1  15
BRANCH   1  31
HETATM   31  C   UNL     1      27.238  42.757  50.821  1.00  0.00    -0.019 A 
HETATM   32  C   UNL     1      27.895  41.824  51.642  1.00  0.00     0.010 A 
HETATM   33  C   UNL     1      28.292  40.586  51.131  1.00  0.00     0.001 A 
HETATM   34  C   UNL     1      28.047  40.266  49.798  1.00  0.00     0.000 A 
HETATM   35  C   UNL     1      27.406  41.182  48.969  1.00  0.00     0.001 A 
HETATM   36  C   UNL     1      27.007  42.421  49.473  1.00  0.00     0.010 A 
ENDBRANCH   1  31
TORSDOF 8
ENDMDL
MODEL 9
REMARK VINA RESULT:      -8.5      1.958      5.412
REMARK  8 active torsions:
REMARK  status: ('A' for Active; 'I' for Inactive)
REMARK    1  A    between atoms: C_4  and  N_5 
REMARK       I    between atoms: N_5  and  C_6 
REMARK    2  A    between atoms: C_6  and  C_7 
REMARK    3  A    between atoms: C_7  and  N_8 
REMARK    4  A    between atoms: C_7  and  C_24 
REMARK    5  A    between atoms: N_8  and  C_11 
REMARK    6  A    between atoms: C_11  and  C_12 
REMARK    7  A    between atoms: C_15  and  N_16 
REMARK    8  A    between atoms: C_31  and  O_32 
ROOT
HETATM    1  C   UNL     1      26.927  44.329  52.501  1.00  0.00     0.310 C 
ENDROOT
BRANCH   1   2
HETATM    2  C   UNL     1      27.223  42.909  53.040  1.00  0.00     0.257 C 
HETATM    3  N   UNL     1      26.840  41.779  52.383  1.00  0.00    -0.323 N 
HETATM    4  H   UNL     1      26.796  40.951  52.975  1.00  0.00     0.169 HD
HETATM    5  O   UNL     1      27.800  42.813  54.133  1.00  0.00    -0.270 OA
BRANCH   3   6
HETATM    6  C   UNL     1      26.269  41.596  51.106  1.00  0.00     0.069 A 
HETATM    7  C   UNL     1      24.995  42.061  50.763  1.00  0.00     0.039 A 
HETATM    8  C   UNL     1      24.478  41.843  49.479  1.00  0.00    -0.060 A 
HETATM    9  C   UNL     1      23.097  42.312  49.124  1.00  0.00     0.048 C 
HETATM   10  C   UNL     1      25.250  41.150  48.543  1.00  0.00     0.009 A 
HETATM   11  C   UNL     1      26.542  40.723  48.861  1.00  0.00     0.039 A 
HETATM   12  C   UNL     1      27.063  40.953  50.135  1.00  0.00     0.095 A 
BRANCH  12  13
HETATM   13  O   UNL     1      28.311  40.566  50.560  1.00  0.00    -0.354 OA
HETATM   14  C   UNL     1      28.698  39.223  50.283  1.00  0.00     0.210 C 
ENDBRANCH  12  13
ENDBRANCH   3   6
ENDBRANCH   1   2
BRANCH   1  15
HETATM   15  N   UNL     1      27.825  44.617  51.299  1.00  0.00    -0.054 N 
HETATM   16  H   UNL     1      28.140  45.594  51.403  1.00  0.00     0.278 HD
HETATM   17  H   UNL     1      28.659  44.026  51.339  1.00  0.00     0.278 HD
BRANCH  15  18
HETATM   18  C   UNL     1      27.215  44.525  49.943  1.00  0.00     0.272 C 
BRANCH  18  19
HETATM   19  C   UNL     1      26.337  45.715  49.677  1.00  0.00    -0.033 A 
HETATM   20  C   UNL     1      26.882  47.004  49.669  1.00  0.00     0.011 A 
HETATM   21  C   UNL     1      26.069  48.122  49.455  1.00  0.00     0.030 A 
HETATM   22  C   UNL     1      24.696  47.991  49.222  1.00  0.00     0.037 A 
HETATM   23  C   UNL     1      24.161  46.695  49.211  1.00  0.00     0.030 A 
HETATM   24  C   UNL     1      24.965  45.570  49.446  1.00  0.00     0.011 A 
BRANCH  22  25
HETATM   25  N   UNL     1      23.875  49.124  48.991  1.00  0.00    -0.318 N 
HETATM   26  C   UNL     1      24.126  50.151  48.064  1.00  0.00     0.224 C 
HETATM   27  O   UNL     1      25.072  50.282  47.304  1.00  0.00    -0.273 OA
HETATM   28  C   UNL     1      23.034  51.185  48.217  1.00  0.00     0.105 C 
HETATM   29  C   UNL     1      21.941  50.426  48.944  1.00  0.00     0.029 C 
HETATM   30  C   UNL     1      22.710  49.431  49.788  1.00  0.00     0.133 C 
ENDBRANCH  22  25
ENDBRANCH  18  19
ENDBRANCH  15  18
ENDBRANCH   1  15
BRANCH   1  31
HETATM   31  C   UNL     1      26.985  45.447  53.525  1.00  0.00    -0.019 A 
HETATM   32  C   UNL     1      26.003  46.453  53.510  1.00  0.00     0.010 A 
HETATM   33  C   UNL     1      26.060  47.512  54.419  1.00  0.00     0.001 A 
HETATM   34  C   UNL     1      27.097  47.587  55.345  1.00  0.00     0.000 A 
HETATM   35  C   UNL     1      28.083  46.604  55.366  1.00  0.00     0.001 A 
HETATM   36  C   UNL     1      28.032  45.544  54.461  1.00  0.00     0.010 A 
ENDBRANCH   1  31
TORSDOF 8
ENDMDL
MODEL 10
REMARK VINA RESULT:      -8.2     11.449     14.237
REMARK  8 active torsions:
REMARK  status: ('A' for Active; 'I' for Inactive)
REMARK    1  A    between atoms: C_4  and  N_5 
REMARK       I    between atoms: N_5  and  C_6 
REMARK    2  A    between atoms: C_6  and  C_7 
REMARK    3  A    between atoms: C_7  and  N_8 
REMARK    4  A    between atoms: C_7  and  C_24 
REMARK    5  A    between atoms: N_8  and  C_11 
REMARK    6  A    between atoms: C_11  and  C_12 
REMARK    7  A    between atoms: C_15  and  N_16 
REMARK    8  A    between atoms: C_31  and  O_32 
ROOT
HETATM    1  C   UNL     1      28.926  48.743  40.172  1.00  0.00     0.310 C 
ENDROOT
BRANCH   1   2
HETATM    2  C   UNL     1      28.724  49.336  38.755  1.00  0.00     0.257 C 
HETATM    3  N   UNL     1      29.190  50.564  38.400  1.00  0.00    -0.323 N 
HETATM    4  H   UNL     1      28.724  50.964  37.586  1.00  0.00     0.169 HD
HETATM    5  O   UNL     1      28.077  48.667  37.935  1.00  0.00    -0.270 OA
BRANCH   3   6
HETATM    6  C   UNL     1      30.021  51.476  39.085  1.00  0.00     0.069 A 
HETATM    7  C   UNL     1      31.402  51.553  38.883  1.00  0.00     0.039 A 
HETATM    8  C   UNL     1      32.177  52.477  39.598  1.00  0.00    -0.060 A 
HETATM    9  C   UNL     1      33.665  52.534  39.405  1.00  0.00     0.048 C 
HETATM   10  C   UNL     1      31.552  53.318  40.522  1.00  0.00     0.009 A 
HETATM   11  C   UNL     1      30.167  53.281  40.697  1.00  0.00     0.039 A 
HETATM   12  C   UNL     1      29.393  52.372  39.973  1.00  0.00     0.095 A 
BRANCH  12  13
HETATM   13  O   UNL     1      28.029  52.239  40.076  1.00  0.00    -0.354 OA
HETATM   14  C   UNL     1      27.504  51.962  41.371  1.00  0.00     0.210 C 
ENDBRANCH  12  13
ENDBRANCH   3   6
ENDBRANCH   1   2
BRANCH   1  15
HETATM   15  N   UNL     1      30.409  48.786  40.536  1.00  0.00    -0.054 N 
HETATM   16  H   UNL     1      30.823  47.920  40.158  1.00  0.00     0.278 HD
HETATM   17  H   UNL     1      30.862  49.570  40.059  1.00  0.00     0.278 HD
BRANCH  15  18
HETATM   18  C   UNL     1      30.765  48.813  41.983  1.00  0.00     0.272 C 
BRANCH  18  19
HETATM   19  C   UNL     1      32.011  49.623  42.204  1.00  0.00    -0.033 A 
HETATM   20  C   UNL     1      33.189  49.304  41.519  1.00  0.00     0.011 A 
HETATM   21  C   UNL     1      34.364  50.030  41.741  1.00  0.00     0.030 A 
HETATM   22  C   UNL     1      34.397  51.106  42.634  1.00  0.00     0.037 A 
HETATM   23  C   UNL     1      33.208  51.434  43.300  1.00  0.00     0.030 A 
HETATM   24  C   UNL     1      32.032  50.697  43.099  1.00  0.00     0.011 A 
BRANCH  22  25
HETATM   25  N   UNL     1      35.585  51.851  42.847  1.00  0.00    -0.318 N 
HETATM   26  C   UNL     1      36.630  52.024  41.922  1.00  0.00     0.224 C 
HETATM   27  O   UNL     1      36.734  51.575  40.791  1.00  0.00    -0.273 OA
HETATM   28  C   UNL     1      37.720  52.819  42.603  1.00  0.00     0.105 C 
HETATM   29  C   UNL     1      37.000  53.455  43.776  1.00  0.00     0.029 C 
HETATM   30  C   UNL     1      35.930  52.441  44.120  1.00  0.00     0.133 C 
ENDBRANCH  22  25
ENDBRANCH  18  19
ENDBRANCH  15  18
ENDBRANCH   1  15
BRANCH   1  31
HETATM   31  C   UNL     1      28.333  47.366  40.399  1.00  0.00    -0.019 A 
HETATM   32  C   UNL     1      28.945  46.241  39.818  1.00  0.00     0.010 A 
HETATM   33  C   UNL     1      28.394  44.969  39.982  1.00  0.00     0.001 A 
HETATM   34  C   UNL     1      27.224  44.802  40.719  1.00  0.00     0.000 A 
HETATM   35  C   UNL     1      26.599  45.905  41.293  1.00  0.00     0.001 A 
HETATM   36  C   UNL     1      27.145  47.180  41.131  1.00  0.00     0.010 A 
ENDBRANCH   1  31
TORSDOF 8
ENDMDL
