MODEL 1
REMARK VINA RESULT:     -10.5      0.000      0.000
REMARK  7 active torsions:
REMARK  status: ('A' for Active; 'I' for Inactive)
REMARK    1  A    between atoms: C_2  and  C_3 
REMARK    2  A    between atoms: C_6  and  C_7 
REMARK    3  A    between atoms: C_10  and  C_11 
REMARK       I    between atoms: C_11  and  N_12 
REMARK    4  A    between atoms: N_12  and  C_13 
REMARK    5  A    between atoms: C_25  and  C_26 
REMARK       I    between atoms: C_26  and  N_27 
REMARK    6  A    between atoms: N_27  and  C_28 
REMARK    7  A    between atoms: C_31  and  O_32 
ROOT
HETATM    1  C   UNL     1      24.665  43.541  51.202  1.00  0.00     0.185 C 
HETATM    2  N   UNL     1      23.754  44.067  50.170  1.00  0.00    -0.239 N 
HETATM    3  C   UNL     1      23.594  45.405  49.893  1.00  0.00     0.142 C 
HETATM    4  C   UNL     1      22.657  45.476  48.881  1.00  0.00     0.097 C 
HETATM    5  C   UNL     1      22.216  44.134  48.736  1.00  0.00     0.160 C 
HETATM    6  N   UNL     1      22.855  43.279  49.541  1.00  0.00    -0.181 NA
HETATM    7  N   UNL     1      24.283  46.319  50.622  1.00  0.00    -0.343 N 
HETATM    8  C   UNL     1      25.064  45.965  51.725  1.00  0.00     0.021 C 
HETATM    9  C   UNL     1      25.628  47.116  52.527  1.00  0.00     0.069 C 
HETATM   10  C   UNL     1      25.256  44.661  52.040  1.00  0.00     0.061 C 
HETATM   11  H   UNL     1      24.038  47.309  50.580  1.00  0.00     0.167 HD
ENDROOT
BRANCH  10  12
HETATM   12  C   UNL     1      26.130  44.271  53.181  1.00  0.00     0.256 C 
HETATM   13  N   UNL     1      27.464  44.546  52.960  1.00  0.00    -0.323 N 
HETATM   14  H   UNL     1      27.725  44.940  52.067  1.00  0.00     0.169 HD
HETATM   15  O   UNL     1      25.633  43.747  54.170  1.00  0.00    -0.267 OA
BRANCH  13  16
HETATM   16  C   UNL     1      28.544  44.296  53.834  1.00  0.00     0.035 A 
HETATM   17  C   UNL     1      28.868  45.097  54.928  1.00  0.00     0.032 A 
HETATM   18  C   UNL     1      29.940  44.754  55.762  1.00  0.00     0.039 A 
HETATM   19  C   UNL     1      30.699  43.610  55.518  1.00  0.00     0.068 A 
HETATM   20  C   UNL     1      30.399  42.822  54.411  1.00  0.00     0.039 A 
HETATM   21  C   UNL     1      29.325  43.163  53.578  1.00  0.00     0.032 A 
BRANCH  19  22
HETATM   22  O   UNL     1      31.703  43.378  56.417  1.00  0.00    -0.356 OA
HETATM   23  C   UNL     1      31.568  43.997  57.691  1.00  0.00     0.210 C 
ENDBRANCH  19  22
ENDBRANCH  13  16
ENDBRANCH  10  12
BRANCH   1  24
HETATM   24  C   UNL     1      25.698  42.615  50.566  1.00  0.00    -0.029 A 
HETATM   25  C   UNL     1      26.311  42.907  49.338  1.00  0.00     0.010 A 
HETATM   26  C   UNL     1      27.255  42.037  48.788  1.00  0.00     0.007 A 
HETATM   27  C   UNL     1      27.591  40.844  49.439  1.00  0.00    -0.059 A 
HETATM   28  C   UNL     1      26.972  40.540  50.655  1.00  0.00     0.007 A 
HETATM   29  C   UNL     1      26.033  41.413  51.210  1.00  0.00     0.010 A 
BRANCH  27  30
HETATM   30  C   UNL     1      28.623  39.914  48.854  1.00  0.00     0.034 C 
HETATM   31  C   UNL     1      28.798  38.663  49.700  1.00  0.00     0.010 C 
ENDBRANCH  27  30
ENDBRANCH   1  24
BRANCH   4  32
HETATM   32  C   UNL     1      22.154  46.627  48.154  1.00  0.00     0.261 C 
HETATM   33  N   UNL     1      21.561  47.576  48.968  1.00  0.00    -0.323 N 
HETATM   34  H   UNL     1      21.657  47.420  49.965  1.00  0.00     0.169 HD
HETATM   35  O   UNL     1      22.311  46.713  46.942  1.00  0.00    -0.267 OA
BRANCH  33  36
HETATM   36  C   UNL     1      20.958  48.788  48.579  1.00  0.00     0.035 A 
HETATM   37  C   UNL     1      19.754  48.873  47.878  1.00  0.00     0.029 A 
HETATM   38  C   UNL     1      19.222  50.118  47.527  1.00  0.00     0.002 A 
HETATM   39  C   UNL     1      19.887  51.290  47.879  1.00  0.00     0.000 A 
HETATM   40  C   UNL     1      21.085  51.218  48.584  1.00  0.00     0.002 A 
HETATM   41  C   UNL     1      21.617  49.974  48.934  1.00  0.00     0.029 A 
ENDBRANCH  33  36
ENDBRANCH   4  32
TORSDOF 7
ENDMDL
MODEL 2
REMARK VINA RESULT:     -10.4      2.447      5.324
REMARK  7 active torsions:
REMARK  status: ('A' for Active; 'I' for Inactive)
REMARK    1  A    between atoms: C_2  and  C_3 
REMARK    2  A    between atoms: C_6  and  C_7 
REMARK    3  A    between atoms: C_10  and  C_11 
REMARK       I    between atoms: C_11  and  N_12 
REMARK    4  A    between atoms: N_12  and  C_13 
REMARK    5  A    between atoms: C_25  and  C_26 
REMARK       I    between atoms: C_26  and  N_27 
REMARK    6  A    between atoms: N_27  and  C_28 
REMARK    7  A    between atoms: C_31  and  O_32 
ROOT
HETATM    1  C   UNL     1      25.703  45.735  50.267  1.00  0.00     0.185 C 
HETATM    2  N   UNL     1      25.228  47.044  49.784  1.00  0.00    -0.239 N 
HETATM    3  C   UNL     1      23.939  47.291  49.371  1.00  0.00     0.142 C 
HETATM    4  C   UNL     1      23.908  48.619  48.992  1.00  0.00     0.097 C 
HETATM    5  C   UNL     1      25.266  49.025  49.079  1.00  0.00     0.160 C 
HETATM    6  N   UNL     1      26.078  48.062  49.526  1.00  0.00    -0.181 NA
HETATM    7  N   UNL     1      23.039  46.276  49.369  1.00  0.00    -0.343 N 
HETATM    8  C   UNL     1      23.393  44.956  49.659  1.00  0.00     0.021 C 
HETATM    9  C   UNL     1      22.310  43.923  49.450  1.00  0.00     0.069 C 
HETATM   10  C   UNL     1      24.649  44.658  50.073  1.00  0.00     0.061 C 
HETATM   11  H   UNL     1      22.145  46.375  48.886  1.00  0.00     0.167 HD
ENDROOT
BRANCH  10  12
HETATM   12  C   UNL     1      25.023  43.264  50.437  1.00  0.00     0.256 C 
HETATM   13  N   UNL     1      25.981  42.725  49.603  1.00  0.00    -0.323 N 
HETATM   14  H   UNL     1      26.307  43.288  48.830  1.00  0.00     0.169 HD
HETATM   15  O   UNL     1      24.471  42.719  51.385  1.00  0.00    -0.267 OA
BRANCH  13  16
HETATM   16  C   UNL     1      26.545  41.432  49.673  1.00  0.00     0.035 A 
HETATM   17  C   UNL     1      26.025  40.314  49.022  1.00  0.00     0.032 A 
HETATM   18  C   UNL     1      26.670  39.074  49.123  1.00  0.00     0.039 A 
HETATM   19  C   UNL     1      27.839  38.935  49.870  1.00  0.00     0.068 A 
HETATM   20  C   UNL     1      28.347  40.041  50.546  1.00  0.00     0.039 A 
HETATM   21  C   UNL     1      27.704  41.282  50.444  1.00  0.00     0.032 A 
BRANCH  19  22
HETATM   22  O   UNL     1      28.379  37.679  49.871  1.00  0.00    -0.356 OA
HETATM   23  C   UNL     1      29.622  37.522  50.545  1.00  0.00     0.210 C 
ENDBRANCH  19  22
ENDBRANCH  13  16
ENDBRANCH  10  12
BRANCH   1  24
HETATM   24  C   UNL     1      26.223  45.861  51.695  1.00  0.00    -0.029 A 
HETATM   25  C   UNL     1      25.819  46.897  52.551  1.00  0.00     0.010 A 
HETATM   26  C   UNL     1      26.314  46.979  53.855  1.00  0.00     0.007 A 
HETATM   27  C   UNL     1      27.240  46.041  54.327  1.00  0.00    -0.059 A 
HETATM   28  C   UNL     1      27.658  45.015  53.474  1.00  0.00     0.007 A 
HETATM   29  C   UNL     1      27.159  44.928  52.172  1.00  0.00     0.010 A 
BRANCH  27  30
HETATM   30  C   UNL     1      27.760  46.119  55.740  1.00  0.00     0.034 C 
HETATM   31  C   UNL     1      29.275  46.000  55.790  1.00  0.00     0.010 C 
ENDBRANCH  27  30
ENDBRANCH   1  24
BRANCH   4  32
HETATM   32  C   UNL     1      22.796  49.434  48.539  1.00  0.00     0.261 C 
HETATM   33  N   UNL     1      21.898  49.747  49.544  1.00  0.00    -0.323 N 
HETATM   34  H   UNL     1      22.180  49.486  50.481  1.00  0.00     0.169 HD
HETATM   35  O   UNL     1      22.738  49.813  47.375  1.00  0.00    -0.267 OA
BRANCH  33  36
HETATM   36  C   UNL     1      20.710  50.496  49.434  1.00  0.00     0.035 A 
HETATM   37  C   UNL     1      20.568  51.622  48.622  1.00  0.00     0.029 A 
HETATM   38  C   UNL     1      19.353  52.313  48.570  1.00  0.00     0.002 A 
HETATM   39  C   UNL     1      18.266  51.879  49.326  1.00  0.00     0.000 A 
HETATM   40  C   UNL     1      18.394  50.753  50.133  1.00  0.00     0.002 A 
HETATM   41  C   UNL     1      19.608  50.064  50.186  1.00  0.00     0.029 A 
ENDBRANCH  33  36
ENDBRANCH   4  32
TORSDOF 7
ENDMDL
MODEL 3
REMARK VINA RESULT:      -9.4      2.674      5.778
REMARK  7 active torsions:
REMARK  status: ('A' for Active; 'I' for Inactive)
REMARK    1  A    between atoms: C_2  and  C_3 
REMARK    2  A    between atoms: C_6  and  C_7 
REMARK    3  A    between atoms: C_10  and  C_11 
REMARK       I    between atoms: C_11  and  N_12 
REMARK    4  A    between atoms: N_12  and  C_13 
REMARK    5  A    between atoms: C_25  and  C_26 
REMARK       I    between atoms: C_26  and  N_27 
REMARK    6  A    between atoms: N_27  and  C_28 
REMARK    7  A    between atoms: C_31  and  O_32 
ROOT
HETATM    1  C   UNL     1      26.176  44.915  49.920  1.00  0.00     0.185 C 
HETATM    2  N   UNL     1      25.645  46.286  49.819  1.00  0.00    -0.239 N 
HETATM    3  C   UNL     1      24.311  46.587  49.668  1.00  0.00     0.142 C 
HETATM    4  C   UNL     1      24.236  47.965  49.605  1.00  0.00     0.097 C 
HETATM    5  C   UNL     1      25.594  48.376  49.577  1.00  0.00     0.160 C 
HETATM    6  N   UNL     1      26.455  47.357  49.671  1.00  0.00    -0.181 NA
HETATM    7  N   UNL     1      23.411  45.576  49.574  1.00  0.00    -0.343 N 
HETATM    8  C   UNL     1      23.794  44.234  49.506  1.00  0.00     0.021 C 
HETATM    9  C   UNL     1      22.682  43.247  49.235  1.00  0.00     0.069 C 
HETATM   10  C   UNL     1      25.095  43.883  49.650  1.00  0.00     0.061 C 
HETATM   11  H   UNL     1      22.456  45.757  49.264  1.00  0.00     0.167 HD
ENDROOT
BRANCH  10  12
HETATM   12  C   UNL     1      25.507  42.452  49.633  1.00  0.00     0.256 C 
HETATM   13  N   UNL     1      26.098  42.073  48.446  1.00  0.00    -0.323 N 
HETATM   14  H   UNL     1      26.166  42.761  47.710  1.00  0.00     0.169 HD
HETATM   15  O   UNL     1      25.287  41.749  50.612  1.00  0.00    -0.267 OA
BRANCH  13  16
HETATM   16  C   UNL     1      26.592  40.794  48.108  1.00  0.00     0.035 A 
HETATM   17  C   UNL     1      27.929  40.416  48.220  1.00  0.00     0.032 A 
HETATM   18  C   UNL     1      28.325  39.112  47.891  1.00  0.00     0.039 A 
HETATM   19  C   UNL     1      27.394  38.172  47.450  1.00  0.00     0.068 A 
HETATM   20  C   UNL     1      26.062  38.552  47.308  1.00  0.00     0.039 A 
HETATM   21  C   UNL     1      25.665  39.854  47.640  1.00  0.00     0.032 A 
BRANCH  19  22
HETATM   22  O   UNL     1      27.906  36.933  47.182  1.00  0.00    -0.356 OA
HETATM   23  C   UNL     1      28.891  36.861  46.159  1.00  0.00     0.210 C 
ENDBRANCH  19  22
ENDBRANCH  13  16
ENDBRANCH  10  12
BRANCH   1  24
HETATM   24  C   UNL     1      26.906  44.733  51.247  1.00  0.00    -0.029 A 
HETATM   25  C   UNL     1      26.479  45.356  52.430  1.00  0.00     0.010 A 
HETATM   26  C   UNL     1      27.172  45.164  53.628  1.00  0.00     0.007 A 
HETATM   27  C   UNL     1      28.319  44.364  53.668  1.00  0.00    -0.059 A 
HETATM   28  C   UNL     1      28.759  43.753  52.489  1.00  0.00     0.007 A 
HETATM   29  C   UNL     1      28.064  43.939  51.293  1.00  0.00     0.010 A 
BRANCH  27  30
HETATM   30  C   UNL     1      29.056  44.143  54.964  1.00  0.00     0.034 C 
HETATM   31  C   UNL     1      30.252  43.222  54.782  1.00  0.00     0.010 C 
ENDBRANCH  27  30
ENDBRANCH   1  24
BRANCH   4  32
HETATM   32  C   UNL     1      23.075  48.832  49.517  1.00  0.00     0.261 C 
HETATM   33  N   UNL     1      21.930  48.177  49.100  1.00  0.00    -0.323 N 
HETATM   34  H   UNL     1      22.002  47.169  49.030  1.00  0.00     0.169 HD
HETATM   35  O   UNL     1      23.156  50.012  49.837  1.00  0.00    -0.267 OA
BRANCH  33  36
HETATM   36  C   UNL     1      20.650  48.729  48.891  1.00  0.00     0.035 A 
HETATM   37  C   UNL     1      20.229  49.288  47.683  1.00  0.00     0.029 A 
HETATM   38  C   UNL     1      18.940  49.818  47.557  1.00  0.00     0.002 A 
HETATM   39  C   UNL     1      18.060  49.789  48.636  1.00  0.00     0.000 A 
HETATM   40  C   UNL     1      18.468  49.226  49.842  1.00  0.00     0.002 A 
HETATM   41  C   UNL     1      19.755  48.698  49.969  1.00  0.00     0.029 A 
ENDBRANCH  33  36
ENDBRANCH   4  32
TORSDOF 7
ENDMDL
MODEL 4
REMARK VINA RESULT:      -9.1      2.525     10.208
REMARK  7 active torsions:
REMARK  status: ('A' for Active; 'I' for Inactive)
REMARK    1  A    between atoms: C_2  and  C_3 
REMARK    2  A    between atoms: C_6  and  C_7 
REMARK    3  A    between atoms: C_10  and  C_11 
REMARK       I    between atoms: C_11  and  N_12 
REMARK    4  A    between atoms: N_12  and  C_13 
REMARK    5  A    between atoms: C_25  and  C_26 
REMARK       I    between atoms: C_26  and  N_27 
REMARK    6  A    between atoms: N_27  and  C_28 
REMARK    7  A    between atoms: C_31  and  O_32 
ROOT
HETATM    1  C   UNL     1      24.621  45.561  51.476  1.00  0.00     0.185 C 
HETATM    2  N   UNL     1      25.670  45.632  52.508  1.00  0.00    -0.239 N 
HETATM    3  C   UNL     1      26.635  44.669  52.694  1.00  0.00     0.142 C 
HETATM    4  C   UNL     1      27.409  45.104  53.753  1.00  0.00     0.097 C 
HETATM    5  C   UNL     1      26.726  46.258  54.217  1.00  0.00     0.160 C 
HETATM    6  N   UNL     1      25.649  46.564  53.486  1.00  0.00    -0.181 NA
HETATM    7  N   UNL     1      26.624  43.561  51.912  1.00  0.00    -0.343 N 
HETATM    8  C   UNL     1      25.600  43.298  50.998  1.00  0.00     0.021 C 
HETATM    9  C   UNL     1      25.650  41.944  50.327  1.00  0.00     0.069 C 
HETATM   10  C   UNL     1      24.626  44.214  50.775  1.00  0.00     0.061 C 
HETATM   11  H   UNL     1      27.192  42.748  52.153  1.00  0.00     0.167 HD
ENDROOT
BRANCH  10  12
HETATM   12  C   UNL     1      23.561  43.966  49.764  1.00  0.00     0.256 C 
HETATM   13  N   UNL     1      23.975  44.209  48.470  1.00  0.00    -0.323 N 
HETATM   14  H   UNL     1      24.915  44.550  48.330  1.00  0.00     0.169 HD
HETATM   15  O   UNL     1      22.451  43.604  50.134  1.00  0.00    -0.267 OA
BRANCH  13  16
HETATM   16  C   UNL     1      23.212  44.075  47.291  1.00  0.00     0.035 A 
HETATM   17  C   UNL     1      23.210  42.940  46.482  1.00  0.00     0.032 A 
HETATM   18  C   UNL     1      22.394  42.884  45.344  1.00  0.00     0.039 A 
HETATM   19  C   UNL     1      21.571  43.956  45.000  1.00  0.00     0.068 A 
HETATM   20  C   UNL     1      21.591  45.104  45.786  1.00  0.00     0.039 A 
HETATM   21  C   UNL     1      22.404  45.160  46.927  1.00  0.00     0.032 A 
BRANCH  19  22
HETATM   22  O   UNL     1      20.812  43.766  43.879  1.00  0.00    -0.356 OA
HETATM   23  C   UNL     1      19.938  44.828  43.517  1.00  0.00     0.210 C 
ENDBRANCH  19  22
ENDBRANCH  13  16
ENDBRANCH  10  12
BRANCH   1  24
HETATM   24  C   UNL     1      24.725  46.761  50.540  1.00  0.00    -0.029 A 
HETATM   25  C   UNL     1      23.601  47.330  49.922  1.00  0.00     0.010 A 
HETATM   26  C   UNL     1      23.734  48.431  49.073  1.00  0.00     0.007 A 
HETATM   27  C   UNL     1      24.995  48.975  48.802  1.00  0.00    -0.059 A 
HETATM   28  C   UNL     1      26.121  48.403  49.402  1.00  0.00     0.007 A 
HETATM   29  C   UNL     1      25.989  47.306  50.257  1.00  0.00     0.010 A 
BRANCH  27  30
HETATM   30  C   UNL     1      25.136  50.174  47.900  1.00  0.00     0.034 C 
HETATM   31  C   UNL     1      23.815  50.905  47.722  1.00  0.00     0.010 C 
ENDBRANCH  27  30
ENDBRANCH   1  24
BRANCH   4  32
HETATM   32  C   UNL     1      28.602  44.520  54.337  1.00  0.00     0.261 C 
HETATM   33  N   UNL     1      28.923  45.047  55.575  1.00  0.00    -0.323 N 
HETATM   34  H   UNL     1      28.235  45.672  55.978  1.00  0.00     0.169 HD
HETATM   35  O   UNL     1      29.198  43.618  53.760  1.00  0.00    -0.267 OA
BRANCH  33  36
HETATM   36  C   UNL     1      30.023  44.718  56.392  1.00  0.00     0.035 A 
HETATM   37  C   UNL     1      30.937  43.704  56.101  1.00  0.00     0.029 A 
HETATM   38  C   UNL     1      32.003  43.438  56.967  1.00  0.00     0.002 A 
HETATM   39  C   UNL     1      32.168  44.189  58.129  1.00  0.00     0.000 A 
HETATM   40  C   UNL     1      31.267  45.208  58.425  1.00  0.00     0.002 A 
HETATM   41  C   UNL     1      30.201  45.472  57.561  1.00  0.00     0.029 A 
ENDBRANCH  33  36
ENDBRANCH   4  32
TORSDOF 7
ENDMDL
MODEL 5
REMARK VINA RESULT:      -9.0      2.321      3.107
REMARK  7 active torsions:
REMARK  status: ('A' for Active; 'I' for Inactive)
REMARK    1  A    between atoms: C_2  and  C_3 
REMARK    2  A    between atoms: C_6  and  C_7 
REMARK    3  A    between atoms: C_10  and  C_11 
REMARK       I    between atoms: C_11  and  N_12 
REMARK    4  A    between atoms: N_12  and  C_13 
REMARK    5  A    between atoms: C_25  and  C_26 
REMARK       I    between atoms: C_26  and  N_27 
REMARK    6  A    between atoms: N_27  and  C_28 
REMARK    7  A    between atoms: C_31  and  O_32 
ROOT
HETATM    1  C   UNL     1      23.292  44.344  49.447  1.00  0.00     0.185 C 
HETATM    2  N   UNL     1      22.069  45.058  49.041  1.00  0.00    -0.239 N 
HETATM    3  C   UNL     1      22.001  46.416  48.834  1.00  0.00     0.142 C 
HETATM    4  C   UNL     1      20.694  46.684  48.479  1.00  0.00     0.097 C 
HETATM    5  C   UNL     1      20.036  45.438  48.653  1.00  0.00     0.160 C 
HETATM    6  N   UNL     1      20.860  44.454  49.028  1.00  0.00    -0.181 NA
HETATM    7  N   UNL     1      23.109  47.172  49.039  1.00  0.00    -0.343 N 
HETATM    8  C   UNL     1      24.291  46.646  49.566  1.00  0.00     0.021 C 
HETATM    9  C   UNL     1      25.372  47.652  49.888  1.00  0.00     0.069 C 
HETATM   10  C   UNL     1      24.411  45.314  49.787  1.00  0.00     0.061 C 
HETATM   11  H   UNL     1      23.042  48.190  49.089  1.00  0.00     0.167 HD
ENDROOT
BRANCH  10  12
HETATM   12  C   UNL     1      25.684  44.736  50.298  1.00  0.00     0.256 C 
HETATM   13  N   UNL     1      25.675  44.526  51.662  1.00  0.00    -0.323 N 
HETATM   14  H   UNL     1      24.852  44.803  52.178  1.00  0.00     0.169 HD
HETATM   15  O   UNL     1      26.603  44.518  49.518  1.00  0.00    -0.267 OA
BRANCH  13  16
HETATM   16  C   UNL     1      26.720  43.998  52.451  1.00  0.00     0.035 A 
HETATM   17  C   UNL     1      27.191  42.690  52.355  1.00  0.00     0.032 A 
HETATM   18  C   UNL     1      28.256  42.261  53.159  1.00  0.00     0.039 A 
HETATM   19  C   UNL     1      28.863  43.130  54.065  1.00  0.00     0.068 A 
HETATM   20  C   UNL     1      28.378  44.430  54.187  1.00  0.00     0.039 A 
HETATM   21  C   UNL     1      27.315  44.860  53.381  1.00  0.00     0.032 A 
BRANCH  19  22
HETATM   22  O   UNL     1      29.902  42.594  54.773  1.00  0.00    -0.356 OA
HETATM   23  C   UNL     1      30.714  43.508  55.500  1.00  0.00     0.210 C 
ENDBRANCH  19  22
ENDBRANCH  13  16
ENDBRANCH  10  12
BRANCH   1  24
HETATM   24  C   UNL     1      23.660  43.298  48.400  1.00  0.00    -0.029 A 
HETATM   25  C   UNL     1      23.518  43.532  47.023  1.00  0.00     0.010 A 
HETATM   26  C   UNL     1      23.868  42.551  46.093  1.00  0.00     0.007 A 
HETATM   27  C   UNL     1      24.347  41.306  46.515  1.00  0.00    -0.059 A 
HETATM   28  C   UNL     1      24.477  41.060  47.886  1.00  0.00     0.007 A 
HETATM   29  C   UNL     1      24.134  42.043  48.817  1.00  0.00     0.010 A 
BRANCH  27  30
HETATM   30  C   UNL     1      24.742  40.254  45.510  1.00  0.00     0.034 C 
HETATM   31  C   UNL     1      26.217  39.900  45.615  1.00  0.00     0.010 C 
ENDBRANCH  27  30
ENDBRANCH   1  24
BRANCH   4  32
HETATM   32  C   UNL     1      20.072  47.934  48.084  1.00  0.00     0.261 C 
HETATM   33  N   UNL     1      19.940  48.836  49.125  1.00  0.00    -0.323 N 
HETATM   34  H   UNL     1      20.396  48.576  49.991  1.00  0.00     0.169 HD
HETATM   35  O   UNL     1      19.758  48.129  46.916  1.00  0.00    -0.267 OA
BRANCH  33  36
HETATM   36  C   UNL     1      19.362  50.121  49.083  1.00  0.00     0.035 A 
HETATM   37  C   UNL     1      19.909  51.200  48.387  1.00  0.00     0.029 A 
HETATM   38  C   UNL     1      19.273  52.447  48.397  1.00  0.00     0.002 A 
HETATM   39  C   UNL     1      18.083  52.623  49.099  1.00  0.00     0.000 A 
HETATM   40  C   UNL     1      17.526  51.550  49.790  1.00  0.00     0.002 A 
HETATM   41  C   UNL     1      18.161  50.306  49.781  1.00  0.00     0.029 A 
ENDBRANCH  33  36
ENDBRANCH   4  32
TORSDOF 7
ENDMDL
MODEL 6
REMARK VINA RESULT:      -8.5      2.672      4.070
REMARK  7 active torsions:
REMARK  status: ('A' for Active; 'I' for Inactive)
REMARK    1  A    between atoms: C_2  and  C_3 
REMARK    2  A    between atoms: C_6  and  C_7 
REMARK    3  A    between atoms: C_10  and  C_11 
REMARK       I    between atoms: C_11  and  N_12 
REMARK    4  A    between atoms: N_12  and  C_13 
REMARK    5  A    between atoms: C_25  and  C_26 
REMARK       I    between atoms: C_26  and  N_27 
REMARK    6  A    between atoms: N_27  and  C_28 
REMARK    7  A    between atoms: C_31  and  O_32 
ROOT
HETATM    1  C   UNL     1      22.441  44.628  48.992  1.00  0.00     0.185 C 
HETATM    2  N   UNL     1      21.206  45.347  48.630  1.00  0.00    -0.239 N 
HETATM    3  C   UNL     1      21.109  46.716  48.546  1.00  0.00     0.142 C 
HETATM    4  C   UNL     1      19.801  46.985  48.193  1.00  0.00     0.097 C 
HETATM    5  C   UNL     1      19.171  45.713  48.241  1.00  0.00     0.160 C 
HETATM    6  N   UNL     1      20.013  44.719  48.541  1.00  0.00    -0.181 NA
HETATM    7  N   UNL     1      22.194  47.476  48.838  1.00  0.00    -0.343 N 
HETATM    8  C   UNL     1      23.380  46.932  49.337  1.00  0.00     0.021 C 
HETATM    9  C   UNL     1      24.431  47.929  49.768  1.00  0.00     0.069 C 
HETATM   10  C   UNL     1      23.529  45.589  49.439  1.00  0.00     0.061 C 
HETATM   11  H   UNL     1      22.101  48.483  48.979  1.00  0.00     0.167 HD
ENDROOT
BRANCH  10  12
HETATM   12  C   UNL     1      24.808  44.996  49.919  1.00  0.00     0.256 C 
HETATM   13  N   UNL     1      24.741  44.543  51.220  1.00  0.00    -0.323 N 
HETATM   14  H   UNL     1      23.876  44.679  51.724  1.00  0.00     0.169 HD
HETATM   15  O   UNL     1      25.779  44.971  49.172  1.00  0.00    -0.267 OA
BRANCH  13  16
HETATM   16  C   UNL     1      25.774  43.938  51.968  1.00  0.00     0.035 A 
HETATM   17  C   UNL     1      26.432  42.768  51.592  1.00  0.00     0.032 A 
HETATM   18  C   UNL     1      27.470  42.256  52.382  1.00  0.00     0.039 A 
HETATM   19  C   UNL     1      27.864  42.903  53.553  1.00  0.00     0.068 A 
HETATM   20  C   UNL     1      27.191  44.055  53.949  1.00  0.00     0.039 A 
HETATM   21  C   UNL     1      26.156  44.570  53.158  1.00  0.00     0.032 A 
BRANCH  19  22
HETATM   22  O   UNL     1      28.901  42.311  54.220  1.00  0.00    -0.356 OA
HETATM   23  C   UNL     1      29.957  43.167  54.639  1.00  0.00     0.210 C 
ENDBRANCH  19  22
ENDBRANCH  13  16
ENDBRANCH  10  12
BRANCH   1  24
HETATM   24  C   UNL     1      22.851  43.690  47.861  1.00  0.00    -0.029 A 
HETATM   25  C   UNL     1      23.110  42.327  48.074  1.00  0.00     0.010 A 
HETATM   26  C   UNL     1      23.481  41.497  47.013  1.00  0.00     0.007 A 
HETATM   27  C   UNL     1      23.624  42.013  45.720  1.00  0.00    -0.059 A 
HETATM   28  C   UNL     1      23.383  43.374  45.504  1.00  0.00     0.007 A 
HETATM   29  C   UNL     1      23.005  44.203  46.563  1.00  0.00     0.010 A 
BRANCH  27  30
HETATM   30  C   UNL     1      24.007  41.114  44.573  1.00  0.00     0.034 C 
HETATM   31  C   UNL     1      25.091  40.125  44.969  1.00  0.00     0.010 C 
ENDBRANCH  27  30
ENDBRANCH   1  24
BRANCH   4  32
HETATM   32  C   UNL     1      19.154  48.251  47.901  1.00  0.00     0.261 C 
HETATM   33  N   UNL     1      18.603  48.857  49.016  1.00  0.00    -0.323 N 
HETATM   34  H   UNL     1      18.818  48.420  49.904  1.00  0.00     0.169 HD
HETATM   35  O   UNL     1      19.170  48.708  46.765  1.00  0.00    -0.267 OA
BRANCH  33  36
HETATM   36  C   UNL     1      17.891  50.072  49.072  1.00  0.00     0.035 A 
HETATM   37  C   UNL     1      16.621  50.259  48.525  1.00  0.00     0.029 A 
HETATM   38  C   UNL     1      15.981  51.500  48.622  1.00  0.00     0.002 A 
HETATM   39  C   UNL     1      16.605  52.562  49.271  1.00  0.00     0.000 A 
HETATM   40  C   UNL     1      17.869  52.384  49.827  1.00  0.00     0.002 A 
HETATM   41  C   UNL     1      18.508  51.145  49.730  1.00  0.00     0.029 A 
ENDBRANCH  33  36
ENDBRANCH   4  32
TORSDOF 7
ENDMDL
MODEL 7
REMARK VINA RESULT:      -8.4      3.095     10.220
REMARK  7 active torsions:
REMARK  status: ('A' for Active; 'I' for Inactive)
REMARK    1  A    between atoms: C_2  and  C_3 
REMARK    2  A    between atoms: C_6  and  C_7 
REMARK    3  A    between atoms: C_10  and  C_11 
REMARK       I    between atoms: C_11  and  N_12 
REMARK    4  A    between atoms: N_12  and  C_13 
REMARK    5  A    between atoms: C_25  and  C_26 
REMARK       I    between atoms: C_26  and  N_27 
REMARK    6  A    between atoms: N_27  and  C_28 
REMARK    7  A    between atoms: C_31  and  O_32 
ROOT
HETATM    1  C   UNL     1      23.899  43.604  49.974  1.00  0.00     0.185 C 
HETATM    2  N   UNL     1      24.785  43.913  51.110  1.00  0.00    -0.239 N 
HETATM    3  C   UNL     1      26.121  43.587  51.156  1.00  0.00     0.142 C 
HETATM    4  C   UNL     1      26.581  44.036  52.378  1.00  0.00     0.097 C 
HETATM    5  C   UNL     1      25.405  44.477  53.039  1.00  0.00     0.160 C 
HETATM    6  N   UNL     1      24.305  44.372  52.286  1.00  0.00    -0.181 NA
HETATM    7  N   UNL     1      26.674  42.913  50.116  1.00  0.00    -0.343 N 
HETATM    8  C   UNL     1      25.916  42.429  49.046  1.00  0.00     0.021 C 
HETATM    9  C   UNL     1      26.656  41.557  48.058  1.00  0.00     0.069 C 
HETATM   10  C   UNL     1      24.596  42.723  48.952  1.00  0.00     0.061 C 
HETATM   11  H   UNL     1      27.596  42.485  50.205  1.00  0.00     0.167 HD
ENDROOT
BRANCH  10  12
HETATM   12  C   UNL     1      23.791  42.259  47.788  1.00  0.00     0.256 C 
HETATM   13  N   UNL     1      23.981  43.026  46.657  1.00  0.00    -0.323 N 
HETATM   14  H   UNL     1      24.598  43.823  46.724  1.00  0.00     0.169 HD
HETATM   15  O   UNL     1      23.046  41.295  47.917  1.00  0.00    -0.267 OA
BRANCH  13  16
HETATM   16  C   UNL     1      23.368  42.855  45.397  1.00  0.00     0.035 A 
HETATM   17  C   UNL     1      23.827  41.980  44.414  1.00  0.00     0.032 A 
HETATM   18  C   UNL     1      23.135  41.852  43.202  1.00  0.00     0.039 A 
HETATM   19  C   UNL     1      21.979  42.593  42.957  1.00  0.00     0.068 A 
HETATM   20  C   UNL     1      21.532  43.490  43.923  1.00  0.00     0.039 A 
HETATM   21  C   UNL     1      22.221  43.616  45.136  1.00  0.00     0.032 A 
BRANCH  19  22
HETATM   22  O   UNL     1      21.389  42.360  41.746  1.00  0.00    -0.356 OA
HETATM   23  C   UNL     1      20.685  43.450  41.163  1.00  0.00     0.210 C 
ENDBRANCH  19  22
ENDBRANCH  13  16
ENDBRANCH  10  12
BRANCH   1  24
HETATM   24  C   UNL     1      23.312  44.892  49.402  1.00  0.00    -0.029 A 
HETATM   25  C   UNL     1      22.019  44.951  48.861  1.00  0.00     0.010 A 
HETATM   26  C   UNL     1      21.514  46.149  48.349  1.00  0.00     0.007 A 
HETATM   27  C   UNL     1      22.296  47.309  48.345  1.00  0.00    -0.059 A 
HETATM   28  C   UNL     1      23.592  47.253  48.869  1.00  0.00     0.007 A 
HETATM   29  C   UNL     1      24.095  46.058  49.388  1.00  0.00     0.010 A 
BRANCH  27  30
HETATM   30  C   UNL     1      21.745  48.605  47.810  1.00  0.00     0.034 C 
HETATM   31  C   UNL     1      22.752  49.738  47.929  1.00  0.00     0.010 C 
ENDBRANCH  27  30
ENDBRANCH   1  24
BRANCH   4  32
HETATM   32  C   UNL     1      27.923  44.021  52.932  1.00  0.00     0.261 C 
HETATM   33  N   UNL     1      27.959  44.267  54.293  1.00  0.00    -0.323 N 
HETATM   34  H   UNL     1      27.058  44.303  54.756  1.00  0.00     0.169 HD
HETATM   35  O   UNL     1      28.885  43.762  52.219  1.00  0.00    -0.267 OA
BRANCH  33  36
HETATM   36  C   UNL     1      29.094  44.344  55.124  1.00  0.00     0.035 A 
HETATM   37  C   UNL     1      29.423  45.460  55.895  1.00  0.00     0.029 A 
HETATM   38  C   UNL     1      30.572  45.457  56.694  1.00  0.00     0.002 A 
HETATM   39  C   UNL     1      31.397  44.336  56.734  1.00  0.00     0.000 A 
HETATM   40  C   UNL     1      31.073  43.215  55.974  1.00  0.00     0.002 A 
HETATM   41  C   UNL     1      29.927  43.218  55.175  1.00  0.00     0.029 A 
ENDBRANCH  33  36
ENDBRANCH   4  32
TORSDOF 7
ENDMDL
MODEL 8
REMARK VINA RESULT:      -8.3      3.519     10.145
REMARK  7 active torsions:
REMARK  status: ('A' for Active; 'I' for Inactive)
REMARK    1  A    between atoms: C_2  and  C_3 
REMARK    2  A    between atoms: C_6  and  C_7 
REMARK    3  A    between atoms: C_10  and  C_11 
REMARK       I    between atoms: C_11  and  N_12 
REMARK    4  A    between atoms: N_12  and  C_13 
REMARK    5  A    between atoms: C_25  and  C_26 
REMARK       I    between atoms: C_26  and  N_27 
REMARK    6  A    between atoms: N_27  and  C_28 
REMARK    7  A    between atoms: C_31  and  O_32 
ROOT
HETATM    1  C   UNL     1      23.951  43.177  49.878  1.00  0.00     0.185 C 
HETATM    2  N   UNL     1      24.814  43.548  51.014  1.00  0.00    -0.239 N 
HETATM    3  C   UNL     1      26.171  43.326  51.056  1.00  0.00     0.142 C 
HETATM    4  C   UNL     1      26.598  43.805  52.279  1.00  0.00     0.097 C 
HETATM    5  C   UNL     1      25.393  44.151  52.945  1.00  0.00     0.160 C 
HETATM    6  N   UNL     1      24.302  43.964  52.194  1.00  0.00    -0.181 NA
HETATM    7  N   UNL     1      26.771  42.701  50.012  1.00  0.00    -0.343 N 
HETATM    8  C   UNL     1      26.051  42.165  48.942  1.00  0.00     0.021 C 
HETATM    9  C   UNL     1      26.854  41.358  47.948  1.00  0.00     0.069 C 
HETATM   10  C   UNL     1      24.712  42.357  48.851  1.00  0.00     0.061 C 
HETATM   11  H   UNL     1      27.724  42.346  50.097  1.00  0.00     0.167 HD
ENDROOT
BRANCH  10  12
HETATM   12  C   UNL     1      23.943  41.836  47.687  1.00  0.00     0.256 C 
HETATM   13  N   UNL     1      23.372  40.603  47.923  1.00  0.00    -0.323 N 
HETATM   14  H   UNL     1      23.546  40.163  48.816  1.00  0.00     0.169 HD
HETATM   15  O   UNL     1      23.891  42.495  46.656  1.00  0.00    -0.267 OA
BRANCH  13  16
HETATM   16  C   UNL     1      22.589  39.839  47.030  1.00  0.00     0.035 A 
HETATM   17  C   UNL     1      23.083  39.236  45.874  1.00  0.00     0.032 A 
HETATM   18  C   UNL     1      22.238  38.469  45.062  1.00  0.00     0.039 A 
HETATM   19  C   UNL     1      20.894  38.292  45.391  1.00  0.00     0.068 A 
HETATM   20  C   UNL     1      20.388  38.916  46.528  1.00  0.00     0.039 A 
HETATM   21  C   UNL     1      21.234  39.682  47.343  1.00  0.00     0.032 A 
BRANCH  19  22
HETATM   22  O   UNL     1      20.185  37.506  44.527  1.00  0.00    -0.356 OA
HETATM   23  C   UNL     1      18.881  37.958  44.181  1.00  0.00     0.210 C 
ENDBRANCH  19  22
ENDBRANCH  13  16
ENDBRANCH  10  12
BRANCH   1  24
HETATM   24  C   UNL     1      23.265  44.418  49.314  1.00  0.00    -0.029 A 
HETATM   25  C   UNL     1      23.932  45.645  49.175  1.00  0.00     0.010 A 
HETATM   26  C   UNL     1      23.273  46.760  48.652  1.00  0.00     0.007 A 
HETATM   27  C   UNL     1      21.927  46.681  48.275  1.00  0.00    -0.059 A 
HETATM   28  C   UNL     1      21.253  45.465  48.426  1.00  0.00     0.007 A 
HETATM   29  C   UNL     1      21.912  44.348  48.943  1.00  0.00     0.010 A 
BRANCH  27  30
HETATM   30  C   UNL     1      21.221  47.879  47.694  1.00  0.00     0.034 C 
HETATM   31  C   UNL     1      21.596  49.161  48.420  1.00  0.00     0.010 C 
ENDBRANCH  27  30
ENDBRANCH   1  24
BRANCH   4  32
HETATM   32  C   UNL     1      27.938  43.890  52.831  1.00  0.00     0.261 C 
HETATM   33  N   UNL     1      27.957  44.126  54.194  1.00  0.00    -0.323 N 
HETATM   34  H   UNL     1      27.058  44.085  54.659  1.00  0.00     0.169 HD
HETATM   35  O   UNL     1      28.916  43.717  52.113  1.00  0.00    -0.267 OA
BRANCH  33  36
HETATM   36  C   UNL     1      29.085  44.284  55.024  1.00  0.00     0.035 A 
HETATM   37  C   UNL     1      29.378  45.452  55.729  1.00  0.00     0.029 A 
HETATM   38  C   UNL     1      30.521  45.531  56.532  1.00  0.00     0.002 A 
HETATM   39  C   UNL     1      31.379  44.438  56.640  1.00  0.00     0.000 A 
HETATM   40  C   UNL     1      31.092  43.266  55.946  1.00  0.00     0.002 A 
HETATM   41  C   UNL     1      29.951  43.188  55.144  1.00  0.00     0.029 A 
ENDBRANCH  33  36
ENDBRANCH   4  32
TORSDOF 7
ENDMDL
MODEL 9
REMARK VINA RESULT:      -8.1      4.412      8.434
REMARK  7 active torsions:
REMARK  status: ('A' for Active; 'I' for Inactive)
REMARK    1  A    between atoms: C_2  and  C_3 
REMARK    2  A    between atoms: C_6  and  C_7 
REMARK    3  A    between atoms: C_10  and  C_11 
REMARK       I    between atoms: C_11  and  N_12 
REMARK    4  A    between atoms: N_12  and  C_13 
REMARK    5  A    between atoms: C_25  and  C_26 
REMARK       I    between atoms: C_26  and  N_27 
REMARK    6  A    between atoms: N_27  and  C_28 
REMARK    7  A    between atoms: C_31  and  O_32 
ROOT
HETATM    1  C   UNL     1      19.024  47.250  47.894  1.00  0.00     0.185 C 
HETATM    2  N   UNL     1      17.813  48.065  48.097  1.00  0.00    -0.239 N 
HETATM    3  C   UNL     1      17.796  49.440  48.069  1.00  0.00     0.142 C 
HETATM    4  C   UNL     1      16.488  49.811  48.309  1.00  0.00     0.097 C 
HETATM    5  C   UNL     1      15.841  48.585  48.614  1.00  0.00     0.160 C 
HETATM    6  N   UNL     1      16.650  47.524  48.520  1.00  0.00    -0.181 NA
HETATM    7  N   UNL     1      18.959  50.112  47.875  1.00  0.00    -0.343 N 
HETATM    8  C   UNL     1      20.198  49.469  47.818  1.00  0.00     0.021 C 
HETATM    9  C   UNL     1      21.407  50.374  47.766  1.00  0.00     0.069 C 
HETATM   10  C   UNL     1      20.270  48.116  47.840  1.00  0.00     0.061 C 
HETATM   11  H   UNL     1      19.014  51.117  48.048  1.00  0.00     0.167 HD
ENDROOT
BRANCH  10  12
HETATM   12  C   UNL     1      21.581  47.418  47.726  1.00  0.00     0.256 C 
HETATM   13  N   UNL     1      22.209  47.243  48.942  1.00  0.00    -0.323 N 
HETATM   14  H   UNL     1      21.759  47.616  49.765  1.00  0.00     0.169 HD
HETATM   15  O   UNL     1      21.994  47.087  46.621  1.00  0.00    -0.267 OA
BRANCH  13  16
HETATM   16  C   UNL     1      23.457  46.627  49.177  1.00  0.00     0.035 A 
HETATM   17  C   UNL     1      23.719  45.275  48.956  1.00  0.00     0.032 A 
HETATM   18  C   UNL     1      24.999  44.756  49.187  1.00  0.00     0.039 A 
HETATM   19  C   UNL     1      26.033  45.576  49.640  1.00  0.00     0.068 A 
HETATM   20  C   UNL     1      25.771  46.920  49.890  1.00  0.00     0.039 A 
HETATM   21  C   UNL     1      24.491  47.441  49.656  1.00  0.00     0.032 A 
BRANCH  19  22
HETATM   22  O   UNL     1      27.237  44.950  49.807  1.00  0.00    -0.356 OA
HETATM   23  C   UNL     1      27.421  44.244  51.028  1.00  0.00     0.210 C 
ENDBRANCH  19  22
ENDBRANCH  13  16
ENDBRANCH  10  12
BRANCH   1  24
HETATM   24  C   UNL     1      18.840  46.330  46.691  1.00  0.00    -0.029 A 
HETATM   25  C   UNL     1      18.876  44.931  46.805  1.00  0.00     0.010 A 
HETATM   26  C   UNL     1      18.701  44.120  45.681  1.00  0.00     0.007 A 
HETATM   27  C   UNL     1      18.510  44.685  44.415  1.00  0.00    -0.059 A 
HETATM   28  C   UNL     1      18.489  46.078  44.293  1.00  0.00     0.007 A 
HETATM   29  C   UNL     1      18.656  46.891  45.417  1.00  0.00     0.010 A 
BRANCH  27  30
HETATM   30  C   UNL     1      18.303  43.810  43.206  1.00  0.00     0.034 C 
HETATM   31  C   UNL     1      17.449  42.594  43.529  1.00  0.00     0.010 C 
ENDBRANCH  27  30
ENDBRANCH   1  24
BRANCH   4  32
HETATM   32  C   UNL     1      15.880  51.129  48.327  1.00  0.00     0.261 C 
HETATM   33  N   UNL     1      15.836  51.697  49.587  1.00  0.00    -0.323 N 
HETATM   34  H   UNL     1      16.335  51.195  50.312  1.00  0.00     0.169 HD
HETATM   35  O   UNL     1      15.504  51.653  47.285  1.00  0.00    -0.267 OA
BRANCH  33  36
HETATM   36  C   UNL     1      15.295  52.947  49.950  1.00  0.00     0.035 A 
HETATM   37  C   UNL     1      15.940  54.167  49.744  1.00  0.00     0.029 A 
HETATM   38  C   UNL     1      15.335  55.366  50.136  1.00  0.00     0.002 A 
HETATM   39  C   UNL     1      14.076  55.355  50.732  1.00  0.00     0.000 A 
HETATM   40  C   UNL     1      13.421  54.144  50.935  1.00  0.00     0.002 A 
HETATM   41  C   UNL     1      14.026  52.947  50.545  1.00  0.00     0.029 A 
ENDBRANCH  33  36
ENDBRANCH   4  32
TORSDOF 7
ENDMDL
MODEL 10
REMARK VINA RESULT:      -8.0      5.318     10.108
REMARK  7 active torsions:
REMARK  status: ('A' for Active; 'I' for Inactive)
REMARK    1  A    between atoms: C_2  and  C_3 
REMARK    2  A    between atoms: C_6  and  C_7 
REMARK    3  A    between atoms: C_10  and  C_11 
REMARK       I    between atoms: C_11  and  N_12 
REMARK    4  A    between atoms: N_12  and  C_13 
REMARK    5  A    between atoms: C_25  and  C_26 
REMARK       I    between atoms: C_26  and  N_27 
REMARK    6  A    between atoms: N_27  and  C_28 
REMARK    7  A    between atoms: C_31  and  O_32 
ROOT
HETATM    1  C   UNL     1      26.668  39.766  48.643  1.00  0.00     0.185 C 
HETATM    2  N   UNL     1      26.961  40.830  49.619  1.00  0.00    -0.239 N 
HETATM    3  C   UNL     1      27.936  40.744  50.585  1.00  0.00     0.142 C 
HETATM    4  C   UNL     1      27.882  41.930  51.290  1.00  0.00     0.097 C 
HETATM    5  C   UNL     1      26.741  42.586  50.757  1.00  0.00     0.160 C 
HETATM    6  N   UNL     1      26.157  41.906  49.765  1.00  0.00    -0.181 NA
HETATM    7  N   UNL     1      28.668  39.605  50.686  1.00  0.00    -0.343 N 
HETATM    8  C   UNL     1      28.395  38.466  49.924  1.00  0.00     0.021 C 
HETATM    9  C   UNL     1      29.194  37.233  50.276  1.00  0.00     0.069 C 
HETATM   10  C   UNL     1      27.445  38.499  48.957  1.00  0.00     0.061 C 
HETATM   11  H   UNL     1      29.251  39.433  51.506  1.00  0.00     0.167 HD
ENDROOT
BRANCH  10  12
HETATM   12  C   UNL     1      27.183  37.308  48.103  1.00  0.00     0.256 C 
HETATM   13  N   UNL     1      25.967  36.711  48.364  1.00  0.00    -0.323 N 
HETATM   14  H   UNL     1      25.399  37.098  49.104  1.00  0.00     0.169 HD
HETATM   15  O   UNL     1      28.027  36.952  47.289  1.00  0.00    -0.267 OA
BRANCH  13  16
HETATM   16  C   UNL     1      25.425  35.569  47.737  1.00  0.00     0.035 A 
HETATM   17  C   UNL     1      26.173  34.460  47.343  1.00  0.00     0.032 A 
HETATM   18  C   UNL     1      25.544  33.355  46.754  1.00  0.00     0.039 A 
HETATM   19  C   UNL     1      24.164  33.341  46.553  1.00  0.00     0.068 A 
HETATM   20  C   UNL     1      23.415  34.457  46.917  1.00  0.00     0.039 A 
HETATM   21  C   UNL     1      24.043  35.561  47.509  1.00  0.00     0.032 A 
BRANCH  19  22
HETATM   22  O   UNL     1      23.673  32.197  45.989  1.00  0.00    -0.356 OA
HETATM   23  C   UNL     1      24.521  31.055  46.030  1.00  0.00     0.210 C 
ENDBRANCH  19  22
ENDBRANCH  13  16
ENDBRANCH  10  12
BRANCH   1  24
HETATM   24  C   UNL     1      26.861  40.289  47.223  1.00  0.00    -0.029 A 
HETATM   25  C   UNL     1      25.801  40.382  46.308  1.00  0.00     0.010 A 
HETATM   26  C   UNL     1      26.015  40.870  45.016  1.00  0.00     0.007 A 
HETATM   27  C   UNL     1      27.295  41.254  44.601  1.00  0.00    -0.059 A 
HETATM   28  C   UNL     1      28.358  41.150  45.504  1.00  0.00     0.007 A 
HETATM   29  C   UNL     1      28.145  40.669  46.798  1.00  0.00     0.010 A 
BRANCH  27  30
HETATM   30  C   UNL     1      27.522  41.797  43.214  1.00  0.00     0.034 C 
HETATM   31  C   UNL     1      26.507  42.871  42.856  1.00  0.00     0.010 C 
ENDBRANCH  27  30
ENDBRANCH   1  24
BRANCH   4  32
HETATM   32  C   UNL     1      28.721  42.411  52.372  1.00  0.00     0.261 C 
HETATM   33  N   UNL     1      28.186  43.497  53.042  1.00  0.00    -0.323 N 
HETATM   34  H   UNL     1      27.237  43.744  52.789  1.00  0.00     0.169 HD
HETATM   35  O   UNL     1      29.769  41.839  52.646  1.00  0.00    -0.267 OA
BRANCH  33  36
HETATM   36  C   UNL     1      28.753  44.210  54.117  1.00  0.00     0.035 A 
HETATM   37  C   UNL     1      29.872  43.783  54.834  1.00  0.00     0.029 A 
HETATM   38  C   UNL     1      30.373  44.550  55.891  1.00  0.00     0.002 A 
HETATM   39  C   UNL     1      29.763  45.753  56.237  1.00  0.00     0.000 A 
HETATM   40  C   UNL     1      28.651  46.192  55.524  1.00  0.00     0.002 A 
HETATM   41  C   UNL     1      28.150  45.425  54.469  1.00  0.00     0.029 A 
ENDBRANCH  33  36
ENDBRANCH   4  32
TORSDOF 7
ENDMDL
