MODEL 1
REMARK VINA RESULT:      -8.9      0.000      0.000
REMARK  8 active torsions:
REMARK  status: ('A' for Active; 'I' for Inactive)
REMARK    1  A    between atoms: CG_8  and  CB_9 
REMARK    2  A    between atoms: CB_9  and  CA_10 
REMARK    3  A    between atoms: CA_10  and  N_11 
REMARK    4  A    between atoms: CA_10  and  C_14 
REMARK    5  A    between atoms: N_11  and  C_19 
REMARK    6  A    between atoms: C_14  and  O_15 
REMARK    7  A    between atoms: C_19  and  C_20 
REMARK    8  A    between atoms: C_22  and  C_23 
ROOT
ATOM      1  CA  TRP A   1      27.635  42.705  53.478  1.00  0.00     0.214 C 
ENDROOT
BRANCH   1   2
ATOM      2  CB  TRP A   1      28.806  43.701  53.377  1.00  0.00     0.076 C 
BRANCH   2   3
ATOM      3  CG  TRP A   1      29.066  44.536  54.596  1.00  0.00    -0.028 A 
ATOM      4  CD2 TRP A   1      30.001  44.324  55.666  1.00  0.00    -0.002 A 
ATOM      5  CE3 TRP A   1      30.978  43.347  55.962  1.00  0.00     0.014 A 
ATOM      6  CE2 TRP A   1      29.822  45.365  56.581  1.00  0.00     0.042 A 
ATOM      7  CZ3 TRP A   1      31.698  43.425  57.161  1.00  0.00     0.001 A 
ATOM      8  CH2 TRP A   1      31.477  44.466  58.057  1.00  0.00     0.002 A 
ATOM      9  CZ2 TRP A   1      30.542  45.463  57.777  1.00  0.00     0.030 A 
ATOM     10  NE1 TRP A   1      28.875  46.213  56.063  1.00  0.00    -0.365 N 
ATOM     11  HE1 TRP A   1      28.581  47.081  56.495  1.00  0.00     0.165 HD
ATOM     12  CD1 TRP A   1      28.399  45.714  54.882  1.00  0.00     0.096 A 
ENDBRANCH   2   3
ENDBRANCH   1   2
BRANCH   1  13
ATOM     13  N   TRP A   1      26.523  43.086  52.520  1.00  0.00    -0.064 N 
ATOM     14  H1  TRP A   1      26.904  43.374  51.607  1.00  0.00     0.278 HD
ATOM     15  H2  TRP A   1      25.984  42.218  52.351  1.00  0.00     0.278 HD
BRANCH  13  16
HETATM   16  C   UNK A   0      25.604  44.143  53.014  1.00  0.00     0.280 C 
BRANCH  16  17
HETATM   17  C   UNK A   0      25.664  45.383  52.205  1.00  0.00     0.027 A 
HETATM   18  S   UNK A   0      26.019  45.333  50.525  1.00  0.00    -0.076 SA
HETATM   19  C   UNK A   0      26.038  47.049  50.491  1.00  0.00     0.079 A 
HETATM   20  N   UNK A   0      25.735  47.637  51.627  1.00  0.00    -0.257 NA
HETATM   21  C   UNK A   0      25.522  46.695  52.606  1.00  0.00     0.133 A 
BRANCH  19  22
HETATM   22  C   UNK A   0      26.425  47.832  49.237  1.00  0.00     0.045 C 
HETATM   23  C   UNK A   0      25.608  49.135  48.986  1.00  0.00     0.011 C 
HETATM   24  C   UNK A   0      26.928  49.800  48.553  1.00  0.00     0.002 C 
HETATM   25  C   UNK A   0      27.637  48.789  49.471  1.00  0.00     0.011 C 
ENDBRANCH  19  22
ENDBRANCH  16  17
ENDBRANCH  13  16
ENDBRANCH   1  13
BRANCH   1  26
ATOM     26  C   TRP A   1      28.106  41.285  53.096  1.00  0.00     0.197 C 
BRANCH  26  27
ATOM     27  O   TRP A   1      27.059  40.660  52.344  1.00  0.00    -0.399 OA
ATOM     28  H   TRP A   1      27.436  39.853  51.936  1.00  0.00     0.209 HD
ENDBRANCH  26  27
ENDBRANCH   1  26
TORSDOF 8
ENDMDL
MODEL 2
REMARK VINA RESULT:      -8.2      1.888      2.448
REMARK  8 active torsions:
REMARK  status: ('A' for Active; 'I' for Inactive)
REMARK    1  A    between atoms: CG_8  and  CB_9 
REMARK    2  A    between atoms: CB_9  and  CA_10 
REMARK    3  A    between atoms: CA_10  and  N_11 
REMARK    4  A    between atoms: CA_10  and  C_14 
REMARK    5  A    between atoms: N_11  and  C_19 
REMARK    6  A    between atoms: C_14  and  O_15 
REMARK    7  A    between atoms: C_19  and  C_20 
REMARK    8  A    between atoms: C_22  and  C_23 
ROOT
ATOM      1  CA  TRP A   1      26.998  44.572  52.548  1.00  0.00     0.214 C 
ENDROOT
BRANCH   1   2
ATOM      2  CB  TRP A   1      28.316  44.104  53.194  1.00  0.00     0.076 C 
BRANCH   2   3
ATOM      3  CG  TRP A   1      28.713  44.807  54.459  1.00  0.00    -0.028 A 
ATOM      4  CD2 TRP A   1      29.706  44.444  55.432  1.00  0.00    -0.002 A 
ATOM      5  CE3 TRP A   1      30.638  43.392  55.565  1.00  0.00     0.014 A 
ATOM      6  CE2 TRP A   1      29.657  45.404  56.446  1.00  0.00     0.042 A 
ATOM      7  CZ3 TRP A   1      31.445  43.317  56.709  1.00  0.00     0.001 A 
ATOM      8  CH2 TRP A   1      31.354  44.282  57.707  1.00  0.00     0.002 A 
ATOM      9  CZ2 TRP A   1      30.464  45.351  57.588  1.00  0.00     0.030 A 
ATOM     10  NE1 TRP A   1      28.731  46.349  56.079  1.00  0.00    -0.365 N 
ATOM     11  HE1 TRP A   1      28.523  47.187  56.607  1.00  0.00     0.165 HD
ATOM     12  CD1 TRP A   1      28.143  45.989  54.898  1.00  0.00     0.096 A 
ENDBRANCH   2   3
ENDBRANCH   1   2
BRANCH   1  13
ATOM     13  N   TRP A   1      27.219  44.954  51.097  1.00  0.00    -0.064 N 
ATOM     14  H1  TRP A   1      27.649  45.886  51.021  1.00  0.00     0.278 HD
ATOM     15  H2  TRP A   1      27.916  44.281  50.730  1.00  0.00     0.278 HD
BRANCH  13  16
HETATM   16  C   UNK A   0      26.004  44.912  50.244  1.00  0.00     0.280 C 
BRANCH  16  17
HETATM   17  C   UNK A   0      25.457  46.259  49.955  1.00  0.00     0.027 A 
HETATM   18  S   UNK A   0      23.843  46.465  49.405  1.00  0.00    -0.076 SA
HETATM   19  C   UNK A   0      24.141  48.143  49.200  1.00  0.00     0.079 A 
HETATM   20  N   UNK A   0      25.332  48.553  49.576  1.00  0.00    -0.257 NA
HETATM   21  C   UNK A   0      26.086  47.485  50.006  1.00  0.00     0.133 A 
BRANCH  19  22
HETATM   22  C   UNK A   0      23.105  49.082  48.581  1.00  0.00     0.045 C 
HETATM   23  C   UNK A   0      22.434  50.078  49.573  1.00  0.00     0.011 C 
HETATM   24  C   UNK A   0      22.540  51.146  48.468  1.00  0.00     0.002 C 
HETATM   25  C   UNK A   0      23.748  50.352  47.939  1.00  0.00     0.011 C 
ENDBRANCH  19  22
ENDBRANCH  16  17
ENDBRANCH  13  16
ENDBRANCH   1  13
BRANCH   1  26
ATOM     26  C   TRP A   1      25.956  43.433  52.571  1.00  0.00     0.197 C 
BRANCH  26  27
ATOM     27  O   TRP A   1      24.957  43.767  53.541  1.00  0.00    -0.399 OA
ATOM     28  H   TRP A   1      24.812  42.972  54.095  1.00  0.00     0.209 HD
ENDBRANCH  26  27
ENDBRANCH   1  26
TORSDOF 8
ENDMDL
MODEL 3
REMARK VINA RESULT:      -8.2      2.463      3.875
REMARK  8 active torsions:
REMARK  status: ('A' for Active; 'I' for Inactive)
REMARK    1  A    between atoms: CG_8  and  CB_9 
REMARK    2  A    between atoms: CB_9  and  CA_10 
REMARK    3  A    between atoms: CA_10  and  N_11 
REMARK    4  A    between atoms: CA_10  and  C_14 
REMARK    5  A    between atoms: N_11  and  C_19 
REMARK    6  A    between atoms: C_14  and  O_15 
REMARK    7  A    between atoms: C_19  and  C_20 
REMARK    8  A    between atoms: C_22  and  C_23 
ROOT
ATOM      1  CA  TRP A   1      26.338  46.062  52.764  1.00  0.00     0.214 C 
ENDROOT
BRANCH   1   2
ATOM      2  CB  TRP A   1      26.129  44.824  53.657  1.00  0.00     0.076 C 
BRANCH   2   3
ATOM      3  CG  TRP A   1      27.358  44.018  53.961  1.00  0.00    -0.028 A 
ATOM      4  CD2 TRP A   1      28.498  44.359  54.766  1.00  0.00    -0.002 A 
ATOM      5  CE3 TRP A   1      28.877  45.477  55.542  1.00  0.00     0.014 A 
ATOM      6  CE2 TRP A   1      29.387  43.283  54.694  1.00  0.00     0.042 A 
ATOM      7  CZ3 TRP A   1      30.128  45.493  56.173  1.00  0.00     0.001 A 
ATOM      8  CH2 TRP A   1      30.994  44.411  56.063  1.00  0.00     0.002 A 
ATOM      9  CZ2 TRP A   1      30.635  43.280  55.329  1.00  0.00     0.030 A 
ATOM     10  NE1 TRP A   1      28.790  42.301  53.943  1.00  0.00    -0.365 N 
ATOM     11  HE1 TRP A   1      29.191  41.388  53.766  1.00  0.00     0.165 HD
ATOM     12  CD1 TRP A   1      27.581  42.740  53.480  1.00  0.00     0.096 A 
ENDBRANCH   2   3
ENDBRANCH   1   2
BRANCH   1  13
ATOM     13  N   TRP A   1      25.657  45.874  51.422  1.00  0.00    -0.064 N 
ATOM     14  H1  TRP A   1      25.353  44.898  51.295  1.00  0.00     0.278 HD
ATOM     15  H2  TRP A   1      24.794  46.445  51.459  1.00  0.00     0.278 HD
BRANCH  13  16
HETATM   16  C   UNK A   0      26.465  46.284  50.245  1.00  0.00     0.280 C 
BRANCH  16  17
HETATM   17  C   UNK A   0      26.047  47.591  49.686  1.00  0.00     0.027 A 
HETATM   18  S   UNK A   0      24.388  48.016  49.562  1.00  0.00    -0.076 SA
HETATM   19  C   UNK A   0      24.831  49.455  48.739  1.00  0.00     0.079 A 
HETATM   20  N   UNK A   0      26.124  49.657  48.616  1.00  0.00    -0.257 NA
HETATM   21  C   UNK A   0      26.822  48.600  49.153  1.00  0.00     0.133 A 
BRANCH  19  22
HETATM   22  C   UNK A   0      23.790  50.409  48.152  1.00  0.00     0.045 C 
HETATM   23  C   UNK A   0      22.437  49.751  47.747  1.00  0.00     0.011 C 
HETATM   24  C   UNK A   0      21.736  50.994  48.327  1.00  0.00     0.002 C 
HETATM   25  C   UNK A   0      22.958  51.145  49.249  1.00  0.00     0.011 C 
ENDBRANCH  19  22
ENDBRANCH  16  17
ENDBRANCH  13  16
ENDBRANCH   1  13
BRANCH   1  26
ATOM     26  C   TRP A   1      25.717  47.311  53.425  1.00  0.00     0.197 C 
BRANCH  26  27
ATOM     27  O   TRP A   1      25.842  47.168  54.845  1.00  0.00    -0.399 OA
ATOM     28  H   TRP A   1      25.213  47.797  55.256  1.00  0.00     0.209 HD
ENDBRANCH  26  27
ENDBRANCH   1  26
TORSDOF 8
ENDMDL
MODEL 4
REMARK VINA RESULT:      -7.8      1.597      2.180
REMARK  8 active torsions:
REMARK  status: ('A' for Active; 'I' for Inactive)
REMARK    1  A    between atoms: CG_8  and  CB_9 
REMARK    2  A    between atoms: CB_9  and  CA_10 
REMARK    3  A    between atoms: CA_10  and  N_11 
REMARK    4  A    between atoms: CA_10  and  C_14 
REMARK    5  A    between atoms: N_11  and  C_19 
REMARK    6  A    between atoms: C_14  and  O_15 
REMARK    7  A    between atoms: C_19  and  C_20 
REMARK    8  A    between atoms: C_22  and  C_23 
ROOT
ATOM      1  CA  TRP A   1      27.057  43.202  53.352  1.00  0.00     0.214 C 
ENDROOT
BRANCH   1   2
ATOM      2  CB  TRP A   1      28.218  44.214  53.329  1.00  0.00     0.076 C 
BRANCH   2   3
ATOM      3  CG  TRP A   1      29.239  44.069  54.420  1.00  0.00    -0.028 A 
ATOM      4  CD2 TRP A   1      29.349  44.772  55.667  1.00  0.00    -0.002 A 
ATOM      5  CE3 TRP A   1      28.598  45.775  56.320  1.00  0.00     0.014 A 
ATOM      6  CE2 TRP A   1      30.497  44.298  56.306  1.00  0.00     0.042 A 
ATOM      7  CZ3 TRP A   1      29.039  46.286  57.548  1.00  0.00     0.001 A 
ATOM      8  CH2 TRP A   1      30.199  45.802  58.144  1.00  0.00     0.002 A 
ATOM      9  CZ2 TRP A   1      30.945  44.790  57.538  1.00  0.00     0.030 A 
ATOM     10  NE1 TRP A   1      31.025  43.301  55.524  1.00  0.00    -0.365 N 
ATOM     11  HE1 TRP A   1      31.837  42.747  55.768  1.00  0.00     0.165 HD
ATOM     12  CD1 TRP A   1      30.290  43.170  54.378  1.00  0.00     0.096 A 
ENDBRANCH   2   3
ENDBRANCH   1   2
BRANCH   1  13
ATOM     13  N   TRP A   1      25.788  43.832  52.812  1.00  0.00    -0.064 N 
ATOM     14  H1  TRP A   1      24.961  43.269  53.059  1.00  0.00     0.278 HD
ATOM     15  H2  TRP A   1      25.685  44.735  53.310  1.00  0.00     0.278 HD
BRANCH  13  16
HETATM   16  C   UNK A   0      25.783  44.078  51.347  1.00  0.00     0.280 C 
BRANCH  16  17
HETATM   17  C   UNK A   0      25.251  45.414  50.989  1.00  0.00     0.027 A 
HETATM   18  S   UNK A   0      24.411  45.671  49.513  1.00  0.00    -0.076 SA
HETATM   19  C   UNK A   0      24.344  47.351  49.859  1.00  0.00     0.079 A 
HETATM   20  N   UNK A   0      24.846  47.706  51.021  1.00  0.00    -0.257 NA
HETATM   21  C   UNK A   0      25.364  46.609  51.669  1.00  0.00     0.133 A 
BRANCH  19  22
HETATM   22  C   UNK A   0      23.781  48.364  48.862  1.00  0.00     0.045 C 
HETATM   23  C   UNK A   0      22.770  49.390  49.455  1.00  0.00     0.011 C 
HETATM   24  C   UNK A   0      23.447  50.462  48.580  1.00  0.00     0.002 C 
HETATM   25  C   UNK A   0      24.717  49.596  48.657  1.00  0.00     0.011 C 
ENDBRANCH  19  22
ENDBRANCH  16  17
ENDBRANCH  13  16
ENDBRANCH   1  13
BRANCH   1  26
ATOM     26  C   TRP A   1      27.386  41.989  52.456  1.00  0.00     0.197 C 
BRANCH  26  27
ATOM     27  O   TRP A   1      27.400  40.819  53.283  1.00  0.00    -0.399 OA
ATOM     28  H   TRP A   1      26.595  40.848  53.840  1.00  0.00     0.209 HD
ENDBRANCH  26  27
ENDBRANCH   1  26
TORSDOF 8
ENDMDL
MODEL 5
REMARK VINA RESULT:      -7.7      4.252      5.934
REMARK  8 active torsions:
REMARK  status: ('A' for Active; 'I' for Inactive)
REMARK    1  A    between atoms: CG_8  and  CB_9 
REMARK    2  A    between atoms: CB_9  and  CA_10 
REMARK    3  A    between atoms: CA_10  and  N_11 
REMARK    4  A    between atoms: CA_10  and  C_14 
REMARK    5  A    between atoms: N_11  and  C_19 
REMARK    6  A    between atoms: C_14  and  O_15 
REMARK    7  A    between atoms: C_19  and  C_20 
REMARK    8  A    between atoms: C_22  and  C_23 
ROOT
ATOM      1  CA  TRP A   1      25.181  46.500  50.443  1.00  0.00     0.214 C 
ENDROOT
BRANCH   1   2
ATOM      2  CB  TRP A   1      25.233  46.429  51.982  1.00  0.00     0.076 C 
BRANCH   2   3
ATOM      3  CG  TRP A   1      26.283  45.528  52.563  1.00  0.00    -0.028 A 
ATOM      4  CD2 TRP A   1      27.153  45.746  53.685  1.00  0.00    -0.002 A 
ATOM      5  CE3 TRP A   1      27.339  46.789  54.620  1.00  0.00     0.014 A 
ATOM      6  CE2 TRP A   1      27.976  44.622  53.790  1.00  0.00     0.042 A 
ATOM      7  CZ3 TRP A   1      28.351  46.687  55.583  1.00  0.00     0.001 A 
ATOM      8  CH2 TRP A   1      29.164  45.560  55.644  1.00  0.00     0.002 A 
ATOM      9  CZ2 TRP A   1      28.984  44.500  54.755  1.00  0.00     0.030 A 
ATOM     10  NE1 TRP A   1      27.581  43.727  52.827  1.00  0.00    -0.365 N 
ATOM     11  HE1 TRP A   1      27.976  42.802  52.704  1.00  0.00     0.165 HD
ATOM     12  CD1 TRP A   1      26.579  44.269  52.071  1.00  0.00     0.096 A 
ENDBRANCH   2   3
ENDBRANCH   1   2
BRANCH   1  13
ATOM     13  N   TRP A   1      23.826  46.993  49.976  1.00  0.00    -0.064 N 
ATOM     14  H1  TRP A   1      23.343  46.275  49.417  1.00  0.00     0.278 HD
ATOM     15  H2  TRP A   1      23.260  47.124  50.834  1.00  0.00     0.278 HD
BRANCH  13  16
HETATM   16  C   UNK A   0      23.851  48.264  49.208  1.00  0.00     0.280 C 
BRANCH  16  17
HETATM   17  C   UNK A   0      22.532  48.939  49.168  1.00  0.00     0.027 A 
HETATM   18  S   UNK A   0      22.387  50.627  49.450  1.00  0.00    -0.076 SA
HETATM   19  C   UNK A   0      20.679  50.480  49.379  1.00  0.00     0.079 A 
HETATM   20  N   UNK A   0      20.230  49.277  49.096  1.00  0.00    -0.257 NA
HETATM   21  C   UNK A   0      21.279  48.396  48.976  1.00  0.00     0.133 A 
BRANCH  19  22
HETATM   22  C   UNK A   0      19.749  51.658  49.668  1.00  0.00     0.045 C 
HETATM   23  C   UNK A   0      19.183  52.385  48.412  1.00  0.00     0.011 C 
HETATM   24  C   UNK A   0      17.836  52.477  49.153  1.00  0.00     0.002 C 
HETATM   25  C   UNK A   0      18.273  51.216  49.920  1.00  0.00     0.011 C 
ENDBRANCH  19  22
ENDBRANCH  16  17
ENDBRANCH  13  16
ENDBRANCH   1  13
BRANCH   1  26
ATOM     26  C   TRP A   1      26.239  47.493  49.917  1.00  0.00     0.197 C 
BRANCH  26  27
ATOM     27  O   TRP A   1      27.257  46.741  49.246  1.00  0.00    -0.399 OA
ATOM     28  H   TRP A   1      26.814  45.998  48.787  1.00  0.00     0.209 HD
ENDBRANCH  26  27
ENDBRANCH   1  26
TORSDOF 8
ENDMDL
MODEL 6
REMARK VINA RESULT:      -7.6      3.168      4.271
REMARK  8 active torsions:
REMARK  status: ('A' for Active; 'I' for Inactive)
REMARK    1  A    between atoms: CG_8  and  CB_9 
REMARK    2  A    between atoms: CB_9  and  CA_10 
REMARK    3  A    between atoms: CA_10  and  N_11 
REMARK    4  A    between atoms: CA_10  and  C_14 
REMARK    5  A    between atoms: N_11  and  C_19 
REMARK    6  A    between atoms: C_14  and  O_15 
REMARK    7  A    between atoms: C_19  and  C_20 
REMARK    8  A    between atoms: C_22  and  C_23 
ROOT
ATOM      1  CA  TRP A   1      24.789  44.148  51.528  1.00  0.00     0.214 C 
ENDROOT
BRANCH   1   2
ATOM      2  CB  TRP A   1      26.294  44.436  51.366  1.00  0.00     0.076 C 
BRANCH   2   3
ATOM      3  CG  TRP A   1      27.058  44.672  52.636  1.00  0.00    -0.028 A 
ATOM      4  CD2 TRP A   1      28.276  44.066  53.095  1.00  0.00    -0.002 A 
ATOM      5  CE3 TRP A   1      29.176  43.109  52.574  1.00  0.00     0.014 A 
ATOM      6  CE2 TRP A   1      28.549  44.597  54.358  1.00  0.00     0.042 A 
ATOM      7  CZ3 TRP A   1      30.274  42.696  53.341  1.00  0.00     0.001 A 
ATOM      8  CH2 TRP A   1      30.501  43.234  54.603  1.00  0.00     0.002 A 
ATOM      9  CZ2 TRP A   1      29.648  44.204  55.131  1.00  0.00     0.030 A 
ATOM     10  NE1 TRP A   1      27.586  45.536  54.630  1.00  0.00    -0.365 N 
ATOM     11  HE1 TRP A   1      27.563  46.114  55.461  1.00  0.00     0.165 HD
ATOM     12  CD1 TRP A   1      26.673  45.574  53.612  1.00  0.00     0.096 A 
ENDBRANCH   2   3
ENDBRANCH   1   2
BRANCH   1  13
ATOM     13  N   TRP A   1      23.962  45.272  50.934  1.00  0.00    -0.064 N 
ATOM     14  H1  TRP A   1      23.169  44.902  50.392  1.00  0.00     0.278 HD
ATOM     15  H2  TRP A   1      23.553  45.779  51.740  1.00  0.00     0.278 HD
BRANCH  13  16
HETATM   16  C   UNK A   0      24.720  46.229  50.088  1.00  0.00     0.280 C 
BRANCH  16  17
HETATM   17  C   UNK A   0      23.843  47.051  49.222  1.00  0.00     0.027 A 
HETATM   18  S   UNK A   0      23.922  48.767  49.248  1.00  0.00    -0.076 SA
HETATM   19  C   UNK A   0      22.581  48.833  48.178  1.00  0.00     0.079 A 
HETATM   20  N   UNK A   0      22.136  47.667  47.763  1.00  0.00    -0.257 NA
HETATM   21  C   UNK A   0      22.849  46.650  48.354  1.00  0.00     0.133 A 
BRANCH  19  22
HETATM   22  C   UNK A   0      21.928  50.154  47.775  1.00  0.00     0.045 C 
HETATM   23  C   UNK A   0      20.372  50.134  47.707  1.00  0.00     0.011 C 
HETATM   24  C   UNK A   0      20.392  51.533  48.352  1.00  0.00     0.002 C 
HETATM   25  C   UNK A   0      21.736  51.127  48.982  1.00  0.00     0.011 C 
ENDBRANCH  19  22
ENDBRANCH  16  17
ENDBRANCH  13  16
ENDBRANCH   1  13
BRANCH   1  26
ATOM     26  C   TRP A   1      24.408  42.852  50.780  1.00  0.00     0.197 C 
BRANCH  26  27
ATOM     27  O   TRP A   1      22.981  42.818  50.652  1.00  0.00    -0.399 OA
ATOM     28  H   TRP A   1      22.694  41.903  50.844  1.00  0.00     0.209 HD
ENDBRANCH  26  27
ENDBRANCH   1  26
TORSDOF 8
ENDMDL
MODEL 7
REMARK VINA RESULT:      -7.5      3.150      5.608
REMARK  8 active torsions:
REMARK  status: ('A' for Active; 'I' for Inactive)
REMARK    1  A    between atoms: CG_8  and  CB_9 
REMARK    2  A    between atoms: CB_9  and  CA_10 
REMARK    3  A    between atoms: CA_10  and  N_11 
REMARK    4  A    between atoms: CA_10  and  C_14 
REMARK    5  A    between atoms: N_11  and  C_19 
REMARK    6  A    between atoms: C_14  and  O_15 
REMARK    7  A    between atoms: C_19  and  C_20 
REMARK    8  A    between atoms: C_22  and  C_23 
ROOT
ATOM      1  CA  TRP A   1      25.981  44.994  52.610  1.00  0.00     0.214 C 
ENDROOT
BRANCH   1   2
ATOM      2  CB  TRP A   1      25.944  45.484  54.070  1.00  0.00     0.076 C 
BRANCH   2   3
ATOM      3  CG  TRP A   1      27.274  45.626  54.750  1.00  0.00    -0.028 A 
ATOM      4  CD2 TRP A   1      28.358  44.688  54.841  1.00  0.00    -0.002 A 
ATOM      5  CE3 TRP A   1      28.596  43.384  54.352  1.00  0.00     0.014 A 
ATOM      6  CE2 TRP A   1      29.354  45.284  55.618  1.00  0.00     0.042 A 
ATOM      7  CZ3 TRP A   1      29.784  42.721  54.689  1.00  0.00     0.001 A 
ATOM      8  CH2 TRP A   1      30.744  43.341  55.482  1.00  0.00     0.002 A 
ATOM      9  CZ2 TRP A   1      30.551  44.640  55.953  1.00  0.00     0.030 A 
ATOM     10  NE1 TRP A   1      28.933  46.554  55.928  1.00  0.00    -0.365 N 
ATOM     11  HE1 TRP A   1      29.479  47.231  56.446  1.00  0.00     0.165 HD
ATOM     12  CD1 TRP A   1      27.676  46.762  55.430  1.00  0.00     0.096 A 
ENDBRANCH   2   3
ENDBRANCH   1   2
BRANCH   1  13
ATOM     13  N   TRP A   1      25.461  43.573  52.510  1.00  0.00    -0.064 N 
ATOM     14  H1  TRP A   1      26.029  42.929  53.080  1.00  0.00     0.278 HD
ATOM     15  H2  TRP A   1      24.517  43.585  52.938  1.00  0.00     0.278 HD
BRANCH  13  16
HETATM   16  C   UNK A   0      25.364  43.036  51.129  1.00  0.00     0.280 C 
BRANCH  16  17
HETATM   17  C   UNK A   0      26.490  42.139  50.779  1.00  0.00     0.027 A 
HETATM   18  S   UNK A   0      26.910  41.835  49.141  1.00  0.00    -0.076 SA
HETATM   19  C   UNK A   0      28.074  40.688  49.665  1.00  0.00     0.079 A 
HETATM   20  N   UNK A   0      28.205  40.575  50.969  1.00  0.00    -0.257 NA
HETATM   21  C   UNK A   0      27.306  41.398  51.608  1.00  0.00     0.133 A 
BRANCH  19  22
HETATM   22  C   UNK A   0      28.868  39.829  48.682  1.00  0.00     0.045 C 
HETATM   23  C   UNK A   0      29.345  38.453  49.234  1.00  0.00     0.011 C 
HETATM   24  C   UNK A   0      28.980  37.851  47.864  1.00  0.00     0.002 C 
HETATM   25  C   UNK A   0      27.951  38.988  47.738  1.00  0.00     0.011 C 
ENDBRANCH  19  22
ENDBRANCH  16  17
ENDBRANCH  13  16
ENDBRANCH   1  13
BRANCH   1  26
ATOM     26  C   TRP A   1      25.078  45.879  51.724  1.00  0.00     0.197 C 
BRANCH  26  27
ATOM     27  O   TRP A   1      25.336  47.248  52.059  1.00  0.00    -0.399 OA
ATOM     28  H   TRP A   1      24.733  47.797  51.518  1.00  0.00     0.209 HD
ENDBRANCH  26  27
ENDBRANCH   1  26
TORSDOF 8
ENDMDL
MODEL 8
REMARK VINA RESULT:      -7.5      2.524      2.910
REMARK  8 active torsions:
REMARK  status: ('A' for Active; 'I' for Inactive)
REMARK    1  A    between atoms: CG_8  and  CB_9 
REMARK    2  A    between atoms: CB_9  and  CA_10 
REMARK    3  A    between atoms: CA_10  and  N_11 
REMARK    4  A    between atoms: CA_10  and  C_14 
REMARK    5  A    between atoms: N_11  and  C_19 
REMARK    6  A    between atoms: C_14  and  O_15 
REMARK    7  A    between atoms: C_19  and  C_20 
REMARK    8  A    between atoms: C_22  and  C_23 
ROOT
ATOM      1  CA  TRP A   1      27.739  42.520  53.574  1.00  0.00     0.214 C 
ENDROOT
BRANCH   1   2
ATOM      2  CB  TRP A   1      28.762  43.656  53.378  1.00  0.00     0.076 C 
BRANCH   2   3
ATOM      3  CG  TRP A   1      29.033  44.511  54.581  1.00  0.00    -0.028 A 
ATOM      4  CD2 TRP A   1      29.983  44.321  55.641  1.00  0.00    -0.002 A 
ATOM      5  CE3 TRP A   1      30.969  43.355  55.940  1.00  0.00     0.014 A 
ATOM      6  CE2 TRP A   1      29.809  45.375  56.542  1.00  0.00     0.042 A 
ATOM      7  CZ3 TRP A   1      31.704  43.455  57.128  1.00  0.00     0.001 A 
ATOM      8  CH2 TRP A   1      31.489  44.509  58.010  1.00  0.00     0.002 A 
ATOM      9  CZ2 TRP A   1      30.544  45.496  57.727  1.00  0.00     0.030 A 
ATOM     10  NE1 TRP A   1      28.851  46.210  56.023  1.00  0.00    -0.365 N 
ATOM     11  HE1 TRP A   1      28.558  47.082  56.446  1.00  0.00     0.165 HD
ATOM     12  CD1 TRP A   1      28.363  45.690  54.856  1.00  0.00     0.096 A 
ENDBRANCH   2   3
ENDBRANCH   1   2
BRANCH   1  13
ATOM     13  N   TRP A   1      26.492  42.775  52.751  1.00  0.00    -0.064 N 
ATOM     14  H1  TRP A   1      26.140  41.902  52.332  1.00  0.00     0.278 HD
ATOM     15  H2  TRP A   1      25.768  43.088  53.423  1.00  0.00     0.278 HD
BRANCH  13  16
HETATM   16  C   UNK A   0      26.642  43.796  51.683  1.00  0.00     0.280 C 
BRANCH  16  17
HETATM   17  C   UNK A   0      25.460  43.878  50.793  1.00  0.00     0.027 A 
HETATM   18  S   UNK A   0      25.376  45.038  49.529  1.00  0.00    -0.076 SA
HETATM   19  C   UNK A   0      23.766  44.544  49.200  1.00  0.00     0.079 A 
HETATM   20  N   UNK A   0      23.327  43.538  49.924  1.00  0.00    -0.257 NA
HETATM   21  C   UNK A   0      24.286  43.155  50.833  1.00  0.00     0.133 A 
BRANCH  19  22
HETATM   22  C   UNK A   0      22.893  45.256  48.167  1.00  0.00     0.045 C 
HETATM   23  C   UNK A   0      21.367  44.958  48.265  1.00  0.00     0.011 C 
HETATM   24  C   UNK A   0      21.124  46.451  47.974  1.00  0.00     0.002 C 
HETATM   25  C   UNK A   0      22.508  46.706  48.597  1.00  0.00     0.011 C 
ENDBRANCH  19  22
ENDBRANCH  16  17
ENDBRANCH  13  16
ENDBRANCH   1  13
BRANCH   1  26
ATOM     26  C   TRP A   1      28.335  41.176  53.103  1.00  0.00     0.197 C 
BRANCH  26  27
ATOM     27  O   TRP A   1      29.252  41.448  52.036  1.00  0.00    -0.399 OA
ATOM     28  H   TRP A   1      29.979  41.987  52.409  1.00  0.00     0.209 HD
ENDBRANCH  26  27
ENDBRANCH   1  26
TORSDOF 8
ENDMDL
MODEL 9
REMARK VINA RESULT:      -7.5      2.848      3.380
REMARK  8 active torsions:
REMARK  status: ('A' for Active; 'I' for Inactive)
REMARK    1  A    between atoms: CG_8  and  CB_9 
REMARK    2  A    between atoms: CB_9  and  CA_10 
REMARK    3  A    between atoms: CA_10  and  N_11 
REMARK    4  A    between atoms: CA_10  and  C_14 
REMARK    5  A    between atoms: N_11  and  C_19 
REMARK    6  A    between atoms: C_14  and  O_15 
REMARK    7  A    between atoms: C_19  and  C_20 
REMARK    8  A    between atoms: C_22  and  C_23 
ROOT
ATOM      1  CA  TRP A   1      27.431  42.892  53.584  1.00  0.00     0.214 C 
ENDROOT
BRANCH   1   2
ATOM      2  CB  TRP A   1      28.388  44.083  53.383  1.00  0.00     0.076 C 
BRANCH   2   3
ATOM      3  CG  TRP A   1      28.812  44.803  54.629  1.00  0.00    -0.028 A 
ATOM      4  CD2 TRP A   1      29.812  44.445  55.595  1.00  0.00    -0.002 A 
ATOM      5  CE3 TRP A   1      30.731  43.381  55.737  1.00  0.00     0.014 A 
ATOM      6  CE2 TRP A   1      29.791  45.425  56.591  1.00  0.00     0.042 A 
ATOM      7  CZ3 TRP A   1      31.551  43.317  56.871  1.00  0.00     0.001 A 
ATOM      8  CH2 TRP A   1      31.488  44.302  57.851  1.00  0.00     0.002 A 
ATOM      9  CZ2 TRP A   1      30.613  45.382  57.724  1.00  0.00     0.030 A 
ATOM     10  NE1 TRP A   1      28.874  46.376  56.217  1.00  0.00    -0.365 N 
ATOM     11  HE1 TRP A   1      28.686  47.227  56.732  1.00  0.00     0.165 HD
ATOM     12  CD1 TRP A   1      28.265  46.002  55.051  1.00  0.00     0.096 A 
ENDBRANCH   2   3
ENDBRANCH   1   2
BRANCH   1  13
ATOM     13  N   TRP A   1      26.244  42.995  52.646  1.00  0.00    -0.064 N 
ATOM     14  H1  TRP A   1      26.469  42.602  51.721  1.00  0.00     0.278 HD
ATOM     15  H2  TRP A   1      25.509  42.386  53.050  1.00  0.00     0.278 HD
BRANCH  13  16
HETATM   16  C   UNK A   0      25.701  44.366  52.469  1.00  0.00     0.280 C 
BRANCH  16  17
HETATM   17  C   UNK A   0      24.802  44.483  51.297  1.00  0.00     0.027 A 
HETATM   18  S   UNK A   0      24.011  43.106  50.641  1.00  0.00    -0.076 SA
HETATM   19  C   UNK A   0      23.404  44.079  49.364  1.00  0.00     0.079 A 
HETATM   20  N   UNK A   0      23.701  45.358  49.441  1.00  0.00    -0.257 NA
HETATM   21  C   UNK A   0      24.497  45.594  50.539  1.00  0.00     0.133 A 
BRANCH  19  22
HETATM   22  C   UNK A   0      22.612  43.488  48.198  1.00  0.00     0.045 C 
HETATM   23  C   UNK A   0      23.239  43.707  46.788  1.00  0.00     0.011 C 
HETATM   24  C   UNK A   0      22.823  42.262  46.453  1.00  0.00     0.002 C 
HETATM   25  C   UNK A   0      22.923  41.976  47.961  1.00  0.00     0.011 C 
ENDBRANCH  19  22
ENDBRANCH  16  17
ENDBRANCH  13  16
ENDBRANCH   1  13
BRANCH   1  26
ATOM     26  C   TRP A   1      28.154  41.564  53.269  1.00  0.00     0.197 C 
BRANCH  26  27
ATOM     27  O   TRP A   1      27.231  40.712  52.580  1.00  0.00    -0.399 OA
ATOM     28  H   TRP A   1      26.879  40.076  53.236  1.00  0.00     0.209 HD
ENDBRANCH  26  27
ENDBRANCH   1  26
TORSDOF 8
ENDMDL
MODEL 10
REMARK VINA RESULT:      -7.4      2.845      4.781
REMARK  8 active torsions:
REMARK  status: ('A' for Active; 'I' for Inactive)
REMARK    1  A    between atoms: CG_8  and  CB_9 
REMARK    2  A    between atoms: CB_9  and  CA_10 
REMARK    3  A    between atoms: CA_10  and  N_11 
REMARK    4  A    between atoms: CA_10  and  C_14 
REMARK    5  A    between atoms: N_11  and  C_19 
REMARK    6  A    between atoms: C_14  and  O_15 
REMARK    7  A    between atoms: C_19  and  C_20 
REMARK    8  A    between atoms: C_22  and  C_23 
ROOT
ATOM      1  CA  TRP A   1      26.599  45.209  53.609  1.00  0.00     0.214 C 
ENDROOT
BRANCH   1   2
ATOM      2  CB  TRP A   1      27.997  44.638  53.911  1.00  0.00     0.076 C 
BRANCH   2   3
ATOM      3  CG  TRP A   1      28.641  45.113  55.181  1.00  0.00    -0.028 A 
ATOM      4  CD2 TRP A   1      29.768  44.574  55.890  1.00  0.00    -0.002 A 
ATOM      5  CE3 TRP A   1      30.657  43.496  55.685  1.00  0.00     0.014 A 
ATOM      6  CE2 TRP A   1      29.943  45.354  57.037  1.00  0.00     0.042 A 
ATOM      7  CZ3 TRP A   1      31.644  43.217  56.640  1.00  0.00     0.001 A 
ATOM      8  CH2 TRP A   1      31.774  44.004  57.779  1.00  0.00     0.002 A 
ATOM      9  CZ2 TRP A   1      30.931  45.095  57.993  1.00  0.00     0.030 A 
ATOM     10  NE1 TRP A   1      29.014  46.364  56.996  1.00  0.00    -0.365 N 
ATOM     11  HE1 TRP A   1      28.942  47.107  57.680  1.00  0.00     0.165 HD
ATOM     12  CD1 TRP A   1      28.214  46.217  55.897  1.00  0.00     0.096 A 
ENDBRANCH   2   3
ENDBRANCH   1   2
BRANCH   1  13
ATOM     13  N   TRP A   1      26.373  45.305  52.112  1.00  0.00    -0.064 N 
ATOM     14  H1  TRP A   1      26.043  46.244  51.847  1.00  0.00     0.278 HD
ATOM     15  H2  TRP A   1      27.305  45.190  51.676  1.00  0.00     0.278 HD
BRANCH  13  16
HETATM   16  C   UNK A   0      25.443  44.292  51.552  1.00  0.00     0.280 C 
BRANCH  16  17
HETATM   17  C   UNK A   0      26.128  43.282  50.712  1.00  0.00     0.027 A 
HETATM   18  S   UNK A   0      26.840  41.882  51.406  1.00  0.00    -0.076 SA
HETATM   19  C   UNK A   0      27.468  41.453  49.867  1.00  0.00     0.079 A 
HETATM   20  N   UNK A   0      27.124  42.248  48.879  1.00  0.00    -0.257 NA
HETATM   21  C   UNK A   0      26.362  43.291  49.353  1.00  0.00     0.133 A 
BRANCH  19  22
HETATM   22  C   UNK A   0      28.397  40.255  49.674  1.00  0.00     0.045 C 
HETATM   23  C   UNK A   0      27.690  38.869  49.599  1.00  0.00     0.011 C 
HETATM   24  C   UNK A   0      28.678  38.501  48.475  1.00  0.00     0.002 C 
HETATM   25  C   UNK A   0      28.762  40.008  48.176  1.00  0.00     0.011 C 
ENDBRANCH  19  22
ENDBRANCH  16  17
ENDBRANCH  13  16
ENDBRANCH   1  13
BRANCH   1  26
ATOM     26  C   TRP A   1      25.505  44.282  54.182  1.00  0.00     0.197 C 
BRANCH  26  27
ATOM     27  O   TRP A   1      26.151  43.136  54.749  1.00  0.00    -0.399 OA
ATOM     28  H   TRP A   1      25.572  42.800  55.464  1.00  0.00     0.209 HD
ENDBRANCH  26  27
ENDBRANCH   1  26
TORSDOF 8
ENDMDL
