MODEL 1
REMARK VINA RESULT:      -8.8      0.000      0.000
REMARK  5 active torsions:
REMARK  status: ('A' for Active; 'I' for Inactive)
REMARK    1  A    between atoms: C_5  and  C_6 
REMARK    2  A    between atoms: C_6  and  C_7 
REMARK       I    between atoms: C_7  and  N_8 
REMARK    3  A    between atoms: N_8  and  C_9 
REMARK    4  A    between atoms: C_12  and  O_13 
REMARK    5  A    between atoms: O_13  and  C_14 
ROOT
HETATM    1  C   UNL     1      28.099  43.413  52.672  1.00  0.00     0.076 A 
HETATM    2  C   UNL     1      27.831  44.173  53.811  1.00  0.00     0.039 A 
HETATM    3  C   UNL     1      28.776  44.246  54.836  1.00  0.00     0.025 A 
HETATM    4  C   UNL     1      29.983  43.544  54.727  1.00  0.00     0.044 A 
HETATM    5  C   UNL     1      30.954  43.617  55.781  1.00  0.00     0.099 C 
HETATM    6  N   UNL     1      31.738  43.679  56.633  1.00  0.00    -0.191 NA
HETATM    7  C   UNL     1      30.236  42.765  53.591  1.00  0.00     0.025 A 
HETATM    8  C   UNL     1      29.288  42.690  52.567  1.00  0.00     0.039 A 
ENDROOT
BRANCH   1   9
HETATM    9  O   UNL     1      27.111  43.326  51.723  1.00  0.00    -0.311 OA
BRANCH   9  10
HETATM   10  C   UNL     1      26.645  44.486  51.144  1.00  0.00     0.076 A 
HETATM   11  C   UNL     1      25.508  45.037  51.735  1.00  0.00     0.039 A 
HETATM   12  C   UNL     1      24.978  46.246  51.271  1.00  0.00     0.032 A 
HETATM   13  C   UNL     1      25.583  46.923  50.212  1.00  0.00     0.034 A 
HETATM   14  C   UNL     1      26.726  46.366  49.623  1.00  0.00     0.032 A 
HETATM   15  C   UNL     1      27.264  45.161  50.093  1.00  0.00     0.039 A 
BRANCH  13  16
HETATM   16  N   UNL     1      25.128  48.157  49.699  1.00  0.00    -0.327 N 
HETATM   17  C   UNL     1      23.885  48.437  49.153  1.00  0.00     0.227 C 
HETATM   18  O   UNL     1      22.963  47.636  49.005  1.00  0.00    -0.273 OA
HETATM   19  H   UNL     1      25.790  48.922  49.750  1.00  0.00     0.169 HD
BRANCH  17  20
HETATM   20  C   UNL     1      23.721  49.907  48.757  1.00  0.00     0.159 C 
BRANCH  20  21
HETATM   21  C   UNL     1      22.354  50.432  49.069  1.00  0.00     0.017 A 
HETATM   22  N   UNL     1      21.779  50.297  50.315  1.00  0.00    -0.369 N 
HETATM   23  C   UNL     1      20.544  50.886  50.319  1.00  0.00     0.088 A 
HETATM   24  H   UNL     1      22.209  49.809  51.096  1.00  0.00     0.165 HD
HETATM   25  C   UNL     1      20.321  51.418  49.071  1.00  0.00     0.019 A 
HETATM   26  C   UNL     1      21.461  51.134  48.282  1.00  0.00     0.027 A 
ENDBRANCH  20  21
ENDBRANCH  17  20
ENDBRANCH  13  16
ENDBRANCH   9  10
ENDBRANCH   1   9
TORSDOF 5
ENDMDL
MODEL 2
REMARK VINA RESULT:      -8.1      2.255      9.755
REMARK  5 active torsions:
REMARK  status: ('A' for Active; 'I' for Inactive)
REMARK    1  A    between atoms: C_5  and  C_6 
REMARK    2  A    between atoms: C_6  and  C_7 
REMARK       I    between atoms: C_7  and  N_8 
REMARK    3  A    between atoms: N_8  and  C_9 
REMARK    4  A    between atoms: C_12  and  O_13 
REMARK    5  A    between atoms: O_13  and  C_14 
ROOT
HETATM    1  C   UNL     1      22.627  50.168  48.359  1.00  0.00     0.076 A 
HETATM    2  C   UNL     1      21.569  50.207  47.452  1.00  0.00     0.039 A 
HETATM    3  C   UNL     1      20.351  50.777  47.828  1.00  0.00     0.025 A 
HETATM    4  C   UNL     1      20.189  51.295  49.119  1.00  0.00     0.044 A 
HETATM    5  C   UNL     1      18.938  51.880  49.507  1.00  0.00     0.099 C 
HETATM    6  N   UNL     1      17.926  52.354  49.818  1.00  0.00    -0.191 NA
HETATM    7  C   UNL     1      21.249  51.232  50.033  1.00  0.00     0.025 A 
HETATM    8  C   UNL     1      22.466  50.658  49.656  1.00  0.00     0.039 A 
ENDROOT
BRANCH   1   9
HETATM    9  O   UNL     1      23.781  49.541  47.958  1.00  0.00    -0.311 OA
BRANCH   9  10
HETATM   10  C   UNL     1      24.324  48.572  48.772  1.00  0.00     0.076 A 
HETATM   11  C   UNL     1      25.643  48.790  49.167  1.00  0.00     0.039 A 
HETATM   12  C   UNL     1      26.282  47.903  50.041  1.00  0.00     0.032 A 
HETATM   13  C   UNL     1      25.606  46.788  50.536  1.00  0.00     0.034 A 
HETATM   14  C   UNL     1      24.279  46.574  50.137  1.00  0.00     0.032 A 
HETATM   15  C   UNL     1      23.635  47.466  49.269  1.00  0.00     0.039 A 
BRANCH  13  16
HETATM   16  N   UNL     1      26.167  45.859  51.439  1.00  0.00    -0.327 N 
HETATM   17  C   UNL     1      26.235  45.960  52.819  1.00  0.00     0.227 C 
HETATM   18  O   UNL     1      25.827  46.902  53.497  1.00  0.00    -0.273 OA
HETATM   19  H   UNL     1      26.552  45.021  51.020  1.00  0.00     0.169 HD
BRANCH  17  20
HETATM   20  C   UNL     1      26.858  44.728  53.481  1.00  0.00     0.159 C 
BRANCH  20  21
HETATM   21  C   UNL     1      27.895  45.092  54.499  1.00  0.00     0.017 A 
HETATM   22  N   UNL     1      27.714  46.118  55.401  1.00  0.00    -0.369 N 
HETATM   23  C   UNL     1      28.806  46.211  56.220  1.00  0.00     0.088 A 
HETATM   24  H   UNL     1      26.898  46.724  55.427  1.00  0.00     0.165 HD
HETATM   25  C   UNL     1      29.697  45.228  55.855  1.00  0.00     0.019 A 
HETATM   26  C   UNL     1      29.123  44.521  54.772  1.00  0.00     0.027 A 
ENDBRANCH  20  21
ENDBRANCH  17  20
ENDBRANCH  13  16
ENDBRANCH   9  10
ENDBRANCH   1   9
TORSDOF 5
ENDMDL
MODEL 3
REMARK VINA RESULT:      -8.0      6.165      9.555
REMARK  5 active torsions:
REMARK  status: ('A' for Active; 'I' for Inactive)
REMARK    1  A    between atoms: C_5  and  C_6 
REMARK    2  A    between atoms: C_6  and  C_7 
REMARK       I    between atoms: C_7  and  N_8 
REMARK    3  A    between atoms: N_8  and  C_9 
REMARK    4  A    between atoms: C_12  and  O_13 
REMARK    5  A    between atoms: O_13  and  C_14 
ROOT
HETATM    1  C   UNL     1      21.921  49.330  48.552  1.00  0.00     0.076 A 
HETATM    2  C   UNL     1      22.720  48.400  49.216  1.00  0.00     0.039 A 
HETATM    3  C   UNL     1      24.108  48.550  49.216  1.00  0.00     0.025 A 
HETATM    4  C   UNL     1      24.697  49.624  48.536  1.00  0.00     0.044 A 
HETATM    5  C   UNL     1      26.123  49.777  48.534  1.00  0.00     0.099 C 
HETATM    6  N   UNL     1      27.277  49.901  48.536  1.00  0.00    -0.191 NA
HETATM    7  C   UNL     1      23.890  50.542  47.853  1.00  0.00     0.025 A 
HETATM    8  C   UNL     1      22.501  50.389  47.851  1.00  0.00     0.039 A 
ENDROOT
BRANCH   1   9
HETATM    9  O   UNL     1      20.568  49.102  48.532  1.00  0.00    -0.311 OA
BRANCH   9  10
HETATM   10  C   UNL     1      19.714  50.173  48.669  1.00  0.00     0.076 A 
HETATM   11  C   UNL     1      18.891  50.429  47.573  1.00  0.00     0.039 A 
HETATM   12  C   UNL     1      17.940  51.455  47.618  1.00  0.00     0.032 A 
HETATM   13  C   UNL     1      17.798  52.236  48.764  1.00  0.00     0.034 A 
HETATM   14  C   UNL     1      18.627  51.975  49.864  1.00  0.00     0.032 A 
HETATM   15  C   UNL     1      19.572  50.941  49.824  1.00  0.00     0.039 A 
BRANCH  13  16
HETATM   16  N   UNL     1      16.850  53.274  48.902  1.00  0.00    -0.327 N 
HETATM   17  C   UNL     1      15.660  53.240  49.612  1.00  0.00     0.227 C 
HETATM   18  O   UNL     1      15.216  52.276  50.235  1.00  0.00    -0.273 OA
HETATM   19  H   UNL     1      17.080  54.141  48.434  1.00  0.00     0.169 HD
BRANCH  17  20
HETATM   20  C   UNL     1      14.912  54.575  49.593  1.00  0.00     0.159 C 
BRANCH  20  21
HETATM   21  C   UNL     1      14.954  55.271  50.919  1.00  0.00     0.017 A 
HETATM   22  N   UNL     1      14.839  54.591  52.112  1.00  0.00    -0.369 N 
HETATM   23  C   UNL     1      14.933  55.471  53.156  1.00  0.00     0.088 A 
HETATM   24  H   UNL     1      14.683  53.589  52.190  1.00  0.00     0.165 HD
HETATM   25  C   UNL     1      15.123  56.730  52.636  1.00  0.00     0.019 A 
HETATM   26  C   UNL     1      15.138  56.606  51.226  1.00  0.00     0.027 A 
ENDBRANCH  20  21
ENDBRANCH  17  20
ENDBRANCH  13  16
ENDBRANCH   9  10
ENDBRANCH   1   9
TORSDOF 5
ENDMDL
MODEL 4
REMARK VINA RESULT:      -7.9      2.254      9.634
REMARK  5 active torsions:
REMARK  status: ('A' for Active; 'I' for Inactive)
REMARK    1  A    between atoms: C_5  and  C_6 
REMARK    2  A    between atoms: C_6  and  C_7 
REMARK       I    between atoms: C_7  and  N_8 
REMARK    3  A    between atoms: N_8  and  C_9 
REMARK    4  A    between atoms: C_12  and  O_13 
REMARK    5  A    between atoms: O_13  and  C_14 
ROOT
HETATM    1  C   UNL     1      22.586  48.555  48.980  1.00  0.00     0.076 A 
HETATM    2  C   UNL     1      22.916  49.891  49.207  1.00  0.00     0.039 A 
HETATM    3  C   UNL     1      21.905  50.832  49.406  1.00  0.00     0.025 A 
HETATM    4  C   UNL     1      20.561  50.438  49.362  1.00  0.00     0.044 A 
HETATM    5  C   UNL     1      19.522  51.406  49.564  1.00  0.00     0.099 C 
HETATM    6  N   UNL     1      18.683  52.190  49.730  1.00  0.00    -0.191 NA
HETATM    7  C   UNL     1      20.237  49.099  49.111  1.00  0.00     0.025 A 
HETATM    8  C   UNL     1      21.250  48.158  48.908  1.00  0.00     0.039 A 
ENDROOT
BRANCH   1   9
HETATM    9  O   UNL     1      23.616  47.682  48.730  1.00  0.00    -0.311 OA
BRANCH   9  10
HETATM   10  C   UNL     1      24.267  47.104  49.796  1.00  0.00     0.076 A 
HETATM   11  C   UNL     1      23.949  45.768  50.041  1.00  0.00     0.039 A 
HETATM   12  C   UNL     1      24.591  45.057  51.061  1.00  0.00     0.032 A 
HETATM   13  C   UNL     1      25.564  45.673  51.848  1.00  0.00     0.034 A 
HETATM   14  C   UNL     1      25.880  47.016  51.598  1.00  0.00     0.032 A 
HETATM   15  C   UNL     1      25.246  47.726  50.570  1.00  0.00     0.039 A 
BRANCH  13  16
HETATM   16  N   UNL     1      26.275  45.023  52.880  1.00  0.00    -0.327 N 
HETATM   17  C   UNL     1      25.750  44.344  53.968  1.00  0.00     0.227 C 
HETATM   18  O   UNL     1      24.555  44.210  54.229  1.00  0.00    -0.273 OA
HETATM   19  H   UNL     1      27.284  45.054  52.801  1.00  0.00     0.169 HD
BRANCH  17  20
HETATM   20  C   UNL     1      26.824  43.708  54.854  1.00  0.00     0.159 C 
BRANCH  20  21
HETATM   21  C   UNL     1      27.812  42.905  54.064  1.00  0.00     0.017 A 
HETATM   22  N   UNL     1      27.443  41.796  53.333  1.00  0.00    -0.369 N 
HETATM   23  C   UNL     1      28.539  41.276  52.699  1.00  0.00     0.088 A 
HETATM   24  H   UNL     1      26.501  41.417  53.299  1.00  0.00     0.165 HD
HETATM   25  C   UNL     1      29.624  42.062  53.011  1.00  0.00     0.019 A 
HETATM   26  C   UNL     1      29.167  43.089  53.870  1.00  0.00     0.027 A 
ENDBRANCH  20  21
ENDBRANCH  17  20
ENDBRANCH  13  16
ENDBRANCH   9  10
ENDBRANCH   1   9
TORSDOF 5
ENDMDL
MODEL 5
REMARK VINA RESULT:      -7.7     17.420     20.331
REMARK  5 active torsions:
REMARK  status: ('A' for Active; 'I' for Inactive)
REMARK    1  A    between atoms: C_5  and  C_6 
REMARK    2  A    between atoms: C_6  and  C_7 
REMARK       I    between atoms: C_7  and  N_8 
REMARK    3  A    between atoms: N_8  and  C_9 
REMARK    4  A    between atoms: C_12  and  O_13 
REMARK    5  A    between atoms: O_13  and  C_14 
ROOT
HETATM    1  C   UNL     1      36.441  47.444  65.449  1.00  0.00     0.076 A 
HETATM    2  C   UNL     1      37.027  48.158  64.403  1.00  0.00     0.039 A 
HETATM    3  C   UNL     1      37.724  49.337  64.672  1.00  0.00     0.025 A 
HETATM    4  C   UNL     1      37.822  49.810  65.986  1.00  0.00     0.044 A 
HETATM    5  C   UNL     1      38.537  51.023  66.262  1.00  0.00     0.099 C 
HETATM    6  N   UNL     1      39.118  52.003  66.483  1.00  0.00    -0.191 NA
HETATM    7  C   UNL     1      37.213  49.101  67.029  1.00  0.00     0.025 A 
HETATM    8  C   UNL     1      36.512  47.922  66.759  1.00  0.00     0.039 A 
ENDROOT
BRANCH   1   9
HETATM    9  O   UNL     1      35.716  46.325  65.123  1.00  0.00    -0.311 OA
BRANCH   9  10
HETATM   10  C   UNL     1      36.386  45.210  64.674  1.00  0.00     0.076 A 
HETATM   11  C   UNL     1      36.240  44.066  65.458  1.00  0.00     0.039 A 
HETATM   12  C   UNL     1      36.826  42.856  65.070  1.00  0.00     0.032 A 
HETATM   13  C   UNL     1      37.563  42.774  63.889  1.00  0.00     0.034 A 
HETATM   14  C   UNL     1      37.707  43.926  63.104  1.00  0.00     0.032 A 
HETATM   15  C   UNL     1      37.112  45.136  63.486  1.00  0.00     0.039 A 
BRANCH  13  16
HETATM   16  N   UNL     1      38.166  41.589  63.414  1.00  0.00    -0.327 N 
HETATM   17  C   UNL     1      39.491  41.205  63.546  1.00  0.00     0.227 C 
HETATM   18  O   UNL     1      40.381  41.854  64.094  1.00  0.00    -0.273 OA
HETATM   19  H   UNL     1      37.549  40.948  62.930  1.00  0.00     0.169 HD
BRANCH  17  20
HETATM   20  C   UNL     1      39.777  39.820  62.959  1.00  0.00     0.159 C 
BRANCH  20  21
HETATM   21  C   UNL     1      40.198  38.834  64.005  1.00  0.00     0.017 A 
HETATM   22  N   UNL     1      41.289  38.008  63.842  1.00  0.00    -0.369 N 
HETATM   23  C   UNL     1      41.451  37.231  64.957  1.00  0.00     0.088 A 
HETATM   24  H   UNL     1      41.864  37.973  63.004  1.00  0.00     0.165 HD
HETATM   25  C   UNL     1      40.464  37.566  65.855  1.00  0.00     0.019 A 
HETATM   26  C   UNL     1      39.675  38.576  65.258  1.00  0.00     0.027 A 
ENDBRANCH  20  21
ENDBRANCH  17  20
ENDBRANCH  13  16
ENDBRANCH   9  10
ENDBRANCH   1   9
TORSDOF 5
ENDMDL
MODEL 6
REMARK VINA RESULT:      -7.5      3.477     11.209
REMARK  5 active torsions:
REMARK  status: ('A' for Active; 'I' for Inactive)
REMARK    1  A    between atoms: C_5  and  C_6 
REMARK    2  A    between atoms: C_6  and  C_7 
REMARK       I    between atoms: C_7  and  N_8 
REMARK    3  A    between atoms: N_8  and  C_9 
REMARK    4  A    between atoms: C_12  and  O_13 
REMARK    5  A    between atoms: O_13  and  C_14 
ROOT
HETATM    1  C   UNL     1      17.957  51.286  48.128  1.00  0.00     0.076 A 
HETATM    2  C   UNL     1      18.151  52.336  49.024  1.00  0.00     0.039 A 
HETATM    3  C   UNL     1      17.076  52.820  49.771  1.00  0.00     0.025 A 
HETATM    4  C   UNL     1      15.802  52.262  49.609  1.00  0.00     0.044 A 
HETATM    5  C   UNL     1      14.696  52.760  50.375  1.00  0.00     0.099 C 
HETATM    6  N   UNL     1      13.803  53.163  50.997  1.00  0.00    -0.191 NA
HETATM    7  C   UNL     1      15.609  51.222  48.690  1.00  0.00     0.025 A 
HETATM    8  C   UNL     1      16.686  50.741  47.940  1.00  0.00     0.039 A 
ENDROOT
BRANCH   1   9
HETATM    9  O   UNL     1      19.034  50.890  47.374  1.00  0.00    -0.311 OA
BRANCH   9  10
HETATM   10  C   UNL     1      20.180  50.484  48.020  1.00  0.00     0.076 A 
HETATM   11  C   UNL     1      20.138  49.204  48.570  1.00  0.00     0.039 A 
HETATM   12  C   UNL     1      21.264  48.660  49.199  1.00  0.00     0.032 A 
HETATM   13  C   UNL     1      22.449  49.390  49.282  1.00  0.00     0.034 A 
HETATM   14  C   UNL     1      22.487  50.677  48.728  1.00  0.00     0.032 A 
HETATM   15  C   UNL     1      21.364  51.219  48.088  1.00  0.00     0.039 A 
BRANCH  13  16
HETATM   16  N   UNL     1      23.635  48.909  49.878  1.00  0.00    -0.327 N 
HETATM   17  C   UNL     1      24.189  47.645  49.752  1.00  0.00     0.227 C 
HETATM   18  O   UNL     1      23.719  46.710  49.103  1.00  0.00    -0.273 OA
HETATM   19  H   UNL     1      24.136  49.574  50.453  1.00  0.00     0.169 HD
BRANCH  17  20
HETATM   20  C   UNL     1      25.521  47.496  50.491  1.00  0.00     0.159 C 
BRANCH  20  21
HETATM   21  C   UNL     1      25.427  46.552  51.650  1.00  0.00     0.017 A 
HETATM   22  N   UNL     1      24.977  45.257  51.510  1.00  0.00    -0.369 N 
HETATM   23  C   UNL     1      25.018  44.621  52.722  1.00  0.00     0.088 A 
HETATM   24  H   UNL     1      24.643  44.855  50.638  1.00  0.00     0.165 HD
HETATM   25  C   UNL     1      25.511  45.507  53.651  1.00  0.00     0.019 A 
HETATM   26  C   UNL     1      25.771  46.723  52.978  1.00  0.00     0.027 A 
ENDBRANCH  20  21
ENDBRANCH  17  20
ENDBRANCH  13  16
ENDBRANCH   9  10
ENDBRANCH   1   9
TORSDOF 5
ENDMDL
MODEL 7
REMARK VINA RESULT:      -7.5      2.192      9.724
REMARK  5 active torsions:
REMARK  status: ('A' for Active; 'I' for Inactive)
REMARK    1  A    between atoms: C_5  and  C_6 
REMARK    2  A    between atoms: C_6  and  C_7 
REMARK       I    between atoms: C_7  and  N_8 
REMARK    3  A    between atoms: N_8  and  C_9 
REMARK    4  A    between atoms: C_12  and  O_13 
REMARK    5  A    between atoms: O_13  and  C_14 
ROOT
HETATM    1  C   UNL     1      21.386  49.347  47.969  1.00  0.00     0.076 A 
HETATM    2  C   UNL     1      20.168  48.823  48.402  1.00  0.00     0.039 A 
HETATM    3  C   UNL     1      19.181  49.678  48.898  1.00  0.00     0.025 A 
HETATM    4  C   UNL     1      19.421  51.055  48.975  1.00  0.00     0.044 A 
HETATM    5  C   UNL     1      18.408  51.933  49.486  1.00  0.00     0.099 C 
HETATM    6  N   UNL     1      17.587  52.642  49.898  1.00  0.00    -0.191 NA
HETATM    7  C   UNL     1      20.655  51.572  48.560  1.00  0.00     0.025 A 
HETATM    8  C   UNL     1      21.643  50.715  48.066  1.00  0.00     0.039 A 
ENDROOT
BRANCH   1   9
HETATM    9  O   UNL     1      22.343  48.457  47.548  1.00  0.00    -0.311 OA
BRANCH   9  10
HETATM   10  C   UNL     1      22.999  47.697  48.490  1.00  0.00     0.076 A 
HETATM   11  C   UNL     1      22.828  46.318  48.374  1.00  0.00     0.039 A 
HETATM   12  C   UNL     1      23.494  45.441  49.237  1.00  0.00     0.032 A 
HETATM   13  C   UNL     1      24.343  45.933  50.228  1.00  0.00     0.034 A 
HETATM   14  C   UNL     1      24.513  47.320  50.340  1.00  0.00     0.032 A 
HETATM   15  C   UNL     1      23.855  48.199  49.470  1.00  0.00     0.039 A 
BRANCH  13  16
HETATM   16  N   UNL     1      25.070  45.119  51.123  1.00  0.00    -0.327 N 
HETATM   17  C   UNL     1      26.409  44.770  51.050  1.00  0.00     0.227 C 
HETATM   18  O   UNL     1      27.196  45.104  50.165  1.00  0.00    -0.273 OA
HETATM   19  H   UNL     1      24.545  44.762  51.913  1.00  0.00     0.169 HD
BRANCH  17  20
HETATM   20  C   UNL     1      26.874  43.920  52.235  1.00  0.00     0.159 C 
BRANCH  20  21
HETATM   21  C   UNL     1      27.415  44.754  53.356  1.00  0.00     0.017 A 
HETATM   22  N   UNL     1      28.546  44.399  54.060  1.00  0.00    -0.369 N 
HETATM   23  C   UNL     1      28.818  45.349  55.006  1.00  0.00     0.088 A 
HETATM   24  H   UNL     1      29.074  43.544  53.906  1.00  0.00     0.165 HD
HETATM   25  C   UNL     1      27.864  46.335  54.906  1.00  0.00     0.019 A 
HETATM   26  C   UNL     1      26.980  45.962  53.866  1.00  0.00     0.027 A 
ENDBRANCH  20  21
ENDBRANCH  17  20
ENDBRANCH  13  16
ENDBRANCH   9  10
ENDBRANCH   1   9
TORSDOF 5
ENDMDL
MODEL 8
REMARK VINA RESULT:      -7.5      3.051      9.916
REMARK  5 active torsions:
REMARK  status: ('A' for Active; 'I' for Inactive)
REMARK    1  A    between atoms: C_5  and  C_6 
REMARK    2  A    between atoms: C_6  and  C_7 
REMARK       I    between atoms: C_7  and  N_8 
REMARK    3  A    between atoms: N_8  and  C_9 
REMARK    4  A    between atoms: C_12  and  O_13 
REMARK    5  A    between atoms: O_13  and  C_14 
ROOT
HETATM    1  C   UNL     1      21.793  50.261  48.202  1.00  0.00     0.076 A 
HETATM    2  C   UNL     1      20.656  50.342  47.397  1.00  0.00     0.039 A 
HETATM    3  C   UNL     1      19.479  50.889  47.910  1.00  0.00     0.025 A 
HETATM    4  C   UNL     1      19.434  51.340  49.235  1.00  0.00     0.044 A 
HETATM    5  C   UNL     1      18.224  51.899  49.763  1.00  0.00     0.099 C 
HETATM    6  N   UNL     1      17.244  52.354  50.188  1.00  0.00    -0.191 NA
HETATM    7  C   UNL     1      20.572  51.235  50.045  1.00  0.00     0.025 A 
HETATM    8  C   UNL     1      21.750  50.684  49.532  1.00  0.00     0.039 A 
ENDROOT
BRANCH   1   9
HETATM    9  O   UNL     1      22.905  49.660  47.668  1.00  0.00    -0.311 OA
BRANCH   9  10
HETATM   10  C   UNL     1      23.659  48.832  48.470  1.00  0.00     0.076 A 
HETATM   11  C   UNL     1      23.093  47.589  48.749  1.00  0.00     0.039 A 
HETATM   12  C   UNL     1      23.791  46.640  49.505  1.00  0.00     0.032 A 
HETATM   13  C   UNL     1      25.069  46.923  49.986  1.00  0.00     0.034 A 
HETATM   14  C   UNL     1      25.635  48.173  49.702  1.00  0.00     0.032 A 
HETATM   15  C   UNL     1      24.941  49.120  48.937  1.00  0.00     0.039 A 
BRANCH  13  16
HETATM   16  N   UNL     1      25.851  46.015  50.734  1.00  0.00    -0.327 N 
HETATM   17  C   UNL     1      25.406  45.060  51.634  1.00  0.00     0.227 C 
HETATM   18  O   UNL     1      24.234  44.855  51.950  1.00  0.00    -0.273 OA
HETATM   19  H   UNL     1      26.851  46.070  50.580  1.00  0.00     0.169 HD
BRANCH  17  20
HETATM   20  C   UNL     1      26.537  44.208  52.214  1.00  0.00     0.159 C 
BRANCH  20  21
HETATM   21  C   UNL     1      26.575  42.833  51.622  1.00  0.00     0.017 A 
HETATM   22  N   UNL     1      25.480  42.263  51.011  1.00  0.00    -0.369 N 
HETATM   23  C   UNL     1      25.806  41.018  50.546  1.00  0.00     0.088 A 
HETATM   24  H   UNL     1      24.565  42.702  50.944  1.00  0.00     0.165 HD
HETATM   25  C   UNL     1      27.127  40.783  50.847  1.00  0.00     0.019 A 
HETATM   26  C   UNL     1      27.614  41.926  51.524  1.00  0.00     0.027 A 
ENDBRANCH  20  21
ENDBRANCH  17  20
ENDBRANCH  13  16
ENDBRANCH   9  10
ENDBRANCH   1   9
TORSDOF 5
ENDMDL
MODEL 9
REMARK VINA RESULT:      -7.4      4.964      6.540
REMARK  5 active torsions:
REMARK  status: ('A' for Active; 'I' for Inactive)
REMARK    1  A    between atoms: C_5  and  C_6 
REMARK    2  A    between atoms: C_6  and  C_7 
REMARK       I    between atoms: C_7  and  N_8 
REMARK    3  A    between atoms: N_8  and  C_9 
REMARK    4  A    between atoms: C_12  and  O_13 
REMARK    5  A    between atoms: O_13  and  C_14 
ROOT
HETATM    1  C   UNL     1      28.231  44.896  54.247  1.00  0.00     0.076 A 
HETATM    2  C   UNL     1      28.778  45.772  55.185  1.00  0.00     0.039 A 
HETATM    3  C   UNL     1      29.839  45.353  55.990  1.00  0.00     0.025 A 
HETATM    4  C   UNL     1      30.341  44.051  55.868  1.00  0.00     0.044 A 
HETATM    5  C   UNL     1      31.429  43.620  56.696  1.00  0.00     0.099 C 
HETATM    6  N   UNL     1      32.311  43.274  57.366  1.00  0.00    -0.191 NA
HETATM    7  C   UNL     1      29.771  43.170  54.940  1.00  0.00     0.025 A 
HETATM    8  C   UNL     1      28.707  43.589  54.136  1.00  0.00     0.039 A 
ENDROOT
BRANCH   1   9
HETATM    9  O   UNL     1      27.150  45.338  53.525  1.00  0.00    -0.311 OA
BRANCH   9  10
HETATM   10  C   UNL     1      26.764  44.626  52.411  1.00  0.00     0.076 A 
HETATM   11  C   UNL     1      25.510  44.020  52.491  1.00  0.00     0.039 A 
HETATM   12  C   UNL     1      24.985  43.320  51.399  1.00  0.00     0.032 A 
HETATM   13  C   UNL     1      25.706  43.221  50.210  1.00  0.00     0.034 A 
HETATM   14  C   UNL     1      26.965  43.833  50.134  1.00  0.00     0.032 A 
HETATM   15  C   UNL     1      27.488  44.543  51.223  1.00  0.00     0.039 A 
BRANCH  13  16
HETATM   16  N   UNL     1      25.241  42.555  49.055  1.00  0.00    -0.327 N 
HETATM   17  C   UNL     1      25.332  41.203  48.767  1.00  0.00     0.227 C 
HETATM   18  O   UNL     1      25.860  40.346  49.475  1.00  0.00    -0.273 OA
HETATM   19  H   UNL     1      24.780  43.141  48.369  1.00  0.00     0.169 HD
BRANCH  17  20
HETATM   20  C   UNL     1      24.659  40.824  47.446  1.00  0.00     0.159 C 
BRANCH  20  21
HETATM   21  C   UNL     1      25.620  40.820  46.297  1.00  0.00     0.017 A 
HETATM   22  N   UNL     1      26.971  41.037  46.466  1.00  0.00    -0.369 N 
HETATM   23  C   UNL     1      27.606  40.956  45.256  1.00  0.00     0.088 A 
HETATM   24  H   UNL     1      27.412  41.250  47.356  1.00  0.00     0.165 HD
HETATM   25  C   UNL     1      26.661  40.672  44.297  1.00  0.00     0.019 A 
HETATM   26  C   UNL     1      25.410  40.584  44.952  1.00  0.00     0.027 A 
ENDBRANCH  20  21
ENDBRANCH  17  20
ENDBRANCH  13  16
ENDBRANCH   9  10
ENDBRANCH   1   9
TORSDOF 5
ENDMDL
MODEL 10
REMARK VINA RESULT:      -7.3      2.991      5.014
REMARK  5 active torsions:
REMARK  status: ('A' for Active; 'I' for Inactive)
REMARK    1  A    between atoms: C_5  and  C_6 
REMARK    2  A    between atoms: C_6  and  C_7 
REMARK       I    between atoms: C_7  and  N_8 
REMARK    3  A    between atoms: N_8  and  C_9 
REMARK    4  A    between atoms: C_12  and  O_13 
REMARK    5  A    between atoms: O_13  and  C_14 
ROOT
HETATM    1  C   UNL     1      25.541  46.631  50.558  1.00  0.00     0.076 A 
HETATM    2  C   UNL     1      25.468  45.241  50.460  1.00  0.00     0.039 A 
HETATM    3  C   UNL     1      25.573  44.457  51.611  1.00  0.00     0.025 A 
HETATM    4  C   UNL     1      25.768  45.065  52.858  1.00  0.00     0.044 A 
HETATM    5  C   UNL     1      25.878  44.260  54.039  1.00  0.00     0.099 C 
HETATM    6  N   UNL     1      25.965  43.607  54.995  1.00  0.00    -0.191 NA
HETATM    7  C   UNL     1      25.864  46.459  52.945  1.00  0.00     0.025 A 
HETATM    8  C   UNL     1      25.762  47.243  51.792  1.00  0.00     0.039 A 
ENDROOT
BRANCH   1   9
HETATM    9  O   UNL     1      25.494  47.350  49.390  1.00  0.00    -0.311 OA
BRANCH   9  10
HETATM   10  C   UNL     1      24.414  48.174  49.164  1.00  0.00     0.076 A 
HETATM   11  C   UNL     1      24.724  49.487  48.811  1.00  0.00     0.039 A 
HETATM   12  C   UNL     1      23.710  50.400  48.500  1.00  0.00     0.032 A 
HETATM   13  C   UNL     1      22.372  50.009  48.532  1.00  0.00     0.034 A 
HETATM   14  C   UNL     1      22.065  48.688  48.886  1.00  0.00     0.032 A 
HETATM   15  C   UNL     1      23.079  47.770  49.189  1.00  0.00     0.039 A 
BRANCH  13  16
HETATM   16  N   UNL     1      21.292  50.859  48.210  1.00  0.00    -0.327 N 
HETATM   17  C   UNL     1      20.365  51.412  49.079  1.00  0.00     0.227 C 
HETATM   18  O   UNL     1      20.318  51.234  50.296  1.00  0.00    -0.273 OA
HETATM   19  H   UNL     1      21.198  51.094  47.229  1.00  0.00     0.169 HD
BRANCH  17  20
HETATM   20  C   UNL     1      19.366  52.339  48.382  1.00  0.00     0.159 C 
BRANCH  20  21
HETATM   21  C   UNL     1      17.973  51.790  48.396  1.00  0.00     0.017 A 
HETATM   22  N   UNL     1      16.860  52.601  48.334  1.00  0.00    -0.369 N 
HETATM   23  C   UNL     1      15.728  51.833  48.341  1.00  0.00     0.088 A 
HETATM   24  H   UNL     1      16.890  53.617  48.312  1.00  0.00     0.165 HD
HETATM   25  C   UNL     1      16.109  50.512  48.396  1.00  0.00     0.019 A 
HETATM   26  C   UNL     1      17.524  50.484  48.429  1.00  0.00     0.027 A 
ENDBRANCH  20  21
ENDBRANCH  17  20
ENDBRANCH  13  16
ENDBRANCH   9  10
ENDBRANCH   1   9
TORSDOF 5
ENDMDL
