MODEL 1
REMARK VINA RESULT:      -9.5      0.000      0.000
REMARK  12 active torsions:
REMARK  status: ('A' for Active; 'I' for Inactive)
REMARK    1  A    between atoms: C_2  and  N_3 
REMARK    2  A    between atoms: N_3  and  C_5 
REMARK    3  A    between atoms: N_3  and  C_25 
REMARK    4  A    between atoms: C_7  and  C_8 
REMARK    5  A    between atoms: C_8  and  C_9 
REMARK    6  A    between atoms: C_9  and  C_10 
REMARK    7  A    between atoms: C_18  and  C_19 
REMARK    8  A    between atoms: C_25  and  C_26 
REMARK    9  A    between atoms: C_28  and  N_29 
REMARK   10  A    between atoms: C_32  and  N_33 
REMARK   11  A    between atoms: C_39  and  O_40 
REMARK   12  A    between atoms: C_41  and  O_42 
ROOT
HETATM    1  N   UNL     1      26.043  45.322  50.848  1.00  0.00    -0.061 N 
HETATM    2  H   UNL     1      25.672  44.858  51.692  1.00  0.00     0.280 HD
ENDROOT
BRANCH   1   3
HETATM    3  C   UNL     1      26.242  46.795  51.208  1.00  0.00     0.180 C 
HETATM    4  C   UNL     1      25.752  47.110  52.618  1.00  0.00     0.039 C 
HETATM    5  C   UNL     1      25.663  47.757  50.174  1.00  0.00     0.039 C 
ENDBRANCH   1   3
BRANCH   1   6
HETATM    6  C   UNL     1      25.084  45.154  49.697  1.00  0.00     0.189 C 
HETATM    7  C   UNL     1      25.219  43.809  48.921  1.00  0.00     0.038 C 
HETATM    8  C   UNL     1      23.674  43.759  48.827  1.00  0.00    -0.010 C 
HETATM    9  C   UNL     1      23.667  44.651  50.094  1.00  0.00     0.038 C 
BRANCH   8  10
HETATM   10  C   UNL     1      22.999  44.391  47.609  1.00  0.00     0.012 C 
BRANCH  10  11
HETATM   11  C   UNL     1      21.491  44.123  47.607  1.00  0.00     0.079 C 
BRANCH  11  12
HETATM   12  C   UNL     1      20.731  45.368  47.914  1.00  0.00     0.105 A 
HETATM   13  N   UNL     1      19.470  45.443  48.289  1.00  0.00    -0.233 NA
HETATM   14  C   UNL     1      19.205  46.786  48.427  1.00  0.00     0.085 A 
HETATM   15  C   UNL     1      20.330  47.544  48.144  1.00  0.00     0.063 A 
HETATM   16  C   UNL     1      18.023  47.441  48.789  1.00  0.00     0.034 A 
HETATM   17  N   UNL     1      21.292  46.619  47.829  1.00  0.00    -0.343 N 
HETATM   18  C   UNL     1      20.351  48.941  48.202  1.00  0.00     0.039 A 
HETATM   19  H   UNL     1      22.244  46.830  47.568  1.00  0.00     0.167 HD
HETATM   20  C   UNL     1      19.162  49.616  48.563  1.00  0.00    -0.048 A 
HETATM   21  C   UNL     1      18.017  48.846  48.850  1.00  0.00     0.010 A 
BRANCH  20  22
HETATM   22  C   UNL     1      19.157  51.158  48.632  1.00  0.00    -0.024 C 
HETATM   23  C   UNL     1      18.398  51.838  47.470  1.00  0.00     0.019 C 
HETATM   24  C   UNL     1      18.481  51.612  49.946  1.00  0.00     0.019 C 
HETATM   25  C   UNL     1      20.608  51.687  48.599  1.00  0.00     0.019 C 
ENDBRANCH  20  22
ENDBRANCH  11  12
ENDBRANCH  10  11
ENDBRANCH   8  10
ENDBRANCH   1   6
BRANCH   1  26
HETATM   26  C   UNL     1      27.332  44.561  50.499  1.00  0.00     0.270 C 
BRANCH  26  27
HETATM   27  C   UNL     1      27.769  43.642  51.646  1.00  0.00     0.181 C 
HETATM   28  O   UNL     1      28.814  44.238  52.439  1.00  0.00    -0.354 OA
HETATM   29  C   UNL     1      28.793  43.515  53.710  1.00  0.00     0.262 C 
HETATM   30  C   UNL     1      27.433  42.792  53.814  1.00  0.00     0.198 C 
HETATM   31  C   UNL     1      26.656  43.371  52.641  1.00  0.00     0.181 C 
BRANCH  29  32
HETATM   32  N   UNL     1      29.049  44.418  54.811  1.00  0.00    -0.294 N 
HETATM   33  C   UNL     1      29.976  44.169  55.787  1.00  0.00     0.167 A 
HETATM   34  C   UNL     1      29.943  45.285  56.606  1.00  0.00     0.149 A 
HETATM   35  N   UNL     1      30.743  43.075  55.914  1.00  0.00    -0.222 NA
HETATM   36  C   UNL     1      30.832  45.288  57.694  1.00  0.00     0.155 A 
HETATM   37  N   UNL     1      28.994  46.184  56.154  1.00  0.00    -0.236 NA
HETATM   38  N   UNL     1      31.625  44.207  57.877  1.00  0.00    -0.222 NA
HETATM   39  C   UNL     1      31.546  43.186  56.996  1.00  0.00     0.237 A 
HETATM   40  C   UNL     1      28.490  45.636  55.069  1.00  0.00     0.214 A 
BRANCH  36  41
HETATM   41  N   UNL     1      30.934  46.335  58.595  1.00  0.00    -0.382 N 
HETATM   42  H   UNL     1      30.552  47.215  58.272  1.00  0.00     0.157 HD
HETATM   43  H   UNL     1      30.742  46.055  59.549  1.00  0.00     0.157 HD
ENDBRANCH  36  41
ENDBRANCH  29  32
BRANCH  30  44
HETATM   44  O   UNL     1      27.578  41.379  53.597  1.00  0.00    -0.388 OA
HETATM   45  H   UNL     1      28.499  41.231  53.297  1.00  0.00     0.210 HD
ENDBRANCH  30  44
BRANCH  31  46
HETATM   46  O   UNL     1      25.688  42.489  52.104  1.00  0.00    -0.390 OA
HETATM   47  H   UNL     1      25.167  42.151  52.866  1.00  0.00     0.210 HD
ENDBRANCH  31  46
ENDBRANCH  26  27
ENDBRANCH   1  26
TORSDOF 12
ENDMDL
MODEL 2
REMARK VINA RESULT:      -9.5      1.745      3.078
REMARK  12 active torsions:
REMARK  status: ('A' for Active; 'I' for Inactive)
REMARK    1  A    between atoms: C_2  and  N_3 
REMARK    2  A    between atoms: N_3  and  C_5 
REMARK    3  A    between atoms: N_3  and  C_25 
REMARK    4  A    between atoms: C_7  and  C_8 
REMARK    5  A    between atoms: C_8  and  C_9 
REMARK    6  A    between atoms: C_9  and  C_10 
REMARK    7  A    between atoms: C_18  and  C_19 
REMARK    8  A    between atoms: C_25  and  C_26 
REMARK    9  A    between atoms: C_28  and  N_29 
REMARK   10  A    between atoms: C_32  and  N_33 
REMARK   11  A    between atoms: C_39  and  O_40 
REMARK   12  A    between atoms: C_41  and  O_42 
ROOT
HETATM    1  N   UNL     1      26.173  43.712  49.774  1.00  0.00    -0.061 N 
HETATM    2  H   UNL     1      27.153  43.960  49.572  1.00  0.00     0.280 HD
ENDROOT
BRANCH   1   3
HETATM    3  C   UNL     1      25.833  42.507  48.896  1.00  0.00     0.180 C 
HETATM    4  C   UNL     1      24.663  41.704  49.456  1.00  0.00     0.039 C 
HETATM    5  C   UNL     1      27.037  41.621  48.586  1.00  0.00     0.039 C 
ENDBRANCH   1   3
BRANCH   1   6
HETATM    6  C   UNL     1      25.269  44.883  49.486  1.00  0.00     0.189 C 
HETATM    7  C   UNL     1      24.275  45.243  50.632  1.00  0.00     0.038 C 
HETATM    8  C   UNL     1      24.541  46.739  50.332  1.00  0.00    -0.010 C 
HETATM    9  C   UNL     1      25.901  46.279  49.750  1.00  0.00     0.038 C 
BRANCH   8  10
HETATM   10  C   UNL     1      23.635  47.451  49.327  1.00  0.00     0.012 C 
BRANCH  10  11
HETATM   11  C   UNL     1      23.665  48.969  49.529  1.00  0.00     0.079 C 
BRANCH  11  12
HETATM   12  C   UNL     1      22.352  49.578  49.177  1.00  0.00     0.105 A 
HETATM   13  N   UNL     1      22.102  50.862  49.012  1.00  0.00    -0.233 NA
HETATM   14  C   UNL     1      20.759  50.943  48.726  1.00  0.00     0.085 A 
HETATM   15  C   UNL     1      20.181  49.684  48.702  1.00  0.00     0.063 A 
HETATM   16  C   UNL     1      19.955  52.060  48.476  1.00  0.00     0.034 A 
HETATM   17  N   UNL     1      21.216  48.830  48.982  1.00  0.00    -0.343 N 
HETATM   18  C   UNL     1      18.825  49.465  48.437  1.00  0.00     0.039 A 
HETATM   19  H   UNL     1      21.145  47.825  49.045  1.00  0.00     0.167 HD
HETATM   20  C   UNL     1      18.000  50.586  48.187  1.00  0.00    -0.048 A 
HETATM   21  C   UNL     1      18.587  51.867  48.212  1.00  0.00     0.010 A 
BRANCH  20  22
HETATM   22  C   UNL     1      16.500  50.373  47.895  1.00  0.00    -0.024 C 
HETATM   23  C   UNL     1      16.006  48.932  48.156  1.00  0.00     0.019 C 
HETATM   24  C   UNL     1      15.662  51.312  48.791  1.00  0.00     0.019 C 
HETATM   25  C   UNL     1      16.207  50.691  46.412  1.00  0.00     0.019 C 
ENDBRANCH  20  22
ENDBRANCH  11  12
ENDBRANCH  10  11
ENDBRANCH   8  10
ENDBRANCH   1   6
BRANCH   1  26
HETATM   26  C   UNL     1      26.125  43.443  51.287  1.00  0.00     0.270 C 
BRANCH  26  27
HETATM   27  C   UNL     1      27.517  43.126  51.845  1.00  0.00     0.181 C 
HETATM   28  O   UNL     1      28.125  44.284  52.450  1.00  0.00    -0.354 OA
HETATM   29  C   UNL     1      29.172  43.757  53.324  1.00  0.00     0.262 C 
HETATM   30  C   UNL     1      28.873  42.261  53.562  1.00  0.00     0.198 C 
HETATM   31  C   UNL     1      27.485  42.097  52.960  1.00  0.00     0.181 C 
BRANCH  29  32
HETATM   32  N   UNL     1      29.249  44.527  54.546  1.00  0.00    -0.294 N 
HETATM   33  C   UNL     1      30.100  44.224  55.574  1.00  0.00     0.167 A 
HETATM   34  C   UNL     1      29.898  45.221  56.513  1.00  0.00     0.149 A 
HETATM   35  N   UNL     1      30.942  43.181  55.646  1.00  0.00    -0.222 NA
HETATM   36  C   UNL     1      30.680  45.150  57.679  1.00  0.00     0.155 A 
HETATM   37  N   UNL     1      28.922  46.099  56.079  1.00  0.00    -0.236 NA
HETATM   38  N   UNL     1      31.541  44.114  57.810  1.00  0.00    -0.222 NA
HETATM   39  C   UNL     1      31.630  43.212  56.810  1.00  0.00     0.237 A 
HETATM   40  C   UNL     1      28.567  45.659  54.890  1.00  0.00     0.214 A 
BRANCH  36  41
HETATM   41  N   UNL     1      30.610  46.078  58.704  1.00  0.00    -0.382 N 
HETATM   42  H   UNL     1      31.464  46.191  59.236  1.00  0.00     0.157 HD
HETATM   43  H   UNL     1      30.095  46.911  58.449  1.00  0.00     0.157 HD
ENDBRANCH  36  41
ENDBRANCH  29  32
BRANCH  30  44
HETATM   44  O   UNL     1      29.779  41.426  52.822  1.00  0.00    -0.388 OA
HETATM   45  H   UNL     1      30.571  41.298  53.385  1.00  0.00     0.210 HD
ENDBRANCH  30  44
BRANCH  31  46
HETATM   46  O   UNL     1      27.229  40.800  52.456  1.00  0.00    -0.390 OA
HETATM   47  H   UNL     1      27.373  40.845  51.484  1.00  0.00     0.210 HD
ENDBRANCH  31  46
ENDBRANCH  26  27
ENDBRANCH   1  26
TORSDOF 12
ENDMDL
MODEL 3
REMARK VINA RESULT:      -9.2      2.700      6.808
REMARK  12 active torsions:
REMARK  status: ('A' for Active; 'I' for Inactive)
REMARK    1  A    between atoms: C_2  and  N_3 
REMARK    2  A    between atoms: N_3  and  C_5 
REMARK    3  A    between atoms: N_3  and  C_25 
REMARK    4  A    between atoms: C_7  and  C_8 
REMARK    5  A    between atoms: C_8  and  C_9 
REMARK    6  A    between atoms: C_9  and  C_10 
REMARK    7  A    between atoms: C_18  and  C_19 
REMARK    8  A    between atoms: C_25  and  C_26 
REMARK    9  A    between atoms: C_28  and  N_29 
REMARK   10  A    between atoms: C_32  and  N_33 
REMARK   11  A    between atoms: C_39  and  O_40 
REMARK   12  A    between atoms: C_41  and  O_42 
ROOT
HETATM    1  N   UNL     1      27.319  43.278  52.942  1.00  0.00    -0.061 N 
HETATM    2  H   UNL     1      26.433  42.776  53.103  1.00  0.00     0.280 HD
ENDROOT
BRANCH   1   3
HETATM    3  C   UNL     1      28.032  43.358  54.293  1.00  0.00     0.180 C 
HETATM    4  C   UNL     1      27.934  44.751  54.908  1.00  0.00     0.039 C 
HETATM    5  C   UNL     1      29.471  42.852  54.253  1.00  0.00     0.039 C 
ENDBRANCH   1   3
BRANCH   1   6
HETATM    6  C   UNL     1      27.047  44.648  52.374  1.00  0.00     0.189 C 
HETATM    7  C   UNL     1      27.259  44.774  50.834  1.00  0.00     0.038 C 
HETATM    8  C   UNL     1      25.994  45.666  50.779  1.00  0.00    -0.010 C 
HETATM    9  C   UNL     1      25.551  44.948  52.078  1.00  0.00     0.038 C 
BRANCH   8  10
HETATM   10  C   UNL     1      26.166  47.179  50.923  1.00  0.00     0.012 C 
BRANCH  10  11
HETATM   11  C   UNL     1      26.175  47.870  49.556  1.00  0.00     0.079 C 
BRANCH  11  12
HETATM   12  C   UNL     1      24.898  48.600  49.321  1.00  0.00     0.105 A 
HETATM   13  N   UNL     1      24.771  49.840  48.893  1.00  0.00    -0.233 NA
HETATM   14  C   UNL     1      23.417  50.081  48.858  1.00  0.00     0.085 A 
HETATM   15  C   UNL     1      22.704  48.963  49.259  1.00  0.00     0.063 A 
HETATM   16  C   UNL     1      22.715  51.236  48.498  1.00  0.00     0.034 A 
HETATM   17  N   UNL     1      23.667  48.029  49.540  1.00  0.00    -0.343 N 
HETATM   18  C   UNL     1      21.307  48.922  49.321  1.00  0.00     0.039 A 
HETATM   19  H   UNL     1      23.494  47.089  49.863  1.00  0.00     0.167 HD
HETATM   20  C   UNL     1      20.585  50.085  48.963  1.00  0.00    -0.048 A 
HETATM   21  C   UNL     1      21.310  51.223  48.557  1.00  0.00     0.010 A 
BRANCH  20  22
HETATM   22  C   UNL     1      19.043  50.068  49.026  1.00  0.00    -0.024 C 
HETATM   23  C   UNL     1      18.421  51.376  49.565  1.00  0.00     0.019 C 
HETATM   24  C   UNL     1      18.473  49.842  47.608  1.00  0.00     0.019 C 
HETATM   25  C   UNL     1      18.571  48.926  49.952  1.00  0.00     0.019 C 
ENDBRANCH  20  22
ENDBRANCH  11  12
ENDBRANCH  10  11
ENDBRANCH   8  10
ENDBRANCH   1   6
BRANCH   1  26
HETATM   26  C   UNL     1      28.058  42.463  51.869  1.00  0.00     0.270 C 
BRANCH  26  27
HETATM   27  C   UNL     1      27.191  41.315  51.340  1.00  0.00     0.181 C 
HETATM   28  O   UNL     1      25.913  41.786  50.868  1.00  0.00    -0.354 OA
HETATM   29  C   UNL     1      25.411  40.728  49.992  1.00  0.00     0.262 C 
HETATM   30  C   UNL     1      26.609  39.835  49.606  1.00  0.00     0.198 C 
HETATM   31  C   UNL     1      27.799  40.623  50.135  1.00  0.00     0.181 C 
BRANCH  29  32
HETATM   32  N   UNL     1      24.728  41.297  48.851  1.00  0.00    -0.294 N 
HETATM   33  C   UNL     1      23.761  42.259  48.956  1.00  0.00     0.167 A 
HETATM   34  C   UNL     1      23.409  42.559  47.651  1.00  0.00     0.149 A 
HETATM   35  N   UNL     1      23.267  42.789  50.087  1.00  0.00    -0.222 NA
HETATM   36  C   UNL     1      22.428  43.551  47.480  1.00  0.00     0.155 A 
HETATM   37  N   UNL     1      24.127  41.774  46.768  1.00  0.00    -0.236 NA
HETATM   38  N   UNL     1      21.888  44.115  48.586  1.00  0.00    -0.222 NA
HETATM   39  C   UNL     1      22.329  43.720  49.799  1.00  0.00     0.237 A 
HETATM   40  C   UNL     1      24.917  41.040  47.523  1.00  0.00     0.214 A 
BRANCH  36  41
HETATM   41  N   UNL     1      21.979  43.977  46.242  1.00  0.00    -0.382 N 
HETATM   42  H   UNL     1      22.597  44.620  45.762  1.00  0.00     0.157 HD
HETATM   43  H   UNL     1      21.551  43.237  45.701  1.00  0.00     0.157 HD
ENDBRANCH  36  41
ENDBRANCH  29  32
BRANCH  30  44
HETATM   44  O   UNL     1      26.565  38.578  50.301  1.00  0.00    -0.388 OA
HETATM   45  H   UNL     1      27.126  38.675  51.099  1.00  0.00     0.210 HD
ENDBRANCH  30  44
BRANCH  31  46
HETATM   46  O   UNL     1      28.901  39.816  50.506  1.00  0.00    -0.390 OA
HETATM   47  H   UNL     1      29.024  39.941  51.474  1.00  0.00     0.210 HD
ENDBRANCH  31  46
ENDBRANCH  26  27
ENDBRANCH   1  26
TORSDOF 12
ENDMDL
MODEL 4
REMARK VINA RESULT:      -8.8      3.895      7.465
REMARK  12 active torsions:
REMARK  status: ('A' for Active; 'I' for Inactive)
REMARK    1  A    between atoms: C_2  and  N_3 
REMARK    2  A    between atoms: N_3  and  C_5 
REMARK    3  A    between atoms: N_3  and  C_25 
REMARK    4  A    between atoms: C_7  and  C_8 
REMARK    5  A    between atoms: C_8  and  C_9 
REMARK    6  A    between atoms: C_9  and  C_10 
REMARK    7  A    between atoms: C_18  and  C_19 
REMARK    8  A    between atoms: C_25  and  C_26 
REMARK    9  A    between atoms: C_28  and  N_29 
REMARK   10  A    between atoms: C_32  and  N_33 
REMARK   11  A    between atoms: C_39  and  O_40 
REMARK   12  A    between atoms: C_41  and  O_42 
ROOT
HETATM    1  N   UNL     1      27.062  42.198  52.509  1.00  0.00    -0.061 N 
HETATM    2  H   UNL     1      26.404  41.418  52.661  1.00  0.00     0.280 HD
ENDROOT
BRANCH   1   3
HETATM    3  C   UNL     1      27.765  42.448  53.845  1.00  0.00     0.180 C 
HETATM    4  C   UNL     1      27.339  43.770  54.475  1.00  0.00     0.039 C 
HETATM    5  C   UNL     1      29.283  42.315  53.768  1.00  0.00     0.039 C 
ENDBRANCH   1   3
BRANCH   1   6
HETATM    6  C   UNL     1      26.320  43.421  52.033  1.00  0.00     0.189 C 
HETATM    7  C   UNL     1      26.890  44.069  50.735  1.00  0.00     0.038 C 
HETATM    8  C   UNL     1      25.433  44.311  50.270  1.00  0.00    -0.010 C 
HETATM    9  C   UNL     1      25.046  43.128  51.192  1.00  0.00     0.038 C 
BRANCH   8  10
HETATM   10  C   UNL     1      24.764  45.638  50.636  1.00  0.00     0.012 C 
BRANCH  10  11
HETATM   11  C   UNL     1      25.449  46.816  49.938  1.00  0.00     0.079 C 
BRANCH  11  12
HETATM   12  C   UNL     1      24.457  47.865  49.570  1.00  0.00     0.105 A 
HETATM   13  N   UNL     1      24.726  49.087  49.156  1.00  0.00    -0.233 NA
HETATM   14  C   UNL     1      23.504  49.690  48.967  1.00  0.00     0.085 A 
HETATM   15  C   UNL     1      22.469  48.815  49.257  1.00  0.00     0.063 A 
HETATM   16  C   UNL     1      23.192  50.989  48.550  1.00  0.00     0.034 A 
HETATM   17  N   UNL     1      23.100  47.656  49.630  1.00  0.00    -0.343 N 
HETATM   18  C   UNL     1      21.118  49.159  49.154  1.00  0.00     0.039 A 
HETATM   19  H   UNL     1      22.640  46.803  49.911  1.00  0.00     0.167 HD
HETATM   20  C   UNL     1      20.789  50.470  48.738  1.00  0.00    -0.048 A 
HETATM   21  C   UNL     1      21.840  51.361  48.443  1.00  0.00     0.010 A 
BRANCH  20  22
HETATM   22  C   UNL     1      19.305  50.877  48.619  1.00  0.00    -0.024 C 
HETATM   23  C   UNL     1      19.079  52.401  48.497  1.00  0.00     0.019 C 
HETATM   24  C   UNL     1      18.691  50.223  47.361  1.00  0.00     0.019 C 
HETATM   25  C   UNL     1      18.531  50.402  49.868  1.00  0.00     0.019 C 
ENDBRANCH  20  22
ENDBRANCH  11  12
ENDBRANCH  10  11
ENDBRANCH   8  10
ENDBRANCH   1   6
BRANCH   1  26
HETATM   26  C   UNL     1      27.984  41.735  51.370  1.00  0.00     0.270 C 
BRANCH  26  27
HETATM   27  C   UNL     1      27.513  40.404  50.773  1.00  0.00     0.181 C 
HETATM   28  O   UNL     1      26.704  40.603  49.598  1.00  0.00    -0.354 OA
HETATM   29  C   UNL     1      26.731  39.324  48.890  1.00  0.00     0.262 C 
HETATM   30  C   UNL     1      27.927  38.514  49.434  1.00  0.00     0.198 C 
HETATM   31  C   UNL     1      28.661  39.535  50.291  1.00  0.00     0.181 C 
BRANCH  29  32
HETATM   32  N   UNL     1      26.785  39.537  47.460  1.00  0.00    -0.294 N 
HETATM   33  C   UNL     1      25.735  40.029  46.733  1.00  0.00     0.167 A 
HETATM   34  C   UNL     1      26.210  40.126  45.436  1.00  0.00     0.149 A 
HETATM   35  N   UNL     1      24.512  40.344  47.189  1.00  0.00    -0.222 NA
HETATM   36  C   UNL     1      25.315  40.633  44.478  1.00  0.00     0.155 A 
HETATM   37  N   UNL     1      27.515  39.675  45.368  1.00  0.00    -0.236 NA
HETATM   38  N   UNL     1      24.064  40.959  44.879  1.00  0.00    -0.222 NA
HETATM   39  C   UNL     1      23.739  40.809  46.181  1.00  0.00     0.237 A 
HETATM   40  C   UNL     1      27.830  39.344  46.603  1.00  0.00     0.214 A 
BRANCH  36  41
HETATM   41  N   UNL     1      25.641  40.808  43.144  1.00  0.00    -0.382 N 
HETATM   42  H   UNL     1      26.095  41.686  42.927  1.00  0.00     0.157 HD
HETATM   43  H   UNL     1      26.004  39.967  42.712  1.00  0.00     0.157 HD
ENDBRANCH  36  41
ENDBRANCH  29  32
BRANCH  30  44
HETATM   44  O   UNL     1      27.486  37.449  50.291  1.00  0.00    -0.388 OA
HETATM   45  H   UNL     1      27.430  36.643  49.738  1.00  0.00     0.210 HD
ENDBRANCH  30  44
BRANCH  31  46
HETATM   46  O   UNL     1      29.369  38.968  51.377  1.00  0.00    -0.390 OA
HETATM   47  H   UNL     1      28.742  38.361  51.831  1.00  0.00     0.210 HD
ENDBRANCH  31  46
ENDBRANCH  26  27
ENDBRANCH   1  26
TORSDOF 12
ENDMDL
MODEL 5
REMARK VINA RESULT:      -8.8      5.633      9.854
REMARK  12 active torsions:
REMARK  status: ('A' for Active; 'I' for Inactive)
REMARK    1  A    between atoms: C_2  and  N_3 
REMARK    2  A    between atoms: N_3  and  C_5 
REMARK    3  A    between atoms: N_3  and  C_25 
REMARK    4  A    between atoms: C_7  and  C_8 
REMARK    5  A    between atoms: C_8  and  C_9 
REMARK    6  A    between atoms: C_9  and  C_10 
REMARK    7  A    between atoms: C_18  and  C_19 
REMARK    8  A    between atoms: C_25  and  C_26 
REMARK    9  A    between atoms: C_28  and  N_29 
REMARK   10  A    between atoms: C_32  and  N_33 
REMARK   11  A    between atoms: C_39  and  O_40 
REMARK   12  A    between atoms: C_41  and  O_42 
ROOT
HETATM    1  N   UNL     1      20.253  49.440  48.856  1.00  0.00    -0.061 N 
HETATM    2  H   UNL     1      20.085  48.661  49.511  1.00  0.00     0.280 HD
ENDROOT
BRANCH   1   3
HETATM    3  C   UNL     1      21.702  49.884  49.062  1.00  0.00     0.180 C 
HETATM    4  C   UNL     1      21.819  50.985  50.112  1.00  0.00     0.039 C 
HETATM    5  C   UNL     1      22.415  50.256  47.764  1.00  0.00     0.039 C 
ENDBRANCH   1   3
BRANCH   1   6
HETATM    6  C   UNL     1      19.284  50.564  49.123  1.00  0.00     0.189 C 
HETATM    7  C   UNL     1      18.098  50.661  48.115  1.00  0.00     0.038 C 
HETATM    8  C   UNL     1      17.171  50.999  49.308  1.00  0.00    -0.010 C 
HETATM    9  C   UNL     1      18.199  50.252  50.193  1.00  0.00     0.038 C 
BRANCH   8  10
HETATM   10  C   UNL     1      16.971  52.470  49.679  1.00  0.00     0.012 C 
BRANCH  10  11
HETATM   11  C   UNL     1      15.499  52.776  49.969  1.00  0.00     0.079 C 
BRANCH  11  12
HETATM   12  C   UNL     1      15.348  54.123  50.586  1.00  0.00     0.105 A 
HETATM   13  N   UNL     1      15.461  55.284  49.972  1.00  0.00    -0.233 NA
HETATM   14  C   UNL     1      15.269  56.237  50.945  1.00  0.00     0.085 A 
HETATM   15  C   UNL     1      15.019  55.647  52.174  1.00  0.00     0.063 A 
HETATM   16  C   UNL     1      15.295  57.633  50.859  1.00  0.00     0.034 A 
HETATM   17  N   UNL     1      15.065  54.301  51.919  1.00  0.00    -0.343 N 
HETATM   18  C   UNL     1      14.787  56.376  53.344  1.00  0.00     0.039 A 
HETATM   19  H   UNL     1      14.926  53.571  52.603  1.00  0.00     0.167 HD
HETATM   20  C   UNL     1      14.815  57.788  53.272  1.00  0.00    -0.048 A 
HETATM   21  C   UNL     1      15.070  58.389  52.023  1.00  0.00     0.010 A 
BRANCH  20  22
HETATM   22  C   UNL     1      14.565  58.618  54.550  1.00  0.00    -0.024 C 
HETATM   23  C   UNL     1      13.595  59.804  54.350  1.00  0.00     0.019 C 
HETATM   24  C   UNL     1      13.958  57.710  55.642  1.00  0.00     0.019 C 
HETATM   25  C   UNL     1      15.900  59.203  55.061  1.00  0.00     0.019 C 
ENDBRANCH  20  22
ENDBRANCH  11  12
ENDBRANCH  10  11
ENDBRANCH   8  10
ENDBRANCH   1   6
BRANCH   1  26
HETATM   26  C   UNL     1      19.942  48.873  47.462  1.00  0.00     0.270 C 
BRANCH  26  27
HETATM   27  C   UNL     1      19.918  47.341  47.472  1.00  0.00     0.181 C 
HETATM   28  O   UNL     1      21.215  46.785  47.178  1.00  0.00    -0.354 OA
HETATM   29  C   UNL     1      21.168  45.411  47.676  1.00  0.00     0.262 C 
HETATM   30  C   UNL     1      19.985  45.312  48.662  1.00  0.00     0.198 C 
HETATM   31  C   UNL     1      19.568  46.766  48.832  1.00  0.00     0.181 C 
BRANCH  29  32
HETATM   32  N   UNL     1      22.437  45.040  48.262  1.00  0.00    -0.294 N 
HETATM   33  C   UNL     1      22.881  43.748  48.340  1.00  0.00     0.167 A 
HETATM   34  C   UNL     1      24.138  43.834  48.913  1.00  0.00     0.149 A 
HETATM   35  N   UNL     1      22.228  42.644  47.944  1.00  0.00    -0.222 NA
HETATM   36  C   UNL     1      24.830  42.623  49.089  1.00  0.00     0.155 A 
HETATM   37  N   UNL     1      24.444  45.151  49.206  1.00  0.00    -0.236 NA
HETATM   38  N   UNL     1      24.217  41.475  48.716  1.00  0.00    -0.222 NA
HETATM   39  C   UNL     1      22.983  41.545  48.171  1.00  0.00     0.237 A 
HETATM   40  C   UNL     1      23.406  45.845  48.789  1.00  0.00     0.214 A 
BRANCH  36  41
HETATM   41  N   UNL     1      26.101  42.540  49.631  1.00  0.00    -0.382 N 
HETATM   42  H   UNL     1      26.617  41.705  49.384  1.00  0.00     0.157 HD
HETATM   43  H   UNL     1      26.595  43.424  49.618  1.00  0.00     0.157 HD
ENDBRANCH  36  41
ENDBRANCH  29  32
BRANCH  30  44
HETATM   44  O   UNL     1      18.882  44.599  48.081  1.00  0.00    -0.388 OA
HETATM   45  H   UNL     1      18.620  45.089  47.274  1.00  0.00     0.210 HD
ENDBRANCH  30  44
BRANCH  31  46
HETATM   46  O   UNL     1      18.195  46.936  49.126  1.00  0.00    -0.390 OA
HETATM   47  H   UNL     1      17.847  46.046  49.359  1.00  0.00     0.210 HD
ENDBRANCH  31  46
ENDBRANCH  26  27
ENDBRANCH   1  26
TORSDOF 12
ENDMDL
MODEL 6
REMARK VINA RESULT:      -8.7      0.923      2.003
REMARK  12 active torsions:
REMARK  status: ('A' for Active; 'I' for Inactive)
REMARK    1  A    between atoms: C_2  and  N_3 
REMARK    2  A    between atoms: N_3  and  C_5 
REMARK    3  A    between atoms: N_3  and  C_25 
REMARK    4  A    between atoms: C_7  and  C_8 
REMARK    5  A    between atoms: C_8  and  C_9 
REMARK    6  A    between atoms: C_9  and  C_10 
REMARK    7  A    between atoms: C_18  and  C_19 
REMARK    8  A    between atoms: C_25  and  C_26 
REMARK    9  A    between atoms: C_28  and  N_29 
REMARK   10  A    between atoms: C_32  and  N_33 
REMARK   11  A    between atoms: C_39  and  O_40 
REMARK   12  A    between atoms: C_41  and  O_42 
ROOT
HETATM    1  N   UNL     1      26.276  45.183  51.023  1.00  0.00    -0.061 N 
HETATM    2  H   UNL     1      25.909  44.612  51.800  1.00  0.00     0.280 HD
ENDROOT
BRANCH   1   3
HETATM    3  C   UNL     1      26.381  46.618  51.542  1.00  0.00     0.180 C 
HETATM    4  C   UNL     1      25.497  46.849  52.764  1.00  0.00     0.039 C 
HETATM    5  C   UNL     1      26.153  47.673  50.464  1.00  0.00     0.039 C 
ENDBRANCH   1   3
BRANCH   1   6
HETATM    6  C   UNL     1      25.360  45.089  49.829  1.00  0.00     0.189 C 
HETATM    7  C   UNL     1      25.330  43.693  49.134  1.00  0.00     0.038 C 
HETATM    8  C   UNL     1      23.801  43.866  48.955  1.00  0.00    -0.010 C 
HETATM    9  C   UNL     1      23.866  44.825  50.170  1.00  0.00     0.038 C 
BRANCH   8  10
HETATM   10  C   UNL     1      23.290  44.515  47.667  1.00  0.00     0.012 C 
BRANCH  10  11
HETATM   11  C   UNL     1      21.767  44.680  47.695  1.00  0.00     0.079 C 
BRANCH  11  12
HETATM   12  C   UNL     1      21.390  46.121  47.745  1.00  0.00     0.105 A 
HETATM   13  N   UNL     1      22.190  47.148  47.538  1.00  0.00    -0.233 NA
HETATM   14  C   UNL     1      21.408  48.266  47.718  1.00  0.00     0.085 A 
HETATM   15  C   UNL     1      20.104  47.914  48.026  1.00  0.00     0.063 A 
HETATM   16  C   UNL     1      21.741  49.622  47.638  1.00  0.00     0.034 A 
HETATM   17  N   UNL     1      20.114  46.543  48.029  1.00  0.00    -0.343 N 
HETATM   18  C   UNL     1      19.090  48.848  48.262  1.00  0.00     0.039 A 
HETATM   19  H   UNL     1      19.318  45.953  48.220  1.00  0.00     0.167 HD
HETATM   20  C   UNL     1      19.414  50.223  48.188  1.00  0.00    -0.048 A 
HETATM   21  C   UNL     1      20.740  50.582  47.875  1.00  0.00     0.010 A 
BRANCH  20  22
HETATM   22  C   UNL     1      18.315  51.275  48.447  1.00  0.00    -0.024 C 
HETATM   23  C   UNL     1      17.656  51.167  49.840  1.00  0.00     0.019 C 
HETATM   24  C   UNL     1      18.923  52.692  48.339  1.00  0.00     0.019 C 
HETATM   25  C   UNL     1      17.191  51.124  47.399  1.00  0.00     0.019 C 
ENDBRANCH  20  22
ENDBRANCH  11  12
ENDBRANCH  10  11
ENDBRANCH   8  10
ENDBRANCH   1   6
BRANCH   1  26
HETATM   26  C   UNL     1      27.616  44.534  50.640  1.00  0.00     0.270 C 
BRANCH  26  27
HETATM   27  C   UNL     1      27.969  43.377  51.581  1.00  0.00     0.181 C 
HETATM   28  O   UNL     1      29.209  43.614  52.276  1.00  0.00    -0.354 OA
HETATM   29  C   UNL     1      29.179  42.721  53.433  1.00  0.00     0.262 C 
HETATM   30  C   UNL     1      27.714  42.287  53.651  1.00  0.00     0.198 C 
HETATM   31  C   UNL     1      26.951  43.189  52.691  1.00  0.00     0.181 C 
BRANCH  29  32
HETATM   32  N   UNL     1      29.763  43.369  54.588  1.00  0.00    -0.294 N 
HETATM   33  C   UNL     1      29.249  44.504  55.153  1.00  0.00     0.167 A 
HETATM   34  C   UNL     1      30.060  44.761  56.245  1.00  0.00     0.149 A 
HETATM   35  N   UNL     1      28.187  45.209  54.729  1.00  0.00    -0.222 NA
HETATM   36  C   UNL     1      29.726  45.884  57.021  1.00  0.00     0.155 A 
HETATM   37  N   UNL     1      31.066  43.817  56.328  1.00  0.00    -0.236 NA
HETATM   38  N   UNL     1      28.670  46.638  56.637  1.00  0.00    -0.222 NA
HETATM   39  C   UNL     1      27.970  46.267  55.544  1.00  0.00     0.237 A 
HETATM   40  C   UNL     1      30.848  42.992  55.326  1.00  0.00     0.214 A 
BRANCH  36  41
HETATM   41  N   UNL     1      30.426  46.266  58.153  1.00  0.00    -0.382 N 
HETATM   42  H   UNL     1      30.093  45.860  59.019  1.00  0.00     0.157 HD
HETATM   43  H   UNL     1      31.426  46.310  58.004  1.00  0.00     0.157 HD
ENDBRANCH  36  41
ENDBRANCH  29  32
BRANCH  30  44
HETATM   44  O   UNL     1      27.509  40.926  53.238  1.00  0.00    -0.388 OA
HETATM   45  H   UNL     1      26.692  40.913  52.697  1.00  0.00     0.210 HD
ENDBRANCH  30  44
BRANCH  31  46
HETATM   46  O   UNL     1      25.753  42.620  52.201  1.00  0.00    -0.390 OA
HETATM   47  H   UNL     1      25.939  41.666  52.048  1.00  0.00     0.210 HD
ENDBRANCH  31  46
ENDBRANCH  26  27
ENDBRANCH   1  26
TORSDOF 12
ENDMDL
MODEL 7
REMARK VINA RESULT:      -8.3      1.540      2.559
REMARK  12 active torsions:
REMARK  status: ('A' for Active; 'I' for Inactive)
REMARK    1  A    between atoms: C_2  and  N_3 
REMARK    2  A    between atoms: N_3  and  C_5 
REMARK    3  A    between atoms: N_3  and  C_25 
REMARK    4  A    between atoms: C_7  and  C_8 
REMARK    5  A    between atoms: C_8  and  C_9 
REMARK    6  A    between atoms: C_9  and  C_10 
REMARK    7  A    between atoms: C_18  and  C_19 
REMARK    8  A    between atoms: C_25  and  C_26 
REMARK    9  A    between atoms: C_28  and  N_29 
REMARK   10  A    between atoms: C_32  and  N_33 
REMARK   11  A    between atoms: C_39  and  O_40 
REMARK   12  A    between atoms: C_41  and  O_42 
ROOT
HETATM    1  N   UNL     1      25.496  44.505  50.474  1.00  0.00    -0.061 N 
HETATM    2  H   UNL     1      26.025  45.386  50.562  1.00  0.00     0.280 HD
ENDROOT
BRANCH   1   3
HETATM    3  C   UNL     1      26.526  43.379  50.371  1.00  0.00     0.180 C 
HETATM    4  C   UNL     1      26.113  42.152  51.178  1.00  0.00     0.039 C 
HETATM    5  C   UNL     1      27.949  43.825  50.698  1.00  0.00     0.039 C 
ENDBRANCH   1   3
BRANCH   1   6
HETATM    6  C   UNL     1      24.602  44.553  49.261  1.00  0.00     0.189 C 
HETATM    7  C   UNL     1      24.371  43.180  48.560  1.00  0.00     0.038 C 
HETATM    8  C   UNL     1      22.892  43.587  48.349  1.00  0.00    -0.010 C 
HETATM    9  C   UNL     1      23.078  44.523  49.569  1.00  0.00     0.038 C 
BRANCH   8  10
HETATM   10  C   UNL     1      22.514  44.307  47.054  1.00  0.00     0.012 C 
BRANCH  10  11
HETATM   11  C   UNL     1      21.005  44.239  46.800  1.00  0.00     0.079 C 
BRANCH  11  12
HETATM   12  C   UNL     1      20.315  45.428  47.374  1.00  0.00     0.105 A 
HETATM   13  N   UNL     1      19.074  45.477  47.815  1.00  0.00    -0.233 NA
HETATM   14  C   UNL     1      18.878  46.777  48.221  1.00  0.00     0.085 A 
HETATM   15  C   UNL     1      20.025  47.532  48.036  1.00  0.00     0.063 A 
HETATM   16  C   UNL     1      17.742  47.394  48.756  1.00  0.00     0.034 A 
HETATM   17  N   UNL     1      20.930  46.650  47.506  1.00  0.00    -0.343 N 
HETATM   18  C   UNL     1      20.113  48.890  48.361  1.00  0.00     0.039 A 
HETATM   19  H   UNL     1      21.880  46.871  47.246  1.00  0.00     0.167 HD
HETATM   20  C   UNL     1      18.971  49.526  48.899  1.00  0.00    -0.048 A 
HETATM   21  C   UNL     1      17.804  48.760  49.086  1.00  0.00     0.010 A 
BRANCH  20  22
HETATM   22  C   UNL     1      19.040  51.024  49.264  1.00  0.00    -0.024 C 
HETATM   23  C   UNL     1      19.305  51.954  48.058  1.00  0.00     0.019 C 
HETATM   24  C   UNL     1      17.699  51.464  49.893  1.00  0.00     0.019 C 
HETATM   25  C   UNL     1      20.179  51.263  50.279  1.00  0.00     0.019 C 
ENDBRANCH  20  22
ENDBRANCH  11  12
ENDBRANCH  10  11
ENDBRANCH   8  10
ENDBRANCH   1   6
BRANCH   1  26
HETATM   26  C   UNL     1      24.595  44.446  51.718  1.00  0.00     0.270 C 
BRANCH  26  27
HETATM   27  C   UNL     1      25.153  45.309  52.855  1.00  0.00     0.181 C 
HETATM   28  O   UNL     1      25.900  44.523  53.804  1.00  0.00    -0.354 OA
HETATM   29  C   UNL     1      26.739  45.482  54.523  1.00  0.00     0.262 C 
HETATM   30  C   UNL     1      26.799  46.774  53.680  1.00  0.00     0.198 C 
HETATM   31  C   UNL     1      26.144  46.351  52.373  1.00  0.00     0.181 C 
BRANCH  29  32
HETATM   32  N   UNL     1      28.040  44.913  54.796  1.00  0.00    -0.294 N 
HETATM   33  C   UNL     1      28.777  45.220  55.907  1.00  0.00     0.167 A 
HETATM   34  C   UNL     1      29.914  44.436  55.812  1.00  0.00     0.149 A 
HETATM   35  N   UNL     1      28.458  46.096  56.873  1.00  0.00    -0.222 NA
HETATM   36  C   UNL     1      30.844  44.551  56.860  1.00  0.00     0.155 A 
HETATM   37  N   UNL     1      29.884  43.686  54.650  1.00  0.00    -0.236 NA
HETATM   38  N   UNL     1      30.578  45.426  57.858  1.00  0.00    -0.222 NA
HETATM   39  C   UNL     1      29.426  46.129  57.817  1.00  0.00     0.237 A 
HETATM   40  C   UNL     1      28.740  43.989  54.075  1.00  0.00     0.214 A 
BRANCH  36  41
HETATM   41  N   UNL     1      32.020  43.825  56.922  1.00  0.00    -0.382 N 
HETATM   42  H   UNL     1      32.163  43.317  57.787  1.00  0.00     0.157 HD
HETATM   43  H   UNL     1      32.240  43.354  56.054  1.00  0.00     0.157 HD
ENDBRANCH  36  41
ENDBRANCH  29  32
BRANCH  30  44
HETATM   44  O   UNL     1      25.997  47.813  54.263  1.00  0.00    -0.388 OA
HETATM   45  H   UNL     1      25.065  47.512  54.216  1.00  0.00     0.210 HD
ENDBRANCH  30  44
BRANCH  31  46
HETATM   46  O   UNL     1      25.493  47.406  51.692  1.00  0.00    -0.390 OA
HETATM   47  H   UNL     1      26.030  48.214  51.851  1.00  0.00     0.210 HD
ENDBRANCH  31  46
ENDBRANCH  26  27
ENDBRANCH   1  26
TORSDOF 12
ENDMDL
MODEL 8
REMARK VINA RESULT:      -8.3      1.920      3.386
REMARK  12 active torsions:
REMARK  status: ('A' for Active; 'I' for Inactive)
REMARK    1  A    between atoms: C_2  and  N_3 
REMARK    2  A    between atoms: N_3  and  C_5 
REMARK    3  A    between atoms: N_3  and  C_25 
REMARK    4  A    between atoms: C_7  and  C_8 
REMARK    5  A    between atoms: C_8  and  C_9 
REMARK    6  A    between atoms: C_9  and  C_10 
REMARK    7  A    between atoms: C_18  and  C_19 
REMARK    8  A    between atoms: C_25  and  C_26 
REMARK    9  A    between atoms: C_28  and  N_29 
REMARK   10  A    between atoms: C_32  and  N_33 
REMARK   11  A    between atoms: C_39  and  O_40 
REMARK   12  A    between atoms: C_41  and  O_42 
ROOT
HETATM    1  N   UNL     1      25.570  43.175  49.461  1.00  0.00    -0.061 N 
HETATM    2  H   UNL     1      26.156  43.980  49.192  1.00  0.00     0.280 HD
ENDROOT
BRANCH   1   3
HETATM    3  C   UNL     1      26.474  41.942  49.435  1.00  0.00     0.180 C 
HETATM    4  C   UNL     1      26.461  41.254  48.074  1.00  0.00     0.039 C 
HETATM    5  C   UNL     1      26.200  40.962  50.573  1.00  0.00     0.039 C 
ENDBRANCH   1   3
BRANCH   1   6
HETATM    6  C   UNL     1      24.409  43.035  48.509  1.00  0.00     0.189 C 
HETATM    7  C   UNL     1      23.063  42.611  49.173  1.00  0.00     0.038 C 
HETATM    8  C   UNL     1      22.339  43.604  48.231  1.00  0.00    -0.010 C 
HETATM    9  C   UNL     1      23.686  44.365  48.158  1.00  0.00     0.038 C 
BRANCH   8  10
HETATM   10  C   UNL     1      21.832  43.090  46.883  1.00  0.00     0.012 C 
BRANCH  10  11
HETATM   11  C   UNL     1      20.522  43.775  46.483  1.00  0.00     0.079 C 
BRANCH  11  12
HETATM   12  C   UNL     1      20.358  45.069  47.204  1.00  0.00     0.105 A 
HETATM   13  N   UNL     1      19.450  45.346  48.118  1.00  0.00    -0.233 NA
HETATM   14  C   UNL     1      19.672  46.657  48.473  1.00  0.00     0.085 A 
HETATM   15  C   UNL     1      20.744  47.185  47.771  1.00  0.00     0.063 A 
HETATM   16  C   UNL     1      18.995  47.472  49.386  1.00  0.00     0.034 A 
HETATM   17  N   UNL     1      21.171  46.153  46.977  1.00  0.00    -0.343 N 
HETATM   18  C   UNL     1      21.194  48.500  47.929  1.00  0.00     0.039 A 
HETATM   19  H   UNL     1      21.944  46.194  46.329  1.00  0.00     0.167 HD
HETATM   20  C   UNL     1      20.516  49.335  48.847  1.00  0.00    -0.048 A 
HETATM   21  C   UNL     1      19.426  48.799  49.560  1.00  0.00     0.010 A 
BRANCH  20  22
HETATM   22  C   UNL     1      20.991  50.791  49.039  1.00  0.00    -0.024 C 
HETATM   23  C   UNL     1      22.373  51.090  48.416  1.00  0.00     0.019 C 
HETATM   24  C   UNL     1      19.977  51.754  48.382  1.00  0.00     0.019 C 
HETATM   25  C   UNL     1      21.092  51.113  50.546  1.00  0.00     0.019 C 
ENDBRANCH  20  22
ENDBRANCH  11  12
ENDBRANCH  10  11
ENDBRANCH   8  10
ENDBRANCH   1   6
BRANCH   1  26
HETATM   26  C   UNL     1      25.001  43.531  50.844  1.00  0.00     0.270 C 
BRANCH  26  27
HETATM   27  C   UNL     1      25.069  45.040  51.107  1.00  0.00     0.181 C 
HETATM   28  O   UNL     1      24.996  45.340  52.515  1.00  0.00    -0.354 OA
HETATM   29  C   UNL     1      25.535  46.693  52.648  1.00  0.00     0.262 C 
HETATM   30  C   UNL     1      26.334  47.007  51.366  1.00  0.00     0.198 C 
HETATM   31  C   UNL     1      26.381  45.658  50.662  1.00  0.00     0.181 C 
BRANCH  29  32
HETATM   32  N   UNL     1      26.321  46.808  53.857  1.00  0.00    -0.294 N 
HETATM   33  C   UNL     1      27.311  45.926  54.197  1.00  0.00     0.167 A 
HETATM   34  C   UNL     1      27.839  46.417  55.379  1.00  0.00     0.149 A 
HETATM   35  N   UNL     1      27.679  44.825  53.522  1.00  0.00    -0.222 NA
HETATM   36  C   UNL     1      28.903  45.689  55.938  1.00  0.00     0.155 A 
HETATM   37  N   UNL     1      27.165  47.560  55.768  1.00  0.00    -0.236 NA
HETATM   38  N   UNL     1      29.313  44.564  55.306  1.00  0.00    -0.222 NA
HETATM   39  C   UNL     1      28.700  44.205  54.157  1.00  0.00     0.237 A 
HETATM   40  C   UNL     1      26.272  47.771  54.824  1.00  0.00     0.214 A 
BRANCH  36  41
HETATM   41  N   UNL     1      29.551  46.056  57.106  1.00  0.00    -0.382 N 
HETATM   42  H   UNL     1      29.305  45.507  57.920  1.00  0.00     0.157 HD
HETATM   43  H   UNL     1      30.527  46.282  56.962  1.00  0.00     0.157 HD
ENDBRANCH  36  41
ENDBRANCH  29  32
BRANCH  30  44
HETATM   44  O   UNL     1      25.621  47.923  50.520  1.00  0.00    -0.388 OA
HETATM   45  H   UNL     1      25.575  47.513  49.631  1.00  0.00     0.210 HD
ENDBRANCH  30  44
BRANCH  31  46
HETATM   46  O   UNL     1      26.456  45.750  49.253  1.00  0.00    -0.390 OA
HETATM   47  H   UNL     1      26.812  44.889  48.936  1.00  0.00     0.210 HD
ENDBRANCH  31  46
ENDBRANCH  26  27
ENDBRANCH   1  26
TORSDOF 12
ENDMDL
MODEL 9
REMARK VINA RESULT:      -8.2      5.214     13.020
REMARK  12 active torsions:
REMARK  status: ('A' for Active; 'I' for Inactive)
REMARK    1  A    between atoms: C_2  and  N_3 
REMARK    2  A    between atoms: N_3  and  C_5 
REMARK    3  A    between atoms: N_3  and  C_25 
REMARK    4  A    between atoms: C_7  and  C_8 
REMARK    5  A    between atoms: C_8  and  C_9 
REMARK    6  A    between atoms: C_9  and  C_10 
REMARK    7  A    between atoms: C_18  and  C_19 
REMARK    8  A    between atoms: C_25  and  C_26 
REMARK    9  A    between atoms: C_28  and  N_29 
REMARK   10  A    between atoms: C_32  and  N_33 
REMARK   11  A    between atoms: C_39  and  O_40 
REMARK   12  A    between atoms: C_41  and  O_42 
ROOT
HETATM    1  N   UNL     1      18.796  47.704  47.695  1.00  0.00    -0.061 N 
HETATM    2  H   UNL     1      18.346  48.430  48.273  1.00  0.00     0.280 HD
ENDROOT
BRANCH   1   3
HETATM    3  C   UNL     1      17.899  46.467  47.761  1.00  0.00     0.180 C 
HETATM    4  C   UNL     1      16.768  46.637  48.771  1.00  0.00     0.039 C 
HETATM    5  C   UNL     1      18.669  45.168  47.979  1.00  0.00     0.039 C 
ENDBRANCH   1   3
BRANCH   1   6
HETATM    6  C   UNL     1      20.183  47.415  48.208  1.00  0.00     0.189 C 
HETATM    7  C   UNL     1      21.335  47.740  47.208  1.00  0.00     0.038 C 
HETATM    8  C   UNL     1      22.157  48.283  48.403  1.00  0.00    -0.010 C 
HETATM    9  C   UNL     1      20.797  48.530  49.101  1.00  0.00     0.038 C 
BRANCH   8  10
HETATM   10  C   UNL     1      23.081  47.318  49.148  1.00  0.00     0.012 C 
BRANCH  10  11
HETATM   11  C   UNL     1      24.428  47.973  49.467  1.00  0.00     0.079 C 
BRANCH  11  12
HETATM   12  C   UNL     1      25.126  47.244  50.564  1.00  0.00     0.105 A 
HETATM   13  N   UNL     1      25.080  47.532  51.849  1.00  0.00    -0.233 NA
HETATM   14  C   UNL     1      25.895  46.609  52.463  1.00  0.00     0.085 A 
HETATM   15  C   UNL     1      26.439  45.734  51.537  1.00  0.00     0.063 A 
HETATM   16  C   UNL     1      26.228  46.455  53.813  1.00  0.00     0.034 A 
HETATM   17  N   UNL     1      25.927  46.151  50.335  1.00  0.00    -0.343 N 
HETATM   18  C   UNL     1      27.307  44.692  51.879  1.00  0.00     0.039 A 
HETATM   19  H   UNL     1      26.121  45.730  49.439  1.00  0.00     0.167 HD
HETATM   20  C   UNL     1      27.654  44.528  53.240  1.00  0.00    -0.048 A 
HETATM   21  C   UNL     1      27.103  45.418  54.183  1.00  0.00     0.010 A 
BRANCH  20  22
HETATM   22  C   UNL     1      28.612  43.388  53.645  1.00  0.00    -0.024 C 
HETATM   23  C   UNL     1      29.461  43.695  54.899  1.00  0.00     0.019 C 
HETATM   24  C   UNL     1      27.796  42.112  53.948  1.00  0.00     0.019 C 
HETATM   25  C   UNL     1      29.597  43.098  52.490  1.00  0.00     0.019 C 
ENDBRANCH  20  22
ENDBRANCH  11  12
ENDBRANCH  10  11
ENDBRANCH   8  10
ENDBRANCH   1   6
BRANCH   1  26
HETATM   26  C   UNL     1      18.934  48.328  46.296  1.00  0.00     0.270 C 
BRANCH  26  27
HETATM   27  C   UNL     1      17.878  49.413  46.059  1.00  0.00     0.181 C 
HETATM   28  O   UNL     1      17.116  49.685  47.252  1.00  0.00    -0.354 OA
HETATM   29  C   UNL     1      16.517  51.002  47.035  1.00  0.00     0.262 C 
HETATM   30  C   UNL     1      17.298  51.687  45.893  1.00  0.00     0.198 C 
HETATM   31  C   UNL     1      18.484  50.755  45.691  1.00  0.00     0.181 C 
BRANCH  29  32
HETATM   32  N   UNL     1      16.510  51.764  48.264  1.00  0.00    -0.294 N 
HETATM   33  C   UNL     1      15.650  52.802  48.501  1.00  0.00     0.167 A 
HETATM   34  C   UNL     1      15.935  53.219  49.790  1.00  0.00     0.149 A 
HETATM   35  N   UNL     1      14.733  53.300  47.656  1.00  0.00    -0.222 NA
HETATM   36  C   UNL     1      15.162  54.281  50.289  1.00  0.00     0.155 A 
HETATM   37  N   UNL     1      16.969  52.469  50.319  1.00  0.00    -0.236 NA
HETATM   38  N   UNL     1      14.227  54.829  49.478  1.00  0.00    -0.222 NA
HETATM   39  C   UNL     1      14.061  54.319  48.239  1.00  0.00     0.237 A 
HETATM   40  C   UNL     1      17.278  51.598  49.381  1.00  0.00     0.214 A 
BRANCH  36  41
HETATM   41  N   UNL     1      15.310  54.802  51.563  1.00  0.00    -0.382 N 
HETATM   42  H   UNL     1      15.739  54.176  52.233  1.00  0.00     0.157 HD
HETATM   43  H   UNL     1      15.606  55.770  51.561  1.00  0.00     0.157 HD
ENDBRANCH  36  41
ENDBRANCH  29  32
BRANCH  30  44
HETATM   44  O   UNL     1      16.533  51.703  44.677  1.00  0.00    -0.388 OA
HETATM   45  H   UNL     1      17.173  51.772  43.939  1.00  0.00     0.210 HD
ENDBRANCH  30  44
BRANCH  31  46
HETATM   46  O   UNL     1      18.987  50.747  44.369  1.00  0.00    -0.390 OA
HETATM   47  H   UNL     1      18.663  49.917  43.952  1.00  0.00     0.210 HD
ENDBRANCH  31  46
ENDBRANCH  26  27
ENDBRANCH   1  26
TORSDOF 12
ENDMDL
MODEL 10
REMARK VINA RESULT:      -8.2      5.101      8.245
REMARK  12 active torsions:
REMARK  status: ('A' for Active; 'I' for Inactive)
REMARK    1  A    between atoms: C_2  and  N_3 
REMARK    2  A    between atoms: N_3  and  C_5 
REMARK    3  A    between atoms: N_3  and  C_25 
REMARK    4  A    between atoms: C_7  and  C_8 
REMARK    5  A    between atoms: C_8  and  C_9 
REMARK    6  A    between atoms: C_9  and  C_10 
REMARK    7  A    between atoms: C_18  and  C_19 
REMARK    8  A    between atoms: C_25  and  C_26 
REMARK    9  A    between atoms: C_28  and  N_29 
REMARK   10  A    between atoms: C_32  and  N_33 
REMARK   11  A    between atoms: C_39  and  O_40 
REMARK   12  A    between atoms: C_41  and  O_42 
ROOT
HETATM    1  N   UNL     1      26.595  41.731  50.639  1.00  0.00    -0.061 N 
HETATM    2  H   UNL     1      25.771  41.117  50.548  1.00  0.00     0.280 HD
ENDROOT
BRANCH   1   3
HETATM    3  C   UNL     1      27.350  41.273  51.888  1.00  0.00     0.180 C 
HETATM    4  C   UNL     1      27.535  42.406  52.892  1.00  0.00     0.039 C 
HETATM    5  C   UNL     1      28.666  40.566  51.577  1.00  0.00     0.039 C 
ENDBRANCH   1   3
BRANCH   1   6
HETATM    6  C   UNL     1      26.161  43.171  50.749  1.00  0.00     0.189 C 
HETATM    7  C   UNL     1      26.877  44.148  49.766  1.00  0.00     0.038 C 
HETATM    8  C   UNL     1      25.519  44.865  49.562  1.00  0.00    -0.010 C 
HETATM    9  C   UNL     1      24.861  43.524  49.973  1.00  0.00     0.038 C 
BRANCH   8  10
HETATM   10  C   UNL     1      25.174  46.042  50.477  1.00  0.00     0.012 C 
BRANCH  10  11
HETATM   11  C   UNL     1      25.698  47.363  49.904  1.00  0.00     0.079 C 
BRANCH  11  12
HETATM   12  C   UNL     1      24.572  48.269  49.544  1.00  0.00     0.105 A 
HETATM   13  N   UNL     1      24.673  49.485  49.046  1.00  0.00    -0.233 NA
HETATM   14  C   UNL     1      23.381  49.935  48.904  1.00  0.00     0.085 A 
HETATM   15  C   UNL     1      22.473  48.970  49.310  1.00  0.00     0.063 A 
HETATM   16  C   UNL     1      22.898  51.162  48.437  1.00  0.00     0.034 A 
HETATM   17  N   UNL     1      23.254  47.914  49.704  1.00  0.00    -0.343 N 
HETATM   18  C   UNL     1      21.087  49.154  49.277  1.00  0.00     0.039 A 
HETATM   19  H   UNL     1      22.912  47.035  50.062  1.00  0.00     0.167 HD
HETATM   20  C   UNL     1      20.586  50.392  48.811  1.00  0.00    -0.048 A 
HETATM   21  C   UNL     1      21.508  51.374  48.398  1.00  0.00     0.010 A 
BRANCH  20  22
HETATM   22  C   UNL     1      19.061  50.623  48.766  1.00  0.00    -0.024 C 
HETATM   23  C   UNL     1      18.432  50.404  47.372  1.00  0.00     0.019 C 
HETATM   24  C   UNL     1      18.363  49.648  49.740  1.00  0.00     0.019 C 
HETATM   25  C   UNL     1      18.741  52.075  49.185  1.00  0.00     0.019 C 
ENDBRANCH  20  22
ENDBRANCH  11  12
ENDBRANCH  10  11
ENDBRANCH   8  10
ENDBRANCH   1   6
BRANCH   1  26
HETATM   26  C   UNL     1      27.368  41.573  49.321  1.00  0.00     0.270 C 
BRANCH  26  27
HETATM   27  C   UNL     1      26.591  40.718  48.314  1.00  0.00     0.181 C 
HETATM   28  O   UNL     1      27.066  40.916  46.967  1.00  0.00    -0.354 OA
HETATM   29  C   UNL     1      26.601  39.748  46.219  1.00  0.00     0.262 C 
HETATM   30  C   UNL     1      26.234  38.653  47.244  1.00  0.00     0.198 C 
HETATM   31  C   UNL     1      26.758  39.229  48.552  1.00  0.00     0.181 C 
BRANCH  29  32
HETATM   32  N   UNL     1      27.603  39.327  45.264  1.00  0.00    -0.294 N 
HETATM   33  C   UNL     1      27.986  40.087  44.192  1.00  0.00     0.167 A 
HETATM   34  C   UNL     1      28.983  39.356  43.571  1.00  0.00     0.149 A 
HETATM   35  N   UNL     1      27.492  41.282  43.831  1.00  0.00    -0.222 NA
HETATM   36  C   UNL     1      29.568  39.936  42.433  1.00  0.00     0.155 A 
HETATM   37  N   UNL     1      29.185  38.159  44.234  1.00  0.00    -0.236 NA
HETATM   38  N   UNL     1      29.104  41.138  42.016  1.00  0.00    -0.222 NA
HETATM   39  C   UNL     1      28.121  41.735  42.723  1.00  0.00     0.237 A 
HETATM   40  C   UNL     1      28.349  38.184  45.251  1.00  0.00     0.214 A 
BRANCH  36  41
HETATM   41  N   UNL     1      30.588  39.342  41.710  1.00  0.00    -0.382 N 
HETATM   42  H   UNL     1      30.910  39.873  40.910  1.00  0.00     0.157 HD
HETATM   43  H   UNL     1      31.284  38.901  42.298  1.00  0.00     0.157 HD
ENDBRANCH  36  41
ENDBRANCH  29  32
BRANCH  30  44
HETATM   44  O   UNL     1      24.810  38.509  47.361  1.00  0.00    -0.388 OA
HETATM   45  H   UNL     1      24.638  38.066  48.218  1.00  0.00     0.210 HD
ENDBRANCH  30  44
BRANCH  31  46
HETATM   46  O   UNL     1      26.036  38.806  49.693  1.00  0.00    -0.390 OA
HETATM   47  H   UNL     1      26.428  39.279  50.461  1.00  0.00     0.210 HD
ENDBRANCH  31  46
ENDBRANCH  26  27
ENDBRANCH   1  26
TORSDOF 12
ENDMDL
