MODEL 1
REMARK VINA RESULT:      -9.0      0.000      0.000
REMARK  9 active torsions:
REMARK  status: ('A' for Active; 'I' for Inactive)
REMARK    1  A    between atoms: C_6  and  N_7 
REMARK    2  A    between atoms: N_7  and  C_8 
REMARK    3  A    between atoms: C_10  and  S_11 
REMARK    4  A    between atoms: S_11  and  C_12 
REMARK    5  A    between atoms: C_15  and  N_16 
REMARK       I    between atoms: N_16  and  C_17 
REMARK    6  A    between atoms: C_17  and  C_18 
REMARK    7  A    between atoms: C_25  and  N_26 
REMARK    8  A    between atoms: C_34  and  C_35 
REMARK    9  A    between atoms: C_35  and  O_36 
ROOT
HETATM    1  C   UNL     1      22.216  46.243  48.396  1.00  0.00     0.152 A 
HETATM    2  N   UNL     1      22.492  47.550  48.235  1.00  0.00    -0.204 NA
HETATM    3  C   UNL     1      23.556  48.067  48.855  1.00  0.00     0.196 A 
HETATM    4  N   UNL     1      24.406  47.353  49.604  1.00  0.00    -0.209 NA
HETATM    5  C   UNL     1      24.178  46.033  49.739  1.00  0.00     0.128 A 
HETATM    6  C   UNL     1      23.058  45.433  49.156  1.00  0.00     0.125 A 
ENDROOT
BRANCH   3   7
HETATM    7  S   UNL     1      23.779  49.815  48.660  1.00  0.00    -0.050 SA
BRANCH   7   8
HETATM    8  C   UNL     1      22.169  50.541  48.865  1.00  0.00     0.008 A 
HETATM    9  C   UNL     1      21.335  50.865  47.792  1.00  0.00     0.021 A 
HETATM   10  C   UNL     1      20.052  51.381  48.013  1.00  0.00     0.031 A 
HETATM   11  C   UNL     1      19.567  51.539  49.311  1.00  0.00     0.034 A 
HETATM   12  C   UNL     1      20.383  51.182  50.387  1.00  0.00     0.031 A 
HETATM   13  C   UNL     1      21.677  50.700  50.166  1.00  0.00     0.021 A 
BRANCH  11  14
HETATM   14  N   UNL     1      18.266  51.991  49.602  1.00  0.00    -0.327 N 
HETATM   15  C   UNL     1      17.087  51.481  49.106  1.00  0.00     0.226 C 
HETATM   16  O   UNL     1      16.968  50.639  48.225  1.00  0.00    -0.273 OA
HETATM   17  H   UNL     1      18.197  52.787  50.219  1.00  0.00     0.169 HD
BRANCH  15  18
HETATM   18  C   UNL     1      15.853  52.043  49.727  1.00  0.00     0.078 A 
HETATM   19  C   UNL     1      15.734  53.422  50.334  1.00  0.00     0.015 A 
HETATM   20  C   UNL     1      15.104  53.139  49.002  1.00  0.00     0.015 A 
ENDBRANCH  15  18
ENDBRANCH  11  14
ENDBRANCH   7   8
ENDBRANCH   3   7
BRANCH   1  21
HETATM   21  N   UNL     1      21.092  45.720  47.732  1.00  0.00    -0.323 N 
HETATM   22  H   UNL     1      21.304  44.969  47.085  1.00  0.00     0.169 HD
BRANCH  21  23
HETATM   23  C   UNL     1      19.779  45.801  48.029  1.00  0.00     0.151 A 
HETATM   24  N   UNL     1      19.017  44.712  48.147  1.00  0.00    -0.157 NA
HETATM   25  N   UNL     1      17.789  45.193  48.405  1.00  0.00    -0.281 N 
HETATM   26  C   UNL     1      17.726  46.556  48.427  1.00  0.00     0.027 A 
HETATM   27  H   UNL     1      17.035  44.528  48.544  1.00  0.00     0.189 HD
HETATM   28  C   UNL     1      16.470  47.298  48.658  1.00  0.00     0.070 C 
HETATM   29  C   UNL     1      19.015  46.979  48.188  1.00  0.00     0.078 A 
ENDBRANCH  21  23
ENDBRANCH   1  21
BRANCH   5  30
HETATM   30  N   UNL     1      25.113  45.311  50.499  1.00  0.00    -0.264 NA
HETATM   31  C   UNL     1      26.485  45.287  49.958  1.00  0.00     0.125 C 
HETATM   32  C   UNL     1      27.272  44.144  50.632  1.00  0.00     0.249 C 
HETATM   33  N   UNL     1      27.271  44.319  52.152  1.00  0.00    -0.073 N 
HETATM   34  H   UNL     1      27.749  45.206  52.360  1.00  0.00     0.279 HD
HETATM   35  C   UNL     1      28.026  43.219  52.833  1.00  0.00     0.269 C 
HETATM   36  C   UNL     1      25.842  44.446  52.693  1.00  0.00     0.249 C 
HETATM   37  C   UNL     1      25.064  45.558  51.955  1.00  0.00     0.125 C 
ENDBRANCH   5  30
BRANCH   6  38
HETATM   38  C   UNL     1      22.748  44.013  49.417  1.00  0.00     0.300 C 
HETATM   39  O   UNL     1      22.411  43.566  50.501  1.00  0.00    -0.259 OA
BRANCH  38  40
HETATM   40  O   UNL     1      22.993  43.286  48.301  1.00  0.00    -0.322 OA
HETATM   41  C   UNL     1      23.191  41.880  48.490  1.00  0.00     0.213 C 
ENDBRANCH  38  40
ENDBRANCH   6  38
TORSDOF 9
ENDMDL
MODEL 2
REMARK VINA RESULT:      -8.5      2.766      9.780
REMARK  9 active torsions:
REMARK  status: ('A' for Active; 'I' for Inactive)
REMARK    1  A    between atoms: C_6  and  N_7 
REMARK    2  A    between atoms: N_7  and  C_8 
REMARK    3  A    between atoms: C_10  and  S_11 
REMARK    4  A    between atoms: S_11  and  C_12 
REMARK    5  A    between atoms: C_15  and  N_16 
REMARK       I    between atoms: N_16  and  C_17 
REMARK    6  A    between atoms: C_17  and  C_18 
REMARK    7  A    between atoms: C_25  and  N_26 
REMARK    8  A    between atoms: C_34  and  C_35 
REMARK    9  A    between atoms: C_35  and  O_36 
ROOT
HETATM    1  C   UNL     1      22.133  48.167  48.704  1.00  0.00     0.152 A 
HETATM    2  N   UNL     1      22.535  46.887  48.597  1.00  0.00    -0.204 NA
HETATM    3  C   UNL     1      21.647  45.959  48.232  1.00  0.00     0.196 A 
HETATM    4  N   UNL     1      20.372  46.225  47.918  1.00  0.00    -0.209 NA
HETATM    5  C   UNL     1      19.960  47.506  47.971  1.00  0.00     0.128 A 
HETATM    6  C   UNL     1      20.823  48.524  48.389  1.00  0.00     0.125 A 
ENDROOT
BRANCH   3   7
HETATM    7  S   UNL     1      22.249  44.291  48.214  1.00  0.00    -0.050 SA
BRANCH   7   8
HETATM    8  C   UNL     1      23.701  44.283  49.240  1.00  0.00     0.008 A 
HETATM    9  C   UNL     1      24.982  44.555  48.752  1.00  0.00     0.021 A 
HETATM   10  C   UNL     1      26.083  44.593  49.615  1.00  0.00     0.031 A 
HETATM   11  C   UNL     1      25.915  44.402  50.986  1.00  0.00     0.034 A 
HETATM   12  C   UNL     1      24.632  44.166  51.484  1.00  0.00     0.031 A 
HETATM   13  C   UNL     1      23.536  44.094  50.617  1.00  0.00     0.021 A 
BRANCH  11  14
HETATM   14  N   UNL     1      26.968  44.491  51.915  1.00  0.00    -0.327 N 
HETATM   15  C   UNL     1      27.616  43.442  52.530  1.00  0.00     0.226 C 
HETATM   16  O   UNL     1      27.301  42.260  52.482  1.00  0.00    -0.273 OA
HETATM   17  H   UNL     1      27.259  45.423  52.173  1.00  0.00     0.169 HD
BRANCH  15  18
HETATM   18  C   UNL     1      28.812  43.830  53.332  1.00  0.00     0.078 A 
HETATM   19  C   UNL     1      29.413  43.012  54.451  1.00  0.00     0.015 A 
HETATM   20  C   UNL     1      30.107  43.078  53.123  1.00  0.00     0.015 A 
ENDBRANCH  15  18
ENDBRANCH  11  14
ENDBRANCH   7   8
ENDBRANCH   3   7
BRANCH   1  21
HETATM   21  N   UNL     1      23.085  49.128  49.088  1.00  0.00    -0.323 N 
HETATM   22  H   UNL     1      22.804  49.699  49.877  1.00  0.00     0.169 HD
BRANCH  21  23
HETATM   23  C   UNL     1      24.405  49.213  48.823  1.00  0.00     0.151 A 
HETATM   24  N   UNL     1      24.868  49.905  47.780  1.00  0.00    -0.157 NA
HETATM   25  N   UNL     1      26.198  49.725  47.826  1.00  0.00    -0.281 N 
HETATM   26  C   UNL     1      26.608  48.914  48.845  1.00  0.00     0.027 A 
HETATM   27  H   UNL     1      26.767  50.179  47.119  1.00  0.00     0.189 HD
HETATM   28  C   UNL     1      28.023  48.551  49.063  1.00  0.00     0.070 C 
HETATM   29  C   UNL     1      25.455  48.568  49.515  1.00  0.00     0.078 A 
ENDBRANCH  21  23
ENDBRANCH   1  21
BRANCH   5  30
HETATM   30  N   UNL     1      18.628  47.750  47.597  1.00  0.00    -0.264 NA
HETATM   31  C   UNL     1      18.336  47.598  46.159  1.00  0.00     0.125 C 
HETATM   32  C   UNL     1      16.996  48.293  45.841  1.00  0.00     0.249 C 
HETATM   33  N   UNL     1      15.875  47.713  46.706  1.00  0.00    -0.073 N 
HETATM   34  H   UNL     1      15.786  46.717  46.466  1.00  0.00     0.279 HD
HETATM   35  C   UNL     1      14.561  48.373  46.420  1.00  0.00     0.269 C 
HETATM   36  C   UNL     1      16.233  47.782  48.195  1.00  0.00     0.249 C 
HETATM   37  C   UNL     1      17.608  47.131  48.468  1.00  0.00     0.125 C 
ENDBRANCH   5  30
BRANCH   6  38
HETATM   38  C   UNL     1      20.325  49.902  48.566  1.00  0.00     0.300 C 
HETATM   39  O   UNL     1      20.094  50.677  47.653  1.00  0.00    -0.259 OA
BRANCH  38  40
HETATM   40  O   UNL     1      20.266  50.193  49.888  1.00  0.00    -0.322 OA
HETATM   41  C   UNL     1      19.044  49.861  50.558  1.00  0.00     0.213 C 
ENDBRANCH  38  40
ENDBRANCH   6  38
TORSDOF 9
ENDMDL
MODEL 3
REMARK VINA RESULT:      -8.4      2.880      4.996
REMARK  9 active torsions:
REMARK  status: ('A' for Active; 'I' for Inactive)
REMARK    1  A    between atoms: C_6  and  N_7 
REMARK    2  A    between atoms: N_7  and  C_8 
REMARK    3  A    between atoms: C_10  and  S_11 
REMARK    4  A    between atoms: S_11  and  C_12 
REMARK    5  A    between atoms: C_15  and  N_16 
REMARK       I    between atoms: N_16  and  C_17 
REMARK    6  A    between atoms: C_17  and  C_18 
REMARK    7  A    between atoms: C_25  and  N_26 
REMARK    8  A    between atoms: C_34  and  C_35 
REMARK    9  A    between atoms: C_35  and  O_36 
ROOT
HETATM    1  C   UNL     1      24.534  45.479  49.455  1.00  0.00     0.152 A 
HETATM    2  N   UNL     1      23.421  45.197  48.754  1.00  0.00    -0.204 NA
HETATM    3  C   UNL     1      23.290  43.985  48.211  1.00  0.00     0.196 A 
HETATM    4  N   UNL     1      24.184  42.998  48.355  1.00  0.00    -0.209 NA
HETATM    5  C   UNL     1      25.283  43.242  49.095  1.00  0.00     0.128 A 
HETATM    6  C   UNL     1      25.509  44.503  49.655  1.00  0.00     0.125 A 
ENDROOT
BRANCH   3   7
HETATM    7  S   UNL     1      21.836  43.743  47.225  1.00  0.00    -0.050 SA
BRANCH   7   8
HETATM    8  C   UNL     1      20.839  45.197  47.455  1.00  0.00     0.008 A 
HETATM    9  C   UNL     1      19.900  45.325  48.482  1.00  0.00     0.021 A 
HETATM   10  C   UNL     1      19.184  46.515  48.653  1.00  0.00     0.031 A 
HETATM   11  C   UNL     1      19.428  47.613  47.827  1.00  0.00     0.034 A 
HETATM   12  C   UNL     1      20.392  47.503  46.823  1.00  0.00     0.031 A 
HETATM   13  C   UNL     1      21.082  46.302  46.631  1.00  0.00     0.021 A 
BRANCH  11  14
HETATM   14  N   UNL     1      18.790  48.857  47.986  1.00  0.00    -0.327 N 
HETATM   15  C   UNL     1      19.007  49.772  48.993  1.00  0.00     0.226 C 
HETATM   16  O   UNL     1      19.687  49.606  49.997  1.00  0.00    -0.273 OA
HETATM   17  H   UNL     1      18.084  49.088  47.302  1.00  0.00     0.169 HD
BRANCH  15  18
HETATM   18  C   UNL     1      18.317  51.081  48.806  1.00  0.00     0.078 A 
HETATM   19  C   UNL     1      18.403  52.254  49.755  1.00  0.00     0.015 A 
HETATM   20  C   UNL     1      19.144  52.297  48.452  1.00  0.00     0.015 A 
ENDBRANCH  15  18
ENDBRANCH  11  14
ENDBRANCH   7   8
ENDBRANCH   3   7
BRANCH   1  21
HETATM   21  N   UNL     1      24.652  46.762  50.020  1.00  0.00    -0.323 N 
HETATM   22  H   UNL     1      25.234  46.799  50.848  1.00  0.00     0.169 HD
BRANCH  21  23
HETATM   23  C   UNL     1      24.410  47.979  49.492  1.00  0.00     0.151 A 
HETATM   24  N   UNL     1      25.398  48.834  49.218  1.00  0.00    -0.157 NA
HETATM   25  N   UNL     1      24.771  49.927  48.752  1.00  0.00    -0.281 N 
HETATM   26  C   UNL     1      23.410  49.819  48.746  1.00  0.00     0.027 A 
HETATM   27  H   UNL     1      25.339  50.718  48.465  1.00  0.00     0.189 HD
HETATM   28  C   UNL     1      22.520  50.914  48.307  1.00  0.00     0.070 C 
HETATM   29  C   UNL     1      23.148  48.554  49.221  1.00  0.00     0.078 A 
ENDBRANCH  21  23
ENDBRANCH   1  21
BRANCH   5  30
HETATM   30  N   UNL     1      26.178  42.171  49.256  1.00  0.00    -0.264 NA
HETATM   31  C   UNL     1      25.811  41.190  50.295  1.00  0.00     0.125 C 
HETATM   32  C   UNL     1      27.052  40.345  50.648  1.00  0.00     0.249 C 
HETATM   33  N   UNL     1      27.604  39.658  49.397  1.00  0.00    -0.073 N 
HETATM   34  H   UNL     1      26.873  39.026  49.045  1.00  0.00     0.279 HD
HETATM   35  C   UNL     1      28.814  38.831  49.712  1.00  0.00     0.269 C 
HETATM   36  C   UNL     1      27.886  40.675  48.287  1.00  0.00     0.249 C 
HETATM   37  C   UNL     1      26.642  41.546  48.000  1.00  0.00     0.125 C 
ENDBRANCH   5  30
BRANCH   6  38
HETATM   38  C   UNL     1      26.776  44.796  50.354  1.00  0.00     0.300 C 
HETATM   39  O   UNL     1      27.765  45.274  49.823  1.00  0.00    -0.259 OA
BRANCH  38  40
HETATM   40  O   UNL     1      26.696  44.359  51.633  1.00  0.00    -0.322 OA
HETATM   41  C   UNL     1      27.889  43.790  52.186  1.00  0.00     0.213 C 
ENDBRANCH  38  40
ENDBRANCH   6  38
TORSDOF 9
ENDMDL
MODEL 4
REMARK VINA RESULT:      -8.3      2.351      4.268
REMARK  9 active torsions:
REMARK  status: ('A' for Active; 'I' for Inactive)
REMARK    1  A    between atoms: C_6  and  N_7 
REMARK    2  A    between atoms: N_7  and  C_8 
REMARK    3  A    between atoms: C_10  and  S_11 
REMARK    4  A    between atoms: S_11  and  C_12 
REMARK    5  A    between atoms: C_15  and  N_16 
REMARK       I    between atoms: N_16  and  C_17 
REMARK    6  A    between atoms: C_17  and  C_18 
REMARK    7  A    between atoms: C_25  and  N_26 
REMARK    8  A    between atoms: C_34  and  C_35 
REMARK    9  A    between atoms: C_35  and  O_36 
ROOT
HETATM    1  C   UNL     1      23.616  47.466  48.738  1.00  0.00     0.152 A 
HETATM    2  N   UNL     1      22.615  46.839  48.094  1.00  0.00    -0.204 NA
HETATM    3  C   UNL     1      22.553  45.506  48.138  1.00  0.00     0.196 A 
HETATM    4  N   UNL     1      23.408  44.738  48.826  1.00  0.00    -0.209 NA
HETATM    5  C   UNL     1      24.389  45.347  49.519  1.00  0.00     0.128 A 
HETATM    6  C   UNL     1      24.542  46.736  49.481  1.00  0.00     0.125 A 
ENDROOT
BRANCH   3   7
HETATM    7  S   UNL     1      21.255  44.770  47.179  1.00  0.00    -0.050 SA
BRANCH   7   8
HETATM    8  C   UNL     1      19.863  45.868  47.311  1.00  0.00     0.008 A 
HETATM    9  C   UNL     1      18.822  45.674  48.223  1.00  0.00     0.021 A 
HETATM   10  C   UNL     1      17.779  46.601  48.326  1.00  0.00     0.031 A 
HETATM   11  C   UNL     1      17.784  47.761  47.550  1.00  0.00     0.034 A 
HETATM   12  C   UNL     1      18.841  47.977  46.664  1.00  0.00     0.031 A 
HETATM   13  C   UNL     1      19.865  47.033  46.537  1.00  0.00     0.021 A 
BRANCH  11  14
HETATM   14  N   UNL     1      16.801  48.763  47.650  1.00  0.00    -0.327 N 
HETATM   15  C   UNL     1      16.791  49.821  48.532  1.00  0.00     0.226 C 
HETATM   16  O   UNL     1      17.558  50.000  49.469  1.00  0.00    -0.273 OA
HETATM   17  H   UNL     1      16.012  48.680  47.026  1.00  0.00     0.169 HD
BRANCH  15  18
HETATM   18  C   UNL     1      15.715  50.826  48.289  1.00  0.00     0.078 A 
HETATM   19  C   UNL     1      15.509  52.091  49.088  1.00  0.00     0.015 A 
HETATM   20  C   UNL     1      16.088  52.170  47.706  1.00  0.00     0.015 A 
ENDBRANCH  15  18
ENDBRANCH  11  14
ENDBRANCH   7   8
ENDBRANCH   3   7
BRANCH   1  21
HETATM   21  N   UNL     1      23.661  48.870  48.679  1.00  0.00    -0.323 N 
HETATM   22  H   UNL     1      24.436  49.238  48.139  1.00  0.00     0.169 HD
BRANCH  21  23
HETATM   23  C   UNL     1      22.707  49.791  48.924  1.00  0.00     0.151 A 
HETATM   24  N   UNL     1      22.470  50.245  50.157  1.00  0.00    -0.157 NA
HETATM   25  N   UNL     1      21.446  51.101  50.004  1.00  0.00    -0.281 N 
HETATM   26  C   UNL     1      20.993  51.192  48.719  1.00  0.00     0.027 A 
HETATM   27  H   UNL     1      21.098  51.582  50.827  1.00  0.00     0.189 HD
HETATM   28  C   UNL     1      19.853  52.046  48.328  1.00  0.00     0.070 C 
HETATM   29  C   UNL     1      21.804  50.348  47.992  1.00  0.00     0.078 A 
ENDBRANCH  21  23
ENDBRANCH   1  21
BRANCH   5  30
HETATM   30  N   UNL     1      25.242  44.512  50.260  1.00  0.00    -0.264 NA
HETATM   31  C   UNL     1      24.814  44.239  51.645  1.00  0.00     0.125 C 
HETATM   32  C   UNL     1      26.015  43.691  52.444  1.00  0.00     0.249 C 
HETATM   33  N   UNL     1      26.575  42.436  51.771  1.00  0.00    -0.073 N 
HETATM   34  H   UNL     1      25.832  41.725  51.779  1.00  0.00     0.279 HD
HETATM   35  C   UNL     1      27.746  41.884  52.525  1.00  0.00     0.269 C 
HETATM   36  C   UNL     1      26.921  42.703  50.303  1.00  0.00     0.249 C 
HETATM   37  C   UNL     1      25.716  43.308  49.547  1.00  0.00     0.125 C 
ENDBRANCH   5  30
BRANCH   6  38
HETATM   38  C   UNL     1      25.697  47.380  50.138  1.00  0.00     0.300 C 
HETATM   39  O   UNL     1      25.709  47.765  51.296  1.00  0.00    -0.259 OA
BRANCH  38  40
HETATM   40  O   UNL     1      26.687  47.563  49.233  1.00  0.00    -0.322 OA
HETATM   41  C   UNL     1      27.371  48.821  49.284  1.00  0.00     0.213 C 
ENDBRANCH  38  40
ENDBRANCH   6  38
TORSDOF 9
ENDMDL
MODEL 5
REMARK VINA RESULT:      -8.1      2.156      9.064
REMARK  9 active torsions:
REMARK  status: ('A' for Active; 'I' for Inactive)
REMARK    1  A    between atoms: C_6  and  N_7 
REMARK    2  A    between atoms: N_7  and  C_8 
REMARK    3  A    between atoms: C_10  and  S_11 
REMARK    4  A    between atoms: S_11  and  C_12 
REMARK    5  A    between atoms: C_15  and  N_16 
REMARK       I    between atoms: N_16  and  C_17 
REMARK    6  A    between atoms: C_17  and  C_18 
REMARK    7  A    between atoms: C_25  and  N_26 
REMARK    8  A    between atoms: C_34  and  C_35 
REMARK    9  A    between atoms: C_35  and  O_36 
ROOT
HETATM    1  C   UNL     1      21.865  46.815  47.926  1.00  0.00     0.152 A 
HETATM    2  N   UNL     1      23.108  47.153  48.317  1.00  0.00    -0.204 NA
HETATM    3  C   UNL     1      23.319  48.374  48.813  1.00  0.00     0.196 A 
HETATM    4  N   UNL     1      22.356  49.287  48.993  1.00  0.00    -0.209 NA
HETATM    5  C   UNL     1      21.095  48.954  48.655  1.00  0.00     0.128 A 
HETATM    6  C   UNL     1      20.808  47.709  48.086  1.00  0.00     0.125 A 
ENDROOT
BRANCH   3   7
HETATM    7  S   UNL     1      25.005  48.756  49.208  1.00  0.00    -0.050 SA
BRANCH   7   8
HETATM    8  C   UNL     1      25.595  47.406  50.204  1.00  0.00     0.008 A 
HETATM    9  C   UNL     1      25.099  47.125  51.479  1.00  0.00     0.021 A 
HETATM   10  C   UNL     1      25.557  46.013  52.196  1.00  0.00     0.031 A 
HETATM   11  C   UNL     1      26.486  45.140  51.631  1.00  0.00     0.034 A 
HETATM   12  C   UNL     1      26.957  45.395  50.341  1.00  0.00     0.031 A 
HETATM   13  C   UNL     1      26.524  46.525  49.639  1.00  0.00     0.021 A 
BRANCH  11  14
HETATM   14  N   UNL     1      26.939  43.971  52.270  1.00  0.00    -0.327 N 
HETATM   15  C   UNL     1      27.725  43.901  53.399  1.00  0.00     0.226 C 
HETATM   16  O   UNL     1      28.280  44.836  53.962  1.00  0.00    -0.273 OA
HETATM   17  H   UNL     1      26.678  43.096  51.839  1.00  0.00     0.169 HD
BRANCH  15  18
HETATM   18  C   UNL     1      27.900  42.527  53.954  1.00  0.00     0.078 A 
HETATM   19  C   UNL     1      27.982  41.261  53.134  1.00  0.00     0.015 A 
HETATM   20  C   UNL     1      29.224  41.824  53.758  1.00  0.00     0.015 A 
ENDBRANCH  15  18
ENDBRANCH  11  14
ENDBRANCH   7   8
ENDBRANCH   3   7
BRANCH   1  21
HETATM   21  N   UNL     1      21.664  45.524  47.407  1.00  0.00    -0.323 N 
HETATM   22  H   UNL     1      20.904  45.458  46.740  1.00  0.00     0.169 HD
BRANCH  21  23
HETATM   23  C   UNL     1      22.481  44.451  47.381  1.00  0.00     0.151 A 
HETATM   24  N   UNL     1      23.199  44.142  46.299  1.00  0.00    -0.157 NA
HETATM   25  N   UNL     1      23.842  43.012  46.640  1.00  0.00    -0.281 N 
HETATM   26  C   UNL     1      23.539  42.564  47.893  1.00  0.00     0.027 A 
HETATM   27  H   UNL     1      24.467  42.594  45.958  1.00  0.00     0.189 HD
HETATM   28  C   UNL     1      24.104  41.322  48.460  1.00  0.00     0.070 C 
HETATM   29  C   UNL     1      22.654  43.489  48.401  1.00  0.00     0.078 A 
ENDBRANCH  21  23
ENDBRANCH   1  21
BRANCH   5  30
HETATM   30  N   UNL     1      20.107  49.923  48.894  1.00  0.00    -0.264 NA
HETATM   31  C   UNL     1      19.377  49.781  50.168  1.00  0.00     0.125 C 
HETATM   32  C   UNL     1      18.081  50.616  50.100  1.00  0.00     0.249 C 
HETATM   33  N   UNL     1      18.404  52.080  49.798  1.00  0.00    -0.073 N 
HETATM   34  H   UNL     1      18.976  52.436  50.575  1.00  0.00     0.279 HD
HETATM   35  C   UNL     1      17.161  52.914  49.723  1.00  0.00     0.269 C 
HETATM   36  C   UNL     1      19.251  52.209  48.527  1.00  0.00     0.249 C 
HETATM   37  C   UNL     1      20.509  51.315  48.603  1.00  0.00     0.125 C 
ENDBRANCH   5  30
BRANCH   6  38
HETATM   38  C   UNL     1      19.447  47.405  47.601  1.00  0.00     0.300 C 
HETATM   39  O   UNL     1      18.976  47.819  46.555  1.00  0.00    -0.259 OA
BRANCH  38  40
HETATM   40  O   UNL     1      18.785  46.687  48.539  1.00  0.00    -0.322 OA
HETATM   41  C   UNL     1      17.371  46.902  48.623  1.00  0.00     0.213 C 
ENDBRANCH  38  40
ENDBRANCH   6  38
TORSDOF 9
ENDMDL
MODEL 6
REMARK VINA RESULT:      -8.0      2.717      9.276
REMARK  9 active torsions:
REMARK  status: ('A' for Active; 'I' for Inactive)
REMARK    1  A    between atoms: C_6  and  N_7 
REMARK    2  A    between atoms: N_7  and  C_8 
REMARK    3  A    between atoms: C_10  and  S_11 
REMARK    4  A    between atoms: S_11  and  C_12 
REMARK    5  A    between atoms: C_15  and  N_16 
REMARK       I    between atoms: N_16  and  C_17 
REMARK    6  A    between atoms: C_17  and  C_18 
REMARK    7  A    between atoms: C_25  and  N_26 
REMARK    8  A    between atoms: C_34  and  C_35 
REMARK    9  A    between atoms: C_35  and  O_36 
ROOT
HETATM    1  C   UNL     1      22.006  45.118  48.421  1.00  0.00     0.152 A 
HETATM    2  N   UNL     1      23.020  45.884  48.864  1.00  0.00    -0.204 NA
HETATM    3  C   UNL     1      22.842  47.204  48.953  1.00  0.00     0.196 A 
HETATM    4  N   UNL     1      21.690  47.825  48.667  1.00  0.00    -0.209 NA
HETATM    5  C   UNL     1      20.646  47.074  48.269  1.00  0.00     0.128 A 
HETATM    6  C   UNL     1      20.774  45.690  48.109  1.00  0.00     0.125 A 
ENDROOT
BRANCH   3   7
HETATM    7  S   UNL     1      24.266  48.135  49.453  1.00  0.00    -0.050 SA
BRANCH   7   8
HETATM    8  C   UNL     1      25.290  47.009  50.371  1.00  0.00     0.008 A 
HETATM    9  C   UNL     1      25.106  46.744  51.730  1.00  0.00     0.021 A 
HETATM   10  C   UNL     1      25.905  45.803  52.391  1.00  0.00     0.031 A 
HETATM   11  C   UNL     1      26.872  45.080  51.692  1.00  0.00     0.034 A 
HETATM   12  C   UNL     1      27.035  45.315  50.325  1.00  0.00     0.031 A 
HETATM   13  C   UNL     1      26.260  46.279  49.673  1.00  0.00     0.021 A 
BRANCH  11  14
HETATM   14  N   UNL     1      27.663  44.076  52.280  1.00  0.00    -0.327 N 
HETATM   15  C   UNL     1      28.323  44.148  53.488  1.00  0.00     0.226 C 
HETATM   16  O   UNL     1      28.449  45.140  54.194  1.00  0.00    -0.273 OA
HETATM   17  H   UNL     1      27.776  43.226  51.747  1.00  0.00     0.169 HD
BRANCH  15  18
HETATM   18  C   UNL     1      28.938  42.867  53.940  1.00  0.00     0.078 A 
HETATM   19  C   UNL     1      29.041  41.609  53.110  1.00  0.00     0.015 A 
HETATM   20  C   UNL     1      30.264  42.445  53.349  1.00  0.00     0.015 A 
ENDBRANCH  15  18
ENDBRANCH  11  14
ENDBRANCH   7   8
ENDBRANCH   3   7
BRANCH   1  21
HETATM   21  N   UNL     1      22.215  43.730  48.337  1.00  0.00    -0.323 N 
HETATM   22  H   UNL     1      21.543  43.244  47.755  1.00  0.00     0.169 HD
BRANCH  21  23
HETATM   23  C   UNL     1      23.307  42.988  48.610  1.00  0.00     0.151 A 
HETATM   24  N   UNL     1      23.945  42.301  47.660  1.00  0.00    -0.157 NA
HETATM   25  N   UNL     1      24.936  41.672  48.314  1.00  0.00    -0.281 N 
HETATM   26  C   UNL     1      24.940  41.904  49.659  1.00  0.00     0.027 A 
HETATM   27  H   UNL     1      25.568  41.088  47.776  1.00  0.00     0.189 HD
HETATM   28  C   UNL     1      25.919  41.285  50.577  1.00  0.00     0.070 C 
HETATM   29  C   UNL     1      23.887  42.764  49.879  1.00  0.00     0.078 A 
ENDBRANCH  21  23
ENDBRANCH   1  21
BRANCH   5  30
HETATM   30  N   UNL     1      19.444  47.757  48.016  1.00  0.00    -0.264 NA
HETATM   31  C   UNL     1      18.651  48.103  49.211  1.00  0.00     0.125 C 
HETATM   32  C   UNL     1      17.211  48.444  48.776  1.00  0.00     0.249 C 
HETATM   33  N   UNL     1      17.217  49.584  47.755  1.00  0.00    -0.073 N 
HETATM   34  H   UNL     1      17.618  50.410  48.218  1.00  0.00     0.279 HD
HETATM   35  C   UNL     1      15.829  49.935  47.312  1.00  0.00     0.269 C 
HETATM   36  C   UNL     1      18.126  49.256  46.566  1.00  0.00     0.249 C 
HETATM   37  C   UNL     1      19.542  48.860  47.040  1.00  0.00     0.125 C 
ENDBRANCH   5  30
BRANCH   6  38
HETATM   38  C   UNL     1      19.663  44.896  47.549  1.00  0.00     0.300 C 
HETATM   39  O   UNL     1      18.701  44.503  48.189  1.00  0.00    -0.259 OA
BRANCH  38  40
HETATM   40  O   UNL     1      19.933  44.592  46.257  1.00  0.00    -0.322 OA
HETATM   41  C   UNL     1      19.190  45.313  45.266  1.00  0.00     0.213 C 
ENDBRANCH  38  40
ENDBRANCH   6  38
TORSDOF 9
ENDMDL
MODEL 7
REMARK VINA RESULT:      -7.9      1.277      5.589
REMARK  9 active torsions:
REMARK  status: ('A' for Active; 'I' for Inactive)
REMARK    1  A    between atoms: C_6  and  N_7 
REMARK    2  A    between atoms: N_7  and  C_8 
REMARK    3  A    between atoms: C_10  and  S_11 
REMARK    4  A    between atoms: S_11  and  C_12 
REMARK    5  A    between atoms: C_15  and  N_16 
REMARK       I    between atoms: N_16  and  C_17 
REMARK    6  A    between atoms: C_17  and  C_18 
REMARK    7  A    between atoms: C_25  and  N_26 
REMARK    8  A    between atoms: C_34  and  C_35 
REMARK    9  A    between atoms: C_35  and  O_36 
ROOT
HETATM    1  C   UNL     1      23.858  46.148  49.278  1.00  0.00     0.152 A 
HETATM    2  N   UNL     1      23.987  47.483  49.381  1.00  0.00    -0.204 NA
HETATM    3  C   UNL     1      23.060  48.267  48.825  1.00  0.00     0.196 A 
HETATM    4  N   UNL     1      21.970  47.808  48.197  1.00  0.00    -0.209 NA
HETATM    5  C   UNL     1      21.794  46.474  48.125  1.00  0.00     0.128 A 
HETATM    6  C   UNL     1      22.747  45.593  48.645  1.00  0.00     0.125 A 
ENDROOT
BRANCH   3   7
HETATM    7  S   UNL     1      23.371  50.010  48.930  1.00  0.00    -0.050 SA
BRANCH   7   8
HETATM    8  C   UNL     1      21.780  50.781  49.123  1.00  0.00     0.008 A 
HETATM    9  C   UNL     1      21.096  51.394  48.070  1.00  0.00     0.021 A 
HETATM   10  C   UNL     1      19.820  51.934  48.264  1.00  0.00     0.031 A 
HETATM   11  C   UNL     1      19.188  51.830  49.504  1.00  0.00     0.034 A 
HETATM   12  C   UNL     1      19.852  51.186  50.550  1.00  0.00     0.031 A 
HETATM   13  C   UNL     1      21.142  50.676  50.364  1.00  0.00     0.021 A 
BRANCH  11  14
HETATM   14  N   UNL     1      17.882  52.294  49.748  1.00  0.00    -0.327 N 
HETATM   15  C   UNL     1      16.706  51.647  49.439  1.00  0.00     0.226 C 
HETATM   16  O   UNL     1      16.588  50.623  48.778  1.00  0.00    -0.273 OA
HETATM   17  H   UNL     1      17.804  53.208  50.173  1.00  0.00     0.169 HD
BRANCH  15  18
HETATM   18  C   UNL     1      15.476  52.296  49.977  1.00  0.00     0.078 A 
HETATM   19  C   UNL     1      15.377  53.734  50.429  1.00  0.00     0.015 A 
HETATM   20  C   UNL     1      14.759  53.320  49.127  1.00  0.00     0.015 A 
ENDBRANCH  15  18
ENDBRANCH  11  14
ENDBRANCH   7   8
ENDBRANCH   3   7
BRANCH   1  21
HETATM   21  N   UNL     1      24.844  45.341  49.873  1.00  0.00    -0.323 N 
HETATM   22  H   UNL     1      25.507  44.944  49.217  1.00  0.00     0.169 HD
BRANCH  21  23
HETATM   23  C   UNL     1      25.262  45.264  51.153  1.00  0.00     0.151 A 
HETATM   24  N   UNL     1      26.309  45.964  51.593  1.00  0.00    -0.157 NA
HETATM   25  N   UNL     1      26.435  45.600  52.880  1.00  0.00    -0.281 N 
HETATM   26  C   UNL     1      25.524  44.665  53.278  1.00  0.00     0.027 A 
HETATM   27  H   UNL     1      27.178  46.024  53.427  1.00  0.00     0.189 HD
HETATM   28  C   UNL     1      25.501  44.095  54.641  1.00  0.00     0.070 C 
HETATM   29  C   UNL     1      24.742  44.430  52.168  1.00  0.00     0.078 A 
ENDBRANCH  21  23
ENDBRANCH   1  21
BRANCH   5  30
HETATM   30  N   UNL     1      20.619  46.033  47.494  1.00  0.00    -0.264 NA
HETATM   31  C   UNL     1      19.361  46.400  48.170  1.00  0.00     0.125 C 
HETATM   32  C   UNL     1      18.221  45.513  47.628  1.00  0.00     0.249 C 
HETATM   33  N   UNL     1      18.106  45.660  46.110  1.00  0.00    -0.073 N 
HETATM   34  H   UNL     1      17.872  46.642  45.912  1.00  0.00     0.279 HD
HETATM   35  C   UNL     1      17.007  44.805  45.556  1.00  0.00     0.269 C 
HETATM   36  C   UNL     1      19.446  45.375  45.424  1.00  0.00     0.249 C 
HETATM   37  C   UNL     1      20.577  46.235  46.031  1.00  0.00     0.125 C 
ENDBRANCH   5  30
BRANCH   6  38
HETATM   38  C   UNL     1      22.607  44.137  48.446  1.00  0.00     0.300 C 
HETATM   39  O   UNL     1      22.269  43.349  49.314  1.00  0.00    -0.259 OA
BRANCH  38  40
HETATM   40  O   UNL     1      23.008  43.813  47.194  1.00  0.00    -0.322 OA
HETATM   41  C   UNL     1      22.295  42.748  46.554  1.00  0.00     0.213 C 
ENDBRANCH  38  40
ENDBRANCH   6  38
TORSDOF 9
ENDMDL
MODEL 8
REMARK VINA RESULT:      -7.9      4.818     10.303
REMARK  9 active torsions:
REMARK  status: ('A' for Active; 'I' for Inactive)
REMARK    1  A    between atoms: C_6  and  N_7 
REMARK    2  A    between atoms: N_7  and  C_8 
REMARK    3  A    between atoms: C_10  and  S_11 
REMARK    4  A    between atoms: S_11  and  C_12 
REMARK    5  A    between atoms: C_15  and  N_16 
REMARK       I    between atoms: N_16  and  C_17 
REMARK    6  A    between atoms: C_17  and  C_18 
REMARK    7  A    between atoms: C_25  and  N_26 
REMARK    8  A    between atoms: C_34  and  C_35 
REMARK    9  A    between atoms: C_35  and  O_36 
ROOT
HETATM    1  C   UNL     1      24.265  44.037  50.433  1.00  0.00     0.152 A 
HETATM    2  N   UNL     1      25.238  43.206  50.845  1.00  0.00    -0.204 NA
HETATM    3  C   UNL     1      25.406  42.043  50.211  1.00  0.00     0.196 A 
HETATM    4  N   UNL     1      24.688  41.659  49.147  1.00  0.00    -0.209 NA
HETATM    5  C   UNL     1      23.741  42.498  48.686  1.00  0.00     0.128 A 
HETATM    6  C   UNL     1      23.479  43.711  49.329  1.00  0.00     0.125 A 
ENDROOT
BRANCH   3   7
HETATM    7  S   UNL     1      26.649  40.975  50.890  1.00  0.00    -0.050 SA
BRANCH   7   8
HETATM    8  C   UNL     1      27.534  41.950  52.085  1.00  0.00     0.008 A 
HETATM    9  C   UNL     1      28.489  42.907  51.733  1.00  0.00     0.021 A 
HETATM   10  C   UNL     1      29.114  43.688  52.711  1.00  0.00     0.031 A 
HETATM   11  C   UNL     1      28.761  43.556  54.055  1.00  0.00     0.034 A 
HETATM   12  C   UNL     1      27.780  42.627  54.408  1.00  0.00     0.031 A 
HETATM   13  C   UNL     1      27.181  41.822  53.433  1.00  0.00     0.021 A 
BRANCH  11  14
HETATM   14  N   UNL     1      29.303  44.353  55.079  1.00  0.00    -0.327 N 
HETATM   15  C   UNL     1      30.435  44.090  55.818  1.00  0.00     0.226 C 
HETATM   16  O   UNL     1      31.089  43.055  55.808  1.00  0.00    -0.273 OA
HETATM   17  H   UNL     1      28.791  45.193  55.310  1.00  0.00     0.169 HD
BRANCH  15  18
HETATM   18  C   UNL     1      30.869  45.201  56.714  1.00  0.00     0.078 A 
HETATM   19  C   UNL     1      29.956  46.003  57.611  1.00  0.00     0.015 A 
HETATM   20  C   UNL     1      30.870  44.975  58.209  1.00  0.00     0.015 A 
ENDBRANCH  15  18
ENDBRANCH  11  14
ENDBRANCH   7   8
ENDBRANCH   3   7
BRANCH   1  21
HETATM   21  N   UNL     1      24.106  45.258  51.114  1.00  0.00    -0.323 N 
HETATM   22  H   UNL     1      23.144  45.491  51.329  1.00  0.00     0.169 HD
BRANCH  21  23
HETATM   23  C   UNL     1      24.994  45.998  51.808  1.00  0.00     0.151 A 
HETATM   24  N   UNL     1      25.541  47.102  51.294  1.00  0.00    -0.157 NA
HETATM   25  N   UNL     1      26.384  47.530  52.249  1.00  0.00    -0.281 N 
HETATM   26  C   UNL     1      26.422  46.723  53.350  1.00  0.00     0.027 A 
HETATM   27  H   UNL     1      26.912  48.379  52.075  1.00  0.00     0.189 HD
HETATM   28  C   UNL     1      27.304  46.984  54.506  1.00  0.00     0.070 C 
HETATM   29  C   UNL     1      25.520  45.716  53.089  1.00  0.00     0.078 A 
ENDBRANCH  21  23
ENDBRANCH   1  21
BRANCH   5  30
HETATM   30  N   UNL     1      23.036  42.077  47.545  1.00  0.00    -0.264 NA
HETATM   31  C   UNL     1      23.614  42.497  46.255  1.00  0.00     0.125 C 
HETATM   32  C   UNL     1      22.544  42.347  45.153  1.00  0.00     0.249 C 
HETATM   33  N   UNL     1      22.034  40.906  45.097  1.00  0.00    -0.073 N 
HETATM   34  H   UNL     1      22.832  40.305  44.855  1.00  0.00     0.279 HD
HETATM   35  C   UNL     1      20.990  40.732  44.036  1.00  0.00     0.269 C 
HETATM   36  C   UNL     1      21.530  40.445  46.469  1.00  0.00     0.249 C 
HETATM   37  C   UNL     1      22.603  40.665  47.560  1.00  0.00     0.125 C 
ENDBRANCH   5  30
BRANCH   6  38
HETATM   38  C   UNL     1      22.354  44.561  48.893  1.00  0.00     0.300 C 
HETATM   39  O   UNL     1      21.176  44.283  49.045  1.00  0.00    -0.259 OA
BRANCH  38  40
HETATM   40  O   UNL     1      22.833  45.632  48.216  1.00  0.00    -0.322 OA
HETATM   41  C   UNL     1      22.088  46.849  48.342  1.00  0.00     0.213 C 
ENDBRANCH  38  40
ENDBRANCH   6  38
TORSDOF 9
ENDMDL
MODEL 9
REMARK VINA RESULT:      -7.9      1.866      5.830
REMARK  9 active torsions:
REMARK  status: ('A' for Active; 'I' for Inactive)
REMARK    1  A    between atoms: C_6  and  N_7 
REMARK    2  A    between atoms: N_7  and  C_8 
REMARK    3  A    between atoms: C_10  and  S_11 
REMARK    4  A    between atoms: S_11  and  C_12 
REMARK    5  A    between atoms: C_15  and  N_16 
REMARK       I    between atoms: N_16  and  C_17 
REMARK    6  A    between atoms: C_17  and  C_18 
REMARK    7  A    between atoms: C_25  and  N_26 
REMARK    8  A    between atoms: C_34  and  C_35 
REMARK    9  A    between atoms: C_35  and  O_36 
ROOT
HETATM    1  C   UNL     1      23.402  47.056  49.249  1.00  0.00     0.152 A 
HETATM    2  N   UNL     1      23.176  48.340  49.584  1.00  0.00    -0.204 NA
HETATM    3  C   UNL     1      22.075  48.942  49.127  1.00  0.00     0.196 A 
HETATM    4  N   UNL     1      21.143  48.334  48.382  1.00  0.00    -0.209 NA
HETATM    5  C   UNL     1      21.324  47.035  48.075  1.00  0.00     0.128 A 
HETATM    6  C   UNL     1      22.476  46.354  48.481  1.00  0.00     0.125 A 
ENDROOT
BRANCH   3   7
HETATM    7  S   UNL     1      21.916  50.659  49.542  1.00  0.00    -0.050 SA
BRANCH   7   8
HETATM    8  C   UNL     1      20.196  51.058  49.331  1.00  0.00     0.008 A 
HETATM    9  C   UNL     1      19.184  50.516  50.127  1.00  0.00     0.021 A 
HETATM   10  C   UNL     1      17.852  50.910  49.957  1.00  0.00     0.031 A 
HETATM   11  C   UNL     1      17.516  51.884  49.017  1.00  0.00     0.034 A 
HETATM   12  C   UNL     1      18.529  52.455  48.244  1.00  0.00     0.031 A 
HETATM   13  C   UNL     1      19.856  52.037  48.391  1.00  0.00     0.021 A 
BRANCH  11  14
HETATM   14  N   UNL     1      16.208  52.371  48.839  1.00  0.00    -0.327 N 
HETATM   15  C   UNL     1      15.577  53.334  49.595  1.00  0.00     0.226 C 
HETATM   16  O   UNL     1      15.991  53.837  50.631  1.00  0.00    -0.273 OA
HETATM   17  H   UNL     1      15.671  51.948  48.095  1.00  0.00     0.169 HD
BRANCH  15  18
HETATM   18  C   UNL     1      14.255  53.777  49.065  1.00  0.00     0.078 A 
HETATM   19  C   UNL     1      13.329  54.759  49.745  1.00  0.00     0.015 A 
HETATM   20  C   UNL     1      14.114  55.189  48.541  1.00  0.00     0.015 A 
ENDBRANCH  15  18
ENDBRANCH  11  14
ENDBRANCH   7   8
ENDBRANCH   3   7
BRANCH   1  21
HETATM   21  N   UNL     1      24.567  46.441  49.742  1.00  0.00    -0.323 N 
HETATM   22  H   UNL     1      25.336  46.421  49.083  1.00  0.00     0.169 HD
BRANCH  21  23
HETATM   23  C   UNL     1      24.951  46.174  51.007  1.00  0.00     0.151 A 
HETATM   24  N   UNL     1      24.592  45.047  51.626  1.00  0.00    -0.157 NA
HETATM   25  N   UNL     1      25.124  45.160  52.855  1.00  0.00    -0.281 N 
HETATM   26  C   UNL     1      25.788  46.335  53.060  1.00  0.00     0.027 A 
HETATM   27  H   UNL     1      24.983  44.397  53.509  1.00  0.00     0.189 HD
HETATM   28  C   UNL     1      26.420  46.686  54.349  1.00  0.00     0.070 C 
HETATM   29  C   UNL     1      25.693  47.015  51.866  1.00  0.00     0.078 A 
ENDBRANCH  21  23
ENDBRANCH   1  21
BRANCH   5  30
HETATM   30  N   UNL     1      20.306  46.423  47.326  1.00  0.00    -0.264 NA
HETATM   31  C   UNL     1      19.243  45.772  48.115  1.00  0.00     0.125 C 
HETATM   32  C   UNL     1      18.461  44.804  47.203  1.00  0.00     0.249 C 
HETATM   33  N   UNL     1      17.887  45.553  45.998  1.00  0.00    -0.073 N 
HETATM   34  H   UNL     1      17.231  46.258  46.357  1.00  0.00     0.279 HD
HETATM   35  C   UNL     1      17.124  44.635  45.092  1.00  0.00     0.269 C 
HETATM   36  C   UNL     1      18.986  46.310  45.243  1.00  0.00     0.249 C 
HETATM   37  C   UNL     1      19.789  47.223  46.197  1.00  0.00     0.125 C 
ENDBRANCH   5  30
BRANCH   6  38
HETATM   38  C   UNL     1      22.724  44.970  48.030  1.00  0.00     0.300 C 
HETATM   39  O   UNL     1      23.041  44.658  46.895  1.00  0.00    -0.259 OA
BRANCH  38  40
HETATM   40  O   UNL     1      22.447  44.111  49.040  1.00  0.00    -0.322 OA
HETATM   41  C   UNL     1      23.196  42.890  49.060  1.00  0.00     0.213 C 
ENDBRANCH  38  40
ENDBRANCH   6  38
TORSDOF 9
ENDMDL
MODEL 10
REMARK VINA RESULT:      -7.8     15.706     18.213
REMARK  9 active torsions:
REMARK  status: ('A' for Active; 'I' for Inactive)
REMARK    1  A    between atoms: C_6  and  N_7 
REMARK    2  A    between atoms: N_7  and  C_8 
REMARK    3  A    between atoms: C_10  and  S_11 
REMARK    4  A    between atoms: S_11  and  C_12 
REMARK    5  A    between atoms: C_15  and  N_16 
REMARK       I    between atoms: N_16  and  C_17 
REMARK    6  A    between atoms: C_17  and  C_18 
REMARK    7  A    between atoms: C_25  and  N_26 
REMARK    8  A    between atoms: C_34  and  C_35 
REMARK    9  A    between atoms: C_35  and  O_36 
ROOT
HETATM    1  C   UNL     1      35.535  51.976  41.283  1.00  0.00     0.152 A 
HETATM    2  N   UNL     1      36.188  52.845  40.490  1.00  0.00    -0.204 NA
HETATM    3  C   UNL     1      35.552  53.362  39.436  1.00  0.00     0.196 A 
HETATM    4  N   UNL     1      34.273  53.105  39.134  1.00  0.00    -0.209 NA
HETATM    5  C   UNL     1      33.584  52.276  39.942  1.00  0.00     0.128 A 
HETATM    6  C   UNL     1      34.200  51.663  41.037  1.00  0.00     0.125 A 
ENDROOT
BRANCH   3   7
HETATM    7  S   UNL     1      36.526  54.419  38.398  1.00  0.00    -0.050 SA
BRANCH   7   8
HETATM    8  C   UNL     1      35.836  56.048  38.570  1.00  0.00     0.008 A 
HETATM    9  C   UNL     1      36.125  57.096  37.693  1.00  0.00     0.021 A 
HETATM   10  C   UNL     1      35.508  58.344  37.840  1.00  0.00     0.031 A 
HETATM   11  C   UNL     1      34.558  58.550  38.841  1.00  0.00     0.034 A 
HETATM   12  C   UNL     1      34.238  57.494  39.697  1.00  0.00     0.031 A 
HETATM   13  C   UNL     1      34.880  56.258  39.571  1.00  0.00     0.021 A 
BRANCH  11  14
HETATM   14  N   UNL     1      33.854  59.757  39.003  1.00  0.00    -0.327 N 
HETATM   15  C   UNL     1      34.342  61.029  38.800  1.00  0.00     0.226 C 
HETATM   16  O   UNL     1      35.505  61.339  38.577  1.00  0.00    -0.273 OA
HETATM   17  H   UNL     1      32.900  59.679  39.325  1.00  0.00     0.169 HD
BRANCH  15  18
HETATM   18  C   UNL     1      33.317  62.111  38.876  1.00  0.00     0.078 A 
HETATM   19  C   UNL     1      32.215  62.195  39.907  1.00  0.00     0.015 A 
HETATM   20  C   UNL     1      33.397  63.114  40.005  1.00  0.00     0.015 A 
ENDBRANCH  15  18
ENDBRANCH  11  14
ENDBRANCH   7   8
ENDBRANCH   3   7
BRANCH   1  21
HETATM   21  N   UNL     1      36.224  51.445  42.388  1.00  0.00    -0.323 N 
HETATM   22  H   UNL     1      36.418  50.453  42.319  1.00  0.00     0.169 HD
BRANCH  21  23
HETATM   23  C   UNL     1      36.948  52.055  43.349  1.00  0.00     0.151 A 
HETATM   24  N   UNL     1      38.130  51.580  43.745  1.00  0.00    -0.157 NA
HETATM   25  N   UNL     1      38.515  52.420  44.721  1.00  0.00    -0.281 N 
HETATM   26  C   UNL     1      37.607  53.403  44.990  1.00  0.00     0.027 A 
HETATM   27  H   UNL     1      39.410  52.253  45.171  1.00  0.00     0.189 HD
HETATM   28  C   UNL     1      37.807  54.414  46.048  1.00  0.00     0.070 C 
HETATM   29  C   UNL     1      36.574  53.190  44.104  1.00  0.00     0.078 A 
ENDBRANCH  21  23
ENDBRANCH   1  21
BRANCH   5  30
HETATM   30  N   UNL     1      32.235  52.062  39.615  1.00  0.00    -0.264 NA
HETATM   31  C   UNL     1      31.306  53.130  40.030  1.00  0.00     0.125 C 
HETATM   32  C   UNL     1      29.864  52.583  39.998  1.00  0.00     0.249 C 
HETATM   33  N   UNL     1      29.524  52.054  38.603  1.00  0.00    -0.073 N 
HETATM   34  H   UNL     1      29.582  52.846  37.951  1.00  0.00     0.279 HD
HETATM   35  C   UNL     1      28.128  51.512  38.545  1.00  0.00     0.269 C 
HETATM   36  C   UNL     1      30.554  51.018  38.139  1.00  0.00     0.249 C 
HETATM   37  C   UNL     1      31.991  51.578  38.241  1.00  0.00     0.125 C 
ENDBRANCH   5  30
BRANCH   6  38
HETATM   38  C   UNL     1      33.473  50.659  41.839  1.00  0.00     0.300 C 
HETATM   39  O   UNL     1      32.997  49.628  41.392  1.00  0.00    -0.259 OA
BRANCH  38  40
HETATM   40  O   UNL     1      33.335  51.110  43.109  1.00  0.00    -0.322 OA
HETATM   41  C   UNL     1      32.201  51.946  43.366  1.00  0.00     0.213 C 
ENDBRANCH  38  40
ENDBRANCH   6  38
TORSDOF 9
ENDMDL
