MODEL 1
REMARK VINA RESULT:     -11.2      0.000      0.000
REMARK  9 active torsions:
REMARK  status: ('A' for Active; 'I' for Inactive)
REMARK    1  A    between atoms: C_4  and  C_5 
REMARK    2  A    between atoms: C_16  and  C_17 
REMARK    3  A    between atoms: C_20  and  C_21 
REMARK    4  A    between atoms: C_21  and  N_22 
REMARK    5  A    between atoms: N_22  and  C_23 
REMARK    6  A    between atoms: C_23  and  N_24 
REMARK    7  A    between atoms: N_24  and  C_25 
REMARK    8  A    between atoms: C_27  and  C_28 
REMARK    9  A    between atoms: C_28  and  O_29 
ROOT
HETATM    1  C   UNL     1      25.510  43.096  50.428  1.00  0.00     0.067 C 
HETATM    2  C   UNL     1      25.579  43.319  48.907  1.00  0.00     0.001 C 
HETATM    3  C   UNL     1      24.397  44.170  48.402  1.00  0.00     0.040 C 
HETATM    4  C   UNL     1      23.045  43.474  48.636  1.00  0.00     0.206 C 
HETATM    5  N   UNL     1      23.317  42.279  49.545  1.00  0.00    -0.065 N 
HETATM    6  H   UNL     1      22.422  41.852  49.823  1.00  0.00     0.280 HD
HETATM    7  C   UNL     1      24.071  42.681  50.814  1.00  0.00     0.246 C 
HETATM    8  C   UNL     1      25.403  41.922  48.254  1.00  0.00     0.033 C 
HETATM    9  C   UNL     1      24.126  41.242  48.775  1.00  0.00     0.236 C 
ENDROOT
BRANCH   4  10
HETATM   10  C   UNL     1      21.956  44.415  49.200  1.00  0.00     0.155 C 
BRANCH  10  11
HETATM   11  N   UNL     1      21.564  45.445  48.239  1.00  0.00    -0.365 N 
HETATM   12  H   UNL     1      21.662  45.216  47.254  1.00  0.00     0.161 HD
BRANCH  11  13
HETATM   13  C   UNL     1      20.648  46.440  48.446  1.00  0.00     0.172 C 
HETATM   14  S   UNL     1      19.104  46.472  47.812  1.00  0.00    -0.041 SA
BRANCH  13  15
HETATM   15  N   UNL     1      21.044  47.500  49.211  1.00  0.00    -0.333 N 
HETATM   16  H   UNL     1      20.851  47.361  50.201  1.00  0.00     0.168 HD
BRANCH  15  17
HETATM   17  C   UNL     1      21.789  48.661  48.903  1.00  0.00     0.035 A 
HETATM   18  C   UNL     1      23.178  48.688  48.785  1.00  0.00     0.047 A 
HETATM   19  C   UNL     1      23.861  49.880  48.494  1.00  0.00     0.041 A 
HETATM   20  C   UNL     1      23.142  51.070  48.350  1.00  0.00     0.018 A 
HETATM   21  C   UNL     1      21.756  51.059  48.501  1.00  0.00     0.003 A 
HETATM   22  C   UNL     1      21.085  49.863  48.779  1.00  0.00     0.029 A 
BRANCH  19  23
HETATM   23  C   UNL     1      25.340  49.807  48.348  1.00  0.00     0.293 C 
HETATM   24  O   UNL     1      25.931  50.249  47.371  1.00  0.00    -0.259 OA
BRANCH  23  25
HETATM   25  O   UNL     1      25.902  49.198  49.415  1.00  0.00    -0.323 OA
HETATM   26  C   UNL     1      27.114  48.497  49.126  1.00  0.00     0.213 C 
ENDBRANCH  23  25
ENDBRANCH  19  23
ENDBRANCH  15  17
ENDBRANCH  13  15
ENDBRANCH  11  13
ENDBRANCH  10  11
ENDBRANCH   4  10
BRANCH   1  27
HETATM   27  C   UNL     1      26.069  44.099  51.399  1.00  0.00     0.038 C 
HETATM   28  N   UNL     1      25.698  45.386  51.713  1.00  0.00    -0.277 N 
HETATM   29  C   UNL     1      24.751  46.287  51.099  1.00  0.00     0.179 C 
HETATM   30  N   UNL     1      26.323  45.861  52.804  1.00  0.00    -0.172 NA
HETATM   31  C   UNL     1      27.248  44.952  53.122  1.00  0.00     0.089 C 
HETATM   32  C   UNL     1      27.139  43.847  52.248  1.00  0.00     0.061 C 
BRANCH  31  33
HETATM   33  C   UNL     1      28.148  45.104  54.264  1.00  0.00    -0.005 A 
HETATM   34  C   UNL     1      29.158  44.162  54.510  1.00  0.00     0.026 A 
HETATM   35  C   UNL     1      29.967  44.245  55.655  1.00  0.00    -0.025 A 
HETATM   36  C   UNL     1      29.769  45.304  56.570  1.00  0.00    -0.026 A 
HETATM   37  C   UNL     1      30.963  43.290  55.917  1.00  0.00     0.012 A 
HETATM   38  C   UNL     1      28.781  46.264  56.301  1.00  0.00     0.013 A 
HETATM   39  C   UNL     1      30.559  45.370  57.726  1.00  0.00     0.012 A 
HETATM   40  C   UNL     1      27.982  46.166  55.160  1.00  0.00     0.014 A 
HETATM   41  C   UNL     1      31.537  44.405  57.978  1.00  0.00     0.001 A 
HETATM   42  C   UNL     1      31.742  43.369  57.073  1.00  0.00     0.001 A 
ENDBRANCH  31  33
ENDBRANCH   1  27
TORSDOF 9
ENDMDL
MODEL 2
REMARK VINA RESULT:     -10.7      2.773      3.813
REMARK  9 active torsions:
REMARK  status: ('A' for Active; 'I' for Inactive)
REMARK    1  A    between atoms: C_4  and  C_5 
REMARK    2  A    between atoms: C_16  and  C_17 
REMARK    3  A    between atoms: C_20  and  C_21 
REMARK    4  A    between atoms: C_21  and  N_22 
REMARK    5  A    between atoms: N_22  and  C_23 
REMARK    6  A    between atoms: C_23  and  N_24 
REMARK    7  A    between atoms: N_24  and  C_25 
REMARK    8  A    between atoms: C_27  and  C_28 
REMARK    9  A    between atoms: C_28  and  O_29 
ROOT
HETATM    1  C   UNL     1      24.916  43.171  50.805  1.00  0.00     0.067 C 
HETATM    2  C   UNL     1      25.031  43.376  49.285  1.00  0.00     0.001 C 
HETATM    3  C   UNL     1      25.275  44.856  48.925  1.00  0.00     0.040 C 
HETATM    4  C   UNL     1      24.103  45.753  49.355  1.00  0.00     0.206 C 
HETATM    5  N   UNL     1      23.200  44.903  50.244  1.00  0.00    -0.065 N 
HETATM    6  H   UNL     1      22.463  45.498  50.650  1.00  0.00     0.280 HD
HETATM    7  C   UNL     1      23.974  44.249  51.391  1.00  0.00     0.246 C 
HETATM    8  C   UNL     1      23.641  43.022  48.691  1.00  0.00     0.033 C 
HETATM    9  C   UNL     1      22.535  43.827  49.395  1.00  0.00     0.236 C 
ENDROOT
BRANCH   4  10
HETATM   10  C   UNL     1      24.549  47.065  50.041  1.00  0.00     0.155 C 
BRANCH  10  11
HETATM   11  N   UNL     1      23.649  48.178  49.742  1.00  0.00    -0.365 N 
HETATM   12  H   UNL     1      23.034  48.485  50.490  1.00  0.00     0.161 HD
BRANCH  11  13
HETATM   13  C   UNL     1      23.855  49.159  48.811  1.00  0.00     0.172 C 
HETATM   14  S   UNL     1      25.346  49.762  48.364  1.00  0.00    -0.041 SA
BRANCH  13  15
HETATM   15  N   UNL     1      22.747  49.703  48.225  1.00  0.00    -0.333 N 
HETATM   16  H   UNL     1      22.821  49.740  47.211  1.00  0.00     0.168 HD
BRANCH  15  17
HETATM   17  C   UNL     1      21.489  50.076  48.748  1.00  0.00     0.035 A 
HETATM   18  C   UNL     1      20.643  49.210  49.441  1.00  0.00     0.047 A 
HETATM   19  C   UNL     1      19.395  49.639  49.921  1.00  0.00     0.041 A 
HETATM   20  C   UNL     1      18.976  50.949  49.675  1.00  0.00     0.018 A 
HETATM   21  C   UNL     1      19.799  51.813  48.953  1.00  0.00     0.003 A 
HETATM   22  C   UNL     1      21.045  51.377  48.491  1.00  0.00     0.029 A 
BRANCH  19  23
HETATM   23  C   UNL     1      18.577  48.658  50.683  1.00  0.00     0.293 C 
HETATM   24  O   UNL     1      18.314  48.796  51.870  1.00  0.00    -0.259 OA
BRANCH  23  25
HETATM   25  O   UNL     1      18.192  47.631  49.892  1.00  0.00    -0.323 OA
HETATM   26  C   UNL     1      17.058  47.913  49.068  1.00  0.00     0.213 C 
ENDBRANCH  23  25
ENDBRANCH  19  23
ENDBRANCH  15  17
ENDBRANCH  13  15
ENDBRANCH  11  13
ENDBRANCH  10  11
ENDBRANCH   4  10
BRANCH   1  27
HETATM   27  C   UNL     1      26.131  42.979  51.670  1.00  0.00     0.038 C 
HETATM   28  N   UNL     1      27.199  42.117  51.584  1.00  0.00    -0.277 N 
HETATM   29  C   UNL     1      27.443  40.976  50.734  1.00  0.00     0.179 C 
HETATM   30  N   UNL     1      28.191  42.425  52.437  1.00  0.00    -0.172 NA
HETATM   31  C   UNL     1      27.713  43.393  53.223  1.00  0.00     0.089 C 
HETATM   32  C   UNL     1      26.416  43.748  52.791  1.00  0.00     0.061 C 
BRANCH  31  33
HETATM   33  C   UNL     1      28.499  44.004  54.294  1.00  0.00    -0.005 A 
HETATM   34  C   UNL     1      29.592  43.327  54.855  1.00  0.00     0.026 A 
HETATM   35  C   UNL     1      30.296  43.860  55.947  1.00  0.00    -0.025 A 
HETATM   36  C   UNL     1      29.903  45.107  56.483  1.00  0.00    -0.026 A 
HETATM   37  C   UNL     1      31.376  43.174  56.526  1.00  0.00     0.012 A 
HETATM   38  C   UNL     1      28.832  45.798  55.897  1.00  0.00     0.013 A 
HETATM   39  C   UNL     1      30.590  45.626  57.591  1.00  0.00     0.012 A 
HETATM   40  C   UNL     1      28.138  45.252  54.813  1.00  0.00     0.014 A 
HETATM   41  C   UNL     1      31.654  44.925  58.162  1.00  0.00     0.001 A 
HETATM   42  C   UNL     1      32.049  43.703  57.628  1.00  0.00     0.001 A 
ENDBRANCH  31  33
ENDBRANCH   1  27
TORSDOF 9
ENDMDL
MODEL 3
REMARK VINA RESULT:     -10.4      3.065      4.395
REMARK  9 active torsions:
REMARK  status: ('A' for Active; 'I' for Inactive)
REMARK    1  A    between atoms: C_4  and  C_5 
REMARK    2  A    between atoms: C_16  and  C_17 
REMARK    3  A    between atoms: C_20  and  C_21 
REMARK    4  A    between atoms: C_21  and  N_22 
REMARK    5  A    between atoms: N_22  and  C_23 
REMARK    6  A    between atoms: C_23  and  N_24 
REMARK    7  A    between atoms: N_24  and  C_25 
REMARK    8  A    between atoms: C_27  and  C_28 
REMARK    9  A    between atoms: C_28  and  O_29 
ROOT
HETATM    1  C   UNL     1      27.849  40.160  50.591  1.00  0.00     0.067 C 
HETATM    2  C   UNL     1      28.613  39.694  49.339  1.00  0.00     0.001 C 
HETATM    3  C   UNL     1      27.912  40.144  48.042  1.00  0.00     0.040 C 
HETATM    4  C   UNL     1      26.512  39.525  47.900  1.00  0.00     0.206 C 
HETATM    5  N   UNL     1      26.179  38.877  49.241  1.00  0.00    -0.065 N 
HETATM    6  H   UNL     1      25.202  38.551  49.229  1.00  0.00     0.280 HD
HETATM    7  C   UNL     1      26.344  39.853  50.408  1.00  0.00     0.246 C 
HETATM    8  C   UNL     1      28.544  38.143  49.340  1.00  0.00     0.033 C 
HETATM    9  C   UNL     1      27.085  37.670  49.450  1.00  0.00     0.236 C 
ENDROOT
BRANCH   4  10
HETATM   10  C   UNL     1      25.434  40.535  47.443  1.00  0.00     0.155 C 
BRANCH  10  11
HETATM   11  N   UNL     1      24.082  40.086  47.775  1.00  0.00    -0.365 N 
HETATM   12  H   UNL     1      23.995  39.392  48.511  1.00  0.00     0.161 HD
BRANCH  11  13
HETATM   13  C   UNL     1      22.927  40.800  47.602  1.00  0.00     0.172 C 
HETATM   14  S   UNL     1      21.952  40.738  46.249  1.00  0.00    -0.041 SA
BRANCH  13  15
HETATM   15  N   UNL     1      22.564  41.648  48.610  1.00  0.00    -0.333 N 
HETATM   16  H   UNL     1      22.015  41.184  49.331  1.00  0.00     0.168 HD
BRANCH  15  17
HETATM   17  C   UNL     1      22.929  42.981  48.900  1.00  0.00     0.035 A 
HETATM   18  C   UNL     1      23.545  43.382  50.085  1.00  0.00     0.047 A 
HETATM   19  C   UNL     1      23.867  44.728  50.320  1.00  0.00     0.041 A 
HETATM   20  C   UNL     1      23.538  45.693  49.364  1.00  0.00     0.018 A 
HETATM   21  C   UNL     1      22.891  45.307  48.190  1.00  0.00     0.003 A 
HETATM   22  C   UNL     1      22.586  43.961  47.963  1.00  0.00     0.029 A 
BRANCH  19  23
HETATM   23  C   UNL     1      24.558  45.058  51.596  1.00  0.00     0.293 C 
HETATM   24  O   UNL     1      24.500  44.338  52.585  1.00  0.00    -0.259 OA
BRANCH  23  25
HETATM   25  O   UNL     1      25.228  46.228  51.496  1.00  0.00    -0.323 OA
HETATM   26  C   UNL     1      25.520  46.851  52.748  1.00  0.00     0.213 C 
ENDBRANCH  23  25
ENDBRANCH  19  23
ENDBRANCH  15  17
ENDBRANCH  13  15
ENDBRANCH  11  13
ENDBRANCH  10  11
ENDBRANCH   4  10
BRANCH   1  27
HETATM   27  C   UNL     1      28.060  41.528  51.180  1.00  0.00     0.038 C 
HETATM   28  N   UNL     1      27.641  42.778  50.787  1.00  0.00    -0.277 N 
HETATM   29  C   UNL     1      26.999  43.236  49.578  1.00  0.00     0.179 C 
HETATM   30  N   UNL     1      27.856  43.720  51.721  1.00  0.00    -0.172 NA
HETATM   31  C   UNL     1      28.582  43.133  52.675  1.00  0.00     0.089 C 
HETATM   32  C   UNL     1      28.755  41.767  52.359  1.00  0.00     0.061 C 
BRANCH  31  33
HETATM   33  C   UNL     1      29.027  43.837  53.877  1.00  0.00    -0.005 A 
HETATM   34  C   UNL     1      30.082  43.333  54.652  1.00  0.00     0.026 A 
HETATM   35  C   UNL     1      30.456  43.947  55.859  1.00  0.00    -0.025 A 
HETATM   36  C   UNL     1      29.764  45.100  56.295  1.00  0.00    -0.026 A 
HETATM   37  C   UNL     1      31.497  43.432  56.649  1.00  0.00     0.012 A 
HETATM   38  C   UNL     1      28.733  45.621  55.499  1.00  0.00     0.013 A 
HETATM   39  C   UNL     1      30.121  45.696  57.513  1.00  0.00     0.012 A 
HETATM   40  C   UNL     1      28.369  44.997  54.303  1.00  0.00     0.014 A 
HETATM   41  C   UNL     1      31.150  45.164  58.293  1.00  0.00     0.001 A 
HETATM   42  C   UNL     1      31.840  44.036  57.860  1.00  0.00     0.001 A 
ENDBRANCH  31  33
ENDBRANCH   1  27
TORSDOF 9
ENDMDL
MODEL 4
REMARK VINA RESULT:     -10.0      2.677      4.185
REMARK  9 active torsions:
REMARK  status: ('A' for Active; 'I' for Inactive)
REMARK    1  A    between atoms: C_4  and  C_5 
REMARK    2  A    between atoms: C_16  and  C_17 
REMARK    3  A    between atoms: C_20  and  C_21 
REMARK    4  A    between atoms: C_21  and  N_22 
REMARK    5  A    between atoms: N_22  and  C_23 
REMARK    6  A    between atoms: C_23  and  N_24 
REMARK    7  A    between atoms: N_24  and  C_25 
REMARK    8  A    between atoms: C_27  and  C_28 
REMARK    9  A    between atoms: C_28  and  O_29 
ROOT
HETATM    1  C   UNL     1      27.774  39.864  48.822  1.00  0.00     0.067 C 
HETATM    2  C   UNL     1      27.800  40.896  47.682  1.00  0.00     0.001 C 
HETATM    3  C   UNL     1      26.532  41.773  47.676  1.00  0.00     0.040 C 
HETATM    4  C   UNL     1      25.261  40.945  47.427  1.00  0.00     0.206 C 
HETATM    5  N   UNL     1      25.662  39.477  47.538  1.00  0.00    -0.065 N 
HETATM    6  H   UNL     1      24.818  38.888  47.494  1.00  0.00     0.280 HD
HETATM    7  C   UNL     1      26.388  39.177  48.851  1.00  0.00     0.246 C 
HETATM    8  C   UNL     1      27.757  40.083  46.359  1.00  0.00     0.033 C 
HETATM    9  C   UNL     1      26.561  39.116  46.362  1.00  0.00     0.236 C 
ENDROOT
BRANCH   4  10
HETATM   10  C   UNL     1      24.090  41.314  48.367  1.00  0.00     0.155 C 
BRANCH  10  11
HETATM   11  N   UNL     1      23.521  42.624  48.053  1.00  0.00    -0.365 N 
HETATM   12  H   UNL     1      22.959  42.690  47.210  1.00  0.00     0.161 HD
BRANCH  11  13
HETATM   13  C   UNL     1      23.222  43.613  48.949  1.00  0.00     0.172 C 
HETATM   14  S   UNL     1      21.922  44.655  48.833  1.00  0.00    -0.041 SA
BRANCH  13  15
HETATM   15  N   UNL     1      24.074  43.774  50.005  1.00  0.00    -0.333 N 
HETATM   16  H   UNL     1      24.372  42.886  50.404  1.00  0.00     0.168 HD
BRANCH  15  17
HETATM   17  C   UNL     1      24.717  44.915  50.535  1.00  0.00     0.035 A 
HETATM   18  C   UNL     1      25.442  45.829  49.771  1.00  0.00     0.047 A 
HETATM   19  C   UNL     1      26.072  46.935  50.363  1.00  0.00     0.041 A 
HETATM   20  C   UNL     1      26.000  47.111  51.747  1.00  0.00     0.018 A 
HETATM   21  C   UNL     1      25.307  46.183  52.524  1.00  0.00     0.003 A 
HETATM   22  C   UNL     1      24.673  45.092  51.922  1.00  0.00     0.029 A 
BRANCH  19  23
HETATM   23  C   UNL     1      26.791  47.878  49.464  1.00  0.00     0.293 C 
HETATM   24  O   UNL     1      27.733  47.535  48.762  1.00  0.00    -0.259 OA
BRANCH  23  25
HETATM   25  O   UNL     1      26.264  49.121  49.546  1.00  0.00    -0.323 OA
HETATM   26  C   UNL     1      25.131  49.339  48.702  1.00  0.00     0.213 C 
ENDBRANCH  23  25
ENDBRANCH  19  23
ENDBRANCH  15  17
ENDBRANCH  13  15
ENDBRANCH  11  13
ENDBRANCH  10  11
ENDBRANCH   4  10
BRANCH   1  27
HETATM   27  C   UNL     1      28.241  40.209  50.209  1.00  0.00     0.038 C 
HETATM   28  N   UNL     1      28.990  39.515  51.132  1.00  0.00    -0.277 N 
HETATM   29  C   UNL     1      29.443  38.145  51.161  1.00  0.00     0.179 C 
HETATM   30  N   UNL     1      29.377  40.275  52.171  1.00  0.00    -0.172 NA
HETATM   31  C   UNL     1      28.738  41.439  52.033  1.00  0.00     0.089 C 
HETATM   32  C   UNL     1      27.995  41.426  50.832  1.00  0.00     0.061 C 
BRANCH  31  33
HETATM   33  C   UNL     1      28.895  42.544  52.977  1.00  0.00    -0.005 A 
HETATM   34  C   UNL     1      29.881  42.500  53.974  1.00  0.00     0.026 A 
HETATM   35  C   UNL     1      29.981  43.510  54.944  1.00  0.00    -0.025 A 
HETATM   36  C   UNL     1      29.079  44.596  54.910  1.00  0.00    -0.026 A 
HETATM   37  C   UNL     1      30.953  43.457  55.957  1.00  0.00     0.012 A 
HETATM   38  C   UNL     1      28.116  44.655  53.892  1.00  0.00     0.013 A 
HETATM   39  C   UNL     1      29.162  45.590  55.896  1.00  0.00     0.012 A 
HETATM   40  C   UNL     1      28.026  43.641  52.935  1.00  0.00     0.014 A 
HETATM   41  C   UNL     1      30.126  45.516  56.904  1.00  0.00     0.001 A 
HETATM   42  C   UNL     1      31.023  44.453  56.932  1.00  0.00     0.001 A 
ENDBRANCH  31  33
ENDBRANCH   1  27
TORSDOF 9
ENDMDL
MODEL 5
REMARK VINA RESULT:      -9.9      1.495      1.973
REMARK  9 active torsions:
REMARK  status: ('A' for Active; 'I' for Inactive)
REMARK    1  A    between atoms: C_4  and  C_5 
REMARK    2  A    between atoms: C_16  and  C_17 
REMARK    3  A    between atoms: C_20  and  C_21 
REMARK    4  A    between atoms: C_21  and  N_22 
REMARK    5  A    between atoms: N_22  and  C_23 
REMARK    6  A    between atoms: C_23  and  N_24 
REMARK    7  A    between atoms: N_24  and  C_25 
REMARK    8  A    between atoms: C_27  and  C_28 
REMARK    9  A    between atoms: C_28  and  O_29 
ROOT
HETATM    1  C   UNL     1      25.117  41.602  49.870  1.00  0.00     0.067 C 
HETATM    2  C   UNL     1      25.141  41.833  48.349  1.00  0.00     0.001 C 
HETATM    3  C   UNL     1      24.901  43.313  47.992  1.00  0.00     0.040 C 
HETATM    4  C   UNL     1      23.511  43.795  48.441  1.00  0.00     0.206 C 
HETATM    5  N   UNL     1      22.935  42.703  49.338  1.00  0.00    -0.065 N 
HETATM    6  H   UNL     1      22.054  43.034  49.755  1.00  0.00     0.280 HD
HETATM    7  C   UNL     1      23.891  42.327  50.472  1.00  0.00     0.246 C 
HETATM    8  C   UNL     1      23.926  41.057  47.772  1.00  0.00     0.033 C 
HETATM    9  C   UNL     1      22.633  41.471  48.493  1.00  0.00     0.236 C 
ENDROOT
BRANCH   4  10
HETATM   10  C   UNL     1      23.529  45.180  49.126  1.00  0.00     0.155 C 
BRANCH  10  11
HETATM   11  N   UNL     1      22.182  45.711  49.334  1.00  0.00    -0.365 N 
HETATM   12  H   UNL     1      22.026  46.248  50.182  1.00  0.00     0.161 HD
BRANCH  11  13
HETATM   13  C   UNL     1      21.271  46.013  48.359  1.00  0.00     0.172 C 
HETATM   14  S   UNL     1      20.457  44.894  47.425  1.00  0.00    -0.041 SA
BRANCH  13  15
HETATM   15  N   UNL     1      21.034  47.336  48.118  1.00  0.00    -0.333 N 
HETATM   16  H   UNL     1      20.093  47.507  47.770  1.00  0.00     0.168 HD
BRANCH  15  17
HETATM   17  C   UNL     1      21.788  48.497  48.398  1.00  0.00     0.035 A 
HETATM   18  C   UNL     1      23.172  48.584  48.251  1.00  0.00     0.047 A 
HETATM   19  C   UNL     1      23.866  49.764  48.563  1.00  0.00     0.041 A 
HETATM   20  C   UNL     1      23.164  50.865  49.061  1.00  0.00     0.018 A 
HETATM   21  C   UNL     1      21.784  50.777  49.245  1.00  0.00     0.003 A 
HETATM   22  C   UNL     1      21.103  49.601  48.918  1.00  0.00     0.029 A 
BRANCH  19  23
HETATM   23  C   UNL     1      25.336  49.778  48.338  1.00  0.00     0.293 C 
HETATM   24  O   UNL     1      25.852  50.314  47.366  1.00  0.00    -0.259 OA
BRANCH  23  25
HETATM   25  O   UNL     1      25.984  49.128  49.331  1.00  0.00    -0.323 OA
HETATM   26  C   UNL     1      27.373  48.900  49.081  1.00  0.00     0.213 C 
ENDBRANCH  23  25
ENDBRANCH  19  23
ENDBRANCH  15  17
ENDBRANCH  13  15
ENDBRANCH  11  13
ENDBRANCH  10  11
ENDBRANCH   4  10
BRANCH   1  27
HETATM   27  C   UNL     1      26.343  41.804  50.718  1.00  0.00     0.038 C 
HETATM   28  N   UNL     1      27.630  41.332  50.609  1.00  0.00    -0.277 N 
HETATM   29  C   UNL     1      28.216  40.339  49.740  1.00  0.00     0.179 C 
HETATM   30  N   UNL     1      28.483  41.936  51.454  1.00  0.00    -0.172 NA
HETATM   31  C   UNL     1      27.731  42.692  52.258  1.00  0.00     0.089 C 
HETATM   32  C   UNL     1      26.382  42.614  51.846  1.00  0.00     0.061 C 
BRANCH  31  33
HETATM   33  C   UNL     1      28.294  43.514  53.328  1.00  0.00    -0.005 A 
HETATM   34  C   UNL     1      29.359  43.040  54.109  1.00  0.00     0.026 A 
HETATM   35  C   UNL     1      29.846  43.779  55.199  1.00  0.00    -0.025 A 
HETATM   36  C   UNL     1      29.261  45.027  55.508  1.00  0.00    -0.026 A 
HETATM   37  C   UNL     1      30.897  43.297  55.997  1.00  0.00     0.012 A 
HETATM   38  C   UNL     1      28.220  45.513  54.704  1.00  0.00     0.013 A 
HETATM   39  C   UNL     1      29.731  45.751  56.614  1.00  0.00     0.012 A 
HETATM   40  C   UNL     1      27.743  44.765  53.624  1.00  0.00     0.014 A 
HETATM   41  C   UNL     1      30.768  45.252  57.405  1.00  0.00     0.001 A 
HETATM   42  C   UNL     1      31.353  44.029  57.095  1.00  0.00     0.001 A 
ENDBRANCH  31  33
ENDBRANCH   1  27
TORSDOF 9
ENDMDL
MODEL 6
REMARK VINA RESULT:      -9.8      3.184      4.731
REMARK  9 active torsions:
REMARK  status: ('A' for Active; 'I' for Inactive)
REMARK    1  A    between atoms: C_4  and  C_5 
REMARK    2  A    between atoms: C_16  and  C_17 
REMARK    3  A    between atoms: C_20  and  C_21 
REMARK    4  A    between atoms: C_21  and  N_22 
REMARK    5  A    between atoms: N_22  and  C_23 
REMARK    6  A    between atoms: C_23  and  N_24 
REMARK    7  A    between atoms: N_24  and  C_25 
REMARK    8  A    between atoms: C_27  and  C_28 
REMARK    9  A    between atoms: C_28  and  O_29 
ROOT
HETATM    1  C   UNL     1      27.770  39.624  48.818  1.00  0.00     0.067 C 
HETATM    2  C   UNL     1      27.757  40.631  47.655  1.00  0.00     0.001 C 
HETATM    3  C   UNL     1      26.488  41.506  47.672  1.00  0.00     0.040 C 
HETATM    4  C   UNL     1      25.211  40.671  47.482  1.00  0.00     0.206 C 
HETATM    5  N   UNL     1      25.619  39.206  47.611  1.00  0.00    -0.065 N 
HETATM    6  H   UNL     1      24.775  38.616  47.607  1.00  0.00     0.280 HD
HETATM    7  C   UNL     1      26.387  38.936  48.906  1.00  0.00     0.246 C 
HETATM    8  C   UNL     1      27.673  39.790  46.352  1.00  0.00     0.033 C 
HETATM    9  C   UNL     1      26.480  38.822  46.414  1.00  0.00     0.236 C 
ENDROOT
BRANCH   4  10
HETATM   10  C   UNL     1      24.070  41.058  48.451  1.00  0.00     0.155 C 
BRANCH  10  11
HETATM   11  N   UNL     1      23.459  42.340  48.100  1.00  0.00    -0.365 N 
HETATM   12  H   UNL     1      22.844  42.349  47.292  1.00  0.00     0.161 HD
BRANCH  11  13
HETATM   13  C   UNL     1      23.198  43.374  48.956  1.00  0.00     0.172 C 
HETATM   14  S   UNL     1      21.960  44.480  48.778  1.00  0.00    -0.041 SA
BRANCH  13  15
HETATM   15  N   UNL     1      24.037  43.525  50.023  1.00  0.00    -0.333 N 
HETATM   16  H   UNL     1      24.251  42.639  50.479  1.00  0.00     0.168 HD
BRANCH  15  17
HETATM   17  C   UNL     1      24.762  44.637  50.506  1.00  0.00     0.035 A 
HETATM   18  C   UNL     1      24.760  45.051  51.838  1.00  0.00     0.047 A 
HETATM   19  C   UNL     1      25.490  46.178  52.251  1.00  0.00     0.041 A 
HETATM   20  C   UNL     1      26.207  46.919  51.309  1.00  0.00     0.018 A 
HETATM   21  C   UNL     1      26.186  46.533  49.968  1.00  0.00     0.003 A 
HETATM   22  C   UNL     1      25.467  45.402  49.571  1.00  0.00     0.029 A 
BRANCH  19  23
HETATM   23  C   UNL     1      25.461  46.522  53.698  1.00  0.00     0.293 C 
HETATM   24  O   UNL     1      25.241  45.693  54.572  1.00  0.00    -0.259 OA
BRANCH  23  25
HETATM   25  O   UNL     1      25.701  47.839  53.887  1.00  0.00    -0.323 OA
HETATM   26  C   UNL     1      26.566  48.130  54.987  1.00  0.00     0.213 C 
ENDBRANCH  23  25
ENDBRANCH  19  23
ENDBRANCH  15  17
ENDBRANCH  13  15
ENDBRANCH  11  13
ENDBRANCH  10  11
ENDBRANCH   4  10
BRANCH   1  27
HETATM   27  C   UNL     1      28.281  39.999  50.181  1.00  0.00     0.038 C 
HETATM   28  N   UNL     1      29.079  39.335  51.084  1.00  0.00    -0.277 N 
HETATM   29  C   UNL     1      29.564  37.976  51.115  1.00  0.00     0.179 C 
HETATM   30  N   UNL     1      29.488  40.119  52.097  1.00  0.00    -0.172 NA
HETATM   31  C   UNL     1      28.818  41.267  51.968  1.00  0.00     0.089 C 
HETATM   32  C   UNL     1      28.031  41.220  50.796  1.00  0.00     0.061 C 
BRANCH  31  33
HETATM   33  C   UNL     1      28.985  42.389  52.890  1.00  0.00    -0.005 A 
HETATM   34  C   UNL     1      29.935  42.333  53.921  1.00  0.00     0.026 A 
HETATM   35  C   UNL     1      30.040  43.363  54.870  1.00  0.00    -0.025 A 
HETATM   36  C   UNL     1      29.182  44.481  54.778  1.00  0.00    -0.026 A 
HETATM   37  C   UNL     1      30.974  43.298  55.917  1.00  0.00     0.012 A 
HETATM   38  C   UNL     1      28.258  44.550  53.725  1.00  0.00     0.013 A 
HETATM   39  C   UNL     1      29.270  45.496  55.742  1.00  0.00     0.012 A 
HETATM   40  C   UNL     1      28.162  43.516  52.790  1.00  0.00     0.014 A 
HETATM   41  C   UNL     1      30.196  45.411  56.784  1.00  0.00     0.001 A 
HETATM   42  C   UNL     1      31.049  44.316  56.869  1.00  0.00     0.001 A 
ENDBRANCH  31  33
ENDBRANCH   1  27
TORSDOF 9
ENDMDL
MODEL 7
REMARK VINA RESULT:      -9.8      2.802      4.128
REMARK  9 active torsions:
REMARK  status: ('A' for Active; 'I' for Inactive)
REMARK    1  A    between atoms: C_4  and  C_5 
REMARK    2  A    between atoms: C_16  and  C_17 
REMARK    3  A    between atoms: C_20  and  C_21 
REMARK    4  A    between atoms: C_21  and  N_22 
REMARK    5  A    between atoms: N_22  and  C_23 
REMARK    6  A    between atoms: C_23  and  N_24 
REMARK    7  A    between atoms: N_24  and  C_25 
REMARK    8  A    between atoms: C_27  and  C_28 
REMARK    9  A    between atoms: C_28  and  O_29 
ROOT
HETATM    1  C   UNL     1      25.093  43.141  50.463  1.00  0.00     0.067 C 
HETATM    2  C   UNL     1      25.264  43.731  49.053  1.00  0.00     0.001 C 
HETATM    3  C   UNL     1      25.468  45.259  49.094  1.00  0.00     0.040 C 
HETATM    4  C   UNL     1      24.246  45.987  49.679  1.00  0.00     0.206 C 
HETATM    5  N   UNL     1      23.339  44.915  50.277  1.00  0.00    -0.065 N 
HETATM    6  H   UNL     1      22.564  45.367  50.783  1.00  0.00     0.280 HD
HETATM    7  C   UNL     1      24.088  44.009  51.256  1.00  0.00     0.246 C 
HETATM    8  C   UNL     1      23.914  43.505  48.320  1.00  0.00     0.033 C 
HETATM    9  C   UNL     1      22.751  44.075  49.149  1.00  0.00     0.236 C 
ENDROOT
BRANCH   4  10
HETATM   10  C   UNL     1      24.613  47.090  50.697  1.00  0.00     0.155 C 
BRANCH  10  11
HETATM   11  N   UNL     1      24.115  48.404  50.292  1.00  0.00    -0.365 N 
HETATM   12  H   UNL     1      24.017  49.104  51.022  1.00  0.00     0.161 HD
BRANCH  11  13
HETATM   13  C   UNL     1      24.235  48.969  49.052  1.00  0.00     0.172 C 
HETATM   14  S   UNL     1      25.664  49.497  48.371  1.00  0.00    -0.041 SA
BRANCH  13  15
HETATM   15  N   UNL     1      23.086  49.136  48.332  1.00  0.00    -0.333 N 
HETATM   16  H   UNL     1      23.246  49.618  47.449  1.00  0.00     0.168 HD
BRANCH  15  17
HETATM   17  C   UNL     1      21.775  48.644  48.516  1.00  0.00     0.035 A 
HETATM   18  C   UNL     1      20.838  49.219  49.373  1.00  0.00     0.047 A 
HETATM   19  C   UNL     1      19.554  48.670  49.524  1.00  0.00     0.041 A 
HETATM   20  C   UNL     1      19.216  47.507  48.827  1.00  0.00     0.018 A 
HETATM   21  C   UNL     1      20.158  46.904  47.994  1.00  0.00     0.003 A 
HETATM   22  C   UNL     1      21.429  47.467  47.842  1.00  0.00     0.029 A 
BRANCH  19  23
HETATM   23  C   UNL     1      18.608  49.373  50.431  1.00  0.00     0.293 C 
HETATM   24  O   UNL     1      18.608  49.210  51.644  1.00  0.00    -0.259 OA
BRANCH  23  25
HETATM   25  O   UNL     1      17.780  50.183  49.733  1.00  0.00    -0.323 OA
HETATM   26  C   UNL     1      18.131  51.568  49.777  1.00  0.00     0.213 C 
ENDBRANCH  23  25
ENDBRANCH  19  23
ENDBRANCH  15  17
ENDBRANCH  13  15
ENDBRANCH  11  13
ENDBRANCH  10  11
ENDBRANCH   4  10
BRANCH   1  27
HETATM   27  C   UNL     1      26.277  42.766  51.310  1.00  0.00     0.038 C 
HETATM   28  N   UNL     1      27.268  41.824  51.149  1.00  0.00    -0.277 N 
HETATM   29  C   UNL     1      27.421  40.750  50.198  1.00  0.00     0.179 C 
HETATM   30  N   UNL     1      28.273  41.965  52.030  1.00  0.00    -0.172 NA
HETATM   31  C   UNL     1      27.872  42.896  52.900  1.00  0.00     0.089 C 
HETATM   32  C   UNL     1      26.616  43.402  52.499  1.00  0.00     0.061 C 
BRANCH  31  33
HETATM   33  C   UNL     1      28.696  43.335  54.025  1.00  0.00    -0.005 A 
HETATM   34  C   UNL     1      28.241  44.333  54.899  1.00  0.00     0.026 A 
HETATM   35  C   UNL     1      29.060  44.831  55.926  1.00  0.00    -0.025 A 
HETATM   36  C   UNL     1      30.363  44.309  56.088  1.00  0.00    -0.026 A 
HETATM   37  C   UNL     1      28.615  45.846  56.788  1.00  0.00     0.012 A 
HETATM   38  C   UNL     1      30.802  43.287  55.233  1.00  0.00     0.013 A 
HETATM   39  C   UNL     1      31.190  44.826  57.096  1.00  0.00     0.012 A 
HETATM   40  C   UNL     1      29.977  42.804  54.214  1.00  0.00     0.014 A 
HETATM   41  C   UNL     1      30.736  45.844  57.938  1.00  0.00     0.001 A 
HETATM   42  C   UNL     1      29.450  46.351  57.787  1.00  0.00     0.001 A 
ENDBRANCH  31  33
ENDBRANCH   1  27
TORSDOF 9
ENDMDL
MODEL 8
REMARK VINA RESULT:      -9.7      2.887      4.619
REMARK  9 active torsions:
REMARK  status: ('A' for Active; 'I' for Inactive)
REMARK    1  A    between atoms: C_4  and  C_5 
REMARK    2  A    between atoms: C_16  and  C_17 
REMARK    3  A    between atoms: C_20  and  C_21 
REMARK    4  A    between atoms: C_21  and  N_22 
REMARK    5  A    between atoms: N_22  and  C_23 
REMARK    6  A    between atoms: C_23  and  N_24 
REMARK    7  A    between atoms: N_24  and  C_25 
REMARK    8  A    between atoms: C_27  and  C_28 
REMARK    9  A    between atoms: C_28  and  O_29 
ROOT
HETATM    1  C   UNL     1      27.795  40.133  50.538  1.00  0.00     0.067 C 
HETATM    2  C   UNL     1      28.725  39.604  49.432  1.00  0.00     0.001 C 
HETATM    3  C   UNL     1      28.264  40.059  48.033  1.00  0.00     0.040 C 
HETATM    4  C   UNL     1      26.875  39.504  47.676  1.00  0.00     0.206 C 
HETATM    5  N   UNL     1      26.299  38.902  48.955  1.00  0.00    -0.065 N 
HETATM    6  H   UNL     1      25.321  38.624  48.791  1.00  0.00     0.280 HD
HETATM    7  C   UNL     1      26.325  39.894  50.120  1.00  0.00     0.246 C 
HETATM    8  C   UNL     1      28.578  38.058  49.443  1.00  0.00     0.033 C 
HETATM    9  C   UNL     1      27.098  37.658  49.324  1.00  0.00     0.236 C 
ENDROOT
BRANCH   4  10
HETATM   10  C   UNL     1      25.936  40.554  47.038  1.00  0.00     0.155 C 
BRANCH  10  11
HETATM   11  N   UNL     1      24.562  40.069  46.924  1.00  0.00    -0.365 N 
HETATM   12  H   UNL     1      24.224  39.465  47.667  1.00  0.00     0.161 HD
BRANCH  11  13
HETATM   13  C   UNL     1      23.538  40.686  46.258  1.00  0.00     0.172 C 
HETATM   14  S   UNL     1      23.369  40.747  44.598  1.00  0.00    -0.041 SA
BRANCH  13  15
HETATM   15  N   UNL     1      22.598  41.323  47.017  1.00  0.00    -0.333 N 
HETATM   16  H   UNL     1      21.722  40.806  47.070  1.00  0.00     0.168 HD
BRANCH  15  17
HETATM   17  C   UNL     1      22.667  42.468  47.842  1.00  0.00     0.035 A 
HETATM   18  C   UNL     1      22.513  43.774  47.380  1.00  0.00     0.047 A 
HETATM   19  C   UNL     1      22.611  44.871  48.251  1.00  0.00     0.041 A 
HETATM   20  C   UNL     1      22.898  44.656  49.602  1.00  0.00     0.018 A 
HETATM   21  C   UNL     1      23.088  43.355  50.067  1.00  0.00     0.003 A 
HETATM   22  C   UNL     1      22.976  42.270  49.192  1.00  0.00     0.029 A 
BRANCH  19  23
HETATM   23  C   UNL     1      22.394  46.226  47.676  1.00  0.00     0.293 C 
HETATM   24  O   UNL     1      22.057  46.406  46.513  1.00  0.00    -0.259 OA
BRANCH  23  25
HETATM   25  O   UNL     1      22.622  47.186  48.601  1.00  0.00    -0.323 OA
HETATM   26  C   UNL     1      22.452  48.522  48.121  1.00  0.00     0.213 C 
ENDBRANCH  23  25
ENDBRANCH  19  23
ENDBRANCH  15  17
ENDBRANCH  13  15
ENDBRANCH  11  13
ENDBRANCH  10  11
ENDBRANCH   4  10
BRANCH   1  27
HETATM   27  C   UNL     1      27.978  41.501  51.135  1.00  0.00     0.038 C 
HETATM   28  N   UNL     1      27.505  42.740  50.768  1.00  0.00    -0.277 N 
HETATM   29  C   UNL     1      26.809  43.188  49.585  1.00  0.00     0.179 C 
HETATM   30  N   UNL     1      27.717  43.680  51.705  1.00  0.00    -0.172 NA
HETATM   31  C   UNL     1      28.493  43.109  52.629  1.00  0.00     0.089 C 
HETATM   32  C   UNL     1      28.702  41.753  52.294  1.00  0.00     0.061 C 
BRANCH  31  33
HETATM   33  C   UNL     1      28.952  43.817  53.824  1.00  0.00    -0.005 A 
HETATM   34  C   UNL     1      29.992  43.296  54.609  1.00  0.00     0.026 A 
HETATM   35  C   UNL     1      30.378  43.915  55.809  1.00  0.00    -0.025 A 
HETATM   36  C   UNL     1      29.715  45.090  56.228  1.00  0.00    -0.026 A 
HETATM   37  C   UNL     1      31.403  43.384  56.609  1.00  0.00     0.012 A 
HETATM   38  C   UNL     1      28.699  45.627  55.422  1.00  0.00     0.013 A 
HETATM   39  C   UNL     1      30.083  45.692  57.440  1.00  0.00     0.012 A 
HETATM   40  C   UNL     1      28.323  44.998  54.233  1.00  0.00     0.014 A 
HETATM   41  C   UNL     1      31.095  45.144  58.230  1.00  0.00     0.001 A 
HETATM   42  C   UNL     1      31.757  43.994  57.813  1.00  0.00     0.001 A 
ENDBRANCH  31  33
ENDBRANCH   1  27
TORSDOF 9
ENDMDL
MODEL 9
REMARK VINA RESULT:      -9.5      2.370      3.377
REMARK  9 active torsions:
REMARK  status: ('A' for Active; 'I' for Inactive)
REMARK    1  A    between atoms: C_4  and  C_5 
REMARK    2  A    between atoms: C_16  and  C_17 
REMARK    3  A    between atoms: C_20  and  C_21 
REMARK    4  A    between atoms: C_21  and  N_22 
REMARK    5  A    between atoms: N_22  and  C_23 
REMARK    6  A    between atoms: C_23  and  N_24 
REMARK    7  A    between atoms: N_24  and  C_25 
REMARK    8  A    between atoms: C_27  and  C_28 
REMARK    9  A    between atoms: C_28  and  O_29 
ROOT
HETATM    1  C   UNL     1      25.350  42.832  50.347  1.00  0.00     0.067 C 
HETATM    2  C   UNL     1      25.428  43.143  48.842  1.00  0.00     0.001 C 
HETATM    3  C   UNL     1      24.409  44.224  48.430  1.00  0.00     0.040 C 
HETATM    4  C   UNL     1      22.959  43.767  48.662  1.00  0.00     0.206 C 
HETATM    5  N   UNL     1      23.028  42.483  49.484  1.00  0.00    -0.065 N 
HETATM    6  H   UNL     1      22.077  42.205  49.762  1.00  0.00     0.280 HD
HETATM    7  C   UNL     1      23.867  42.656  50.751  1.00  0.00     0.246 C 
HETATM    8  C   UNL     1      24.989  41.848  48.107  1.00  0.00     0.033 C 
HETATM    9  C   UNL     1      23.621  41.373  48.624  1.00  0.00     0.236 C 
ENDROOT
BRANCH   4  10
HETATM   10  C   UNL     1      22.070  44.847  49.320  1.00  0.00     0.155 C 
BRANCH  10  11
HETATM   11  N   UNL     1      22.403  46.194  48.858  1.00  0.00    -0.365 N 
HETATM   12  H   UNL     1      23.347  46.522  49.041  1.00  0.00     0.161 HD
BRANCH  11  13
HETATM   13  C   UNL     1      21.821  46.860  47.815  1.00  0.00     0.172 C 
HETATM   14  S   UNL     1      20.890  46.154  46.623  1.00  0.00    -0.041 SA
BRANCH  13  15
HETATM   15  N   UNL     1      22.047  48.205  47.733  1.00  0.00    -0.333 N 
HETATM   16  H   UNL     1      22.905  48.427  47.232  1.00  0.00     0.168 HD
BRANCH  15  17
HETATM   17  C   UNL     1      21.250  49.320  48.079  1.00  0.00     0.035 A 
HETATM   18  C   UNL     1      20.096  49.697  47.393  1.00  0.00     0.047 A 
HETATM   19  C   UNL     1      19.357  50.827  47.778  1.00  0.00     0.041 A 
HETATM   20  C   UNL     1      19.800  51.610  48.848  1.00  0.00     0.018 A 
HETATM   21  C   UNL     1      20.973  51.261  49.517  1.00  0.00     0.003 A 
HETATM   22  C   UNL     1      21.693  50.125  49.133  1.00  0.00     0.029 A 
BRANCH  19  23
HETATM   23  C   UNL     1      18.118  51.131  47.013  1.00  0.00     0.293 C 
HETATM   24  O   UNL     1      17.911  52.220  46.494  1.00  0.00    -0.259 OA
BRANCH  23  25
HETATM   25  O   UNL     1      17.290  50.063  46.989  1.00  0.00    -0.323 OA
HETATM   26  C   UNL     1      16.436  49.949  48.129  1.00  0.00     0.213 C 
ENDBRANCH  23  25
ENDBRANCH  19  23
ENDBRANCH  15  17
ENDBRANCH  13  15
ENDBRANCH  11  13
ENDBRANCH  10  11
ENDBRANCH   4  10
BRANCH   1  27
HETATM   27  C   UNL     1      26.100  43.650  51.362  1.00  0.00     0.038 C 
HETATM   28  N   UNL     1      25.921  44.932  51.829  1.00  0.00    -0.277 N 
HETATM   29  C   UNL     1      25.059  46.001  51.386  1.00  0.00     0.179 C 
HETATM   30  N   UNL     1      26.677  45.207  52.906  1.00  0.00    -0.172 NA
HETATM   31  C   UNL     1      27.497  44.163  53.056  1.00  0.00     0.089 C 
HETATM   32  C   UNL     1      27.185  43.180  52.091  1.00  0.00     0.061 C 
BRANCH  31  33
HETATM   33  C   UNL     1      28.486  44.082  54.130  1.00  0.00    -0.005 A 
HETATM   34  C   UNL     1      28.460  44.992  55.197  1.00  0.00     0.026 A 
HETATM   35  C   UNL     1      29.460  44.985  56.184  1.00  0.00    -0.025 A 
HETATM   36  C   UNL     1      30.504  44.037  56.106  1.00  0.00    -0.026 A 
HETATM   37  C   UNL     1      29.450  45.909  57.241  1.00  0.00     0.012 A 
HETATM   38  C   UNL     1      30.508  43.106  55.056  1.00  0.00     0.013 A 
HETATM   39  C   UNL     1      31.517  44.049  57.077  1.00  0.00     0.012 A 
HETATM   40  C   UNL     1      29.508  43.128  54.080  1.00  0.00     0.014 A 
HETATM   41  C   UNL     1      31.498  44.983  58.115  1.00  0.00     0.001 A 
HETATM   42  C   UNL     1      30.464  45.909  58.199  1.00  0.00     0.001 A 
ENDBRANCH  31  33
ENDBRANCH   1  27
TORSDOF 9
ENDMDL
MODEL 10
REMARK VINA RESULT:      -9.5      2.789      4.147
REMARK  9 active torsions:
REMARK  status: ('A' for Active; 'I' for Inactive)
REMARK    1  A    between atoms: C_4  and  C_5 
REMARK    2  A    between atoms: C_16  and  C_17 
REMARK    3  A    between atoms: C_20  and  C_21 
REMARK    4  A    between atoms: C_21  and  N_22 
REMARK    5  A    between atoms: N_22  and  C_23 
REMARK    6  A    between atoms: C_23  and  N_24 
REMARK    7  A    between atoms: N_24  and  C_25 
REMARK    8  A    between atoms: C_27  and  C_28 
REMARK    9  A    between atoms: C_28  and  O_29 
ROOT
HETATM    1  C   UNL     1      24.852  43.141  50.818  1.00  0.00     0.067 C 
HETATM    2  C   UNL     1      24.698  43.178  49.288  1.00  0.00     0.001 C 
HETATM    3  C   UNL     1      24.996  44.579  48.717  1.00  0.00     0.040 C 
HETATM    4  C   UNL     1      24.006  45.634  49.237  1.00  0.00     0.206 C 
HETATM    5  N   UNL     1      23.216  44.979  50.367  1.00  0.00    -0.065 N 
HETATM    6  H   UNL     1      22.623  45.687  50.822  1.00  0.00     0.280 HD
HETATM    7  C   UNL     1      24.132  44.367  51.429  1.00  0.00     0.246 C 
HETATM    8  C   UNL     1      23.196  42.914  48.997  1.00  0.00     0.033 C 
HETATM    9  C   UNL     1      22.315  43.899  49.783  1.00  0.00     0.236 C 
ENDROOT
BRANCH   4  10
HETATM   10  C   UNL     1      24.683  46.954  49.672  1.00  0.00     0.155 C 
BRANCH  10  11
HETATM   11  N   UNL     1      23.716  47.938  50.156  1.00  0.00    -0.365 N 
HETATM   12  H   UNL     1      23.830  48.265  51.111  1.00  0.00     0.161 HD
BRANCH  11  13
HETATM   13  C   UNL     1      23.013  48.828  49.390  1.00  0.00     0.172 C 
HETATM   14  S   UNL     1      23.666  49.791  48.193  1.00  0.00    -0.041 SA
BRANCH  13  15
HETATM   15  N   UNL     1      21.677  48.952  49.649  1.00  0.00    -0.333 N 
HETATM   16  H   UNL     1      21.487  49.593  50.416  1.00  0.00     0.168 HD
BRANCH  15  17
HETATM   17  C   UNL     1      20.534  48.479  48.967  1.00  0.00     0.035 A 
HETATM   18  C   UNL     1      20.360  47.156  48.559  1.00  0.00     0.047 A 
HETATM   19  C   UNL     1      19.206  46.753  47.868  1.00  0.00     0.041 A 
HETATM   20  C   UNL     1      18.225  47.698  47.554  1.00  0.00     0.018 A 
HETATM   21  C   UNL     1      18.407  49.029  47.926  1.00  0.00     0.003 A 
HETATM   22  C   UNL     1      19.554  49.416  48.625  1.00  0.00     0.029 A 
BRANCH  19  23
HETATM   23  C   UNL     1      19.088  45.315  47.508  1.00  0.00     0.293 C 
HETATM   24  O   UNL     1      18.888  44.438  48.339  1.00  0.00    -0.259 OA
BRANCH  23  25
HETATM   25  O   UNL     1      19.235  45.136  46.176  1.00  0.00    -0.323 OA
HETATM   26  C   UNL     1      18.165  44.423  45.553  1.00  0.00     0.213 C 
ENDBRANCH  23  25
ENDBRANCH  19  23
ENDBRANCH  15  17
ENDBRANCH  13  15
ENDBRANCH  11  13
ENDBRANCH  10  11
ENDBRANCH   4  10
BRANCH   1  27
HETATM   27  C   UNL     1      26.187  42.911  51.471  1.00  0.00     0.038 C 
HETATM   28  N   UNL     1      27.347  42.324  51.021  1.00  0.00    -0.277 N 
HETATM   29  C   UNL     1      27.637  41.570  49.825  1.00  0.00     0.179 C 
HETATM   30  N   UNL     1      28.390  42.524  51.845  1.00  0.00    -0.172 NA
HETATM   31  C   UNL     1      27.887  43.096  52.942  1.00  0.00     0.089 C 
HETATM   32  C   UNL     1      26.506  43.330  52.757  1.00  0.00     0.061 C 
BRANCH  31  33
HETATM   33  C   UNL     1      28.713  43.473  54.088  1.00  0.00    -0.005 A 
HETATM   34  C   UNL     1      28.295  44.479  54.971  1.00  0.00     0.026 A 
HETATM   35  C   UNL     1      29.122  44.916  56.020  1.00  0.00    -0.025 A 
HETATM   36  C   UNL     1      30.392  44.323  56.195  1.00  0.00    -0.026 A 
HETATM   37  C   UNL     1      28.716  45.940  56.892  1.00  0.00     0.012 A 
HETATM   38  C   UNL     1      30.792  43.293  55.331  1.00  0.00     0.013 A 
HETATM   39  C   UNL     1      31.227  44.779  57.226  1.00  0.00     0.012 A 
HETATM   40  C   UNL     1      29.960  42.872  54.290  1.00  0.00     0.014 A 
HETATM   41  C   UNL     1      30.813  45.806  58.077  1.00  0.00     0.001 A 
HETATM   42  C   UNL     1      29.558  46.383  57.913  1.00  0.00     0.001 A 
ENDBRANCH  31  33
ENDBRANCH   1  27
TORSDOF 9
ENDMDL
