MODEL 1
REMARK VINA RESULT:     -10.6      0.000      0.000
REMARK  7 active torsions:
REMARK  status: ('A' for Active; 'I' for Inactive)
REMARK    1  A    between atoms: C_6  and  C_7 
REMARK       I    between atoms: C_7  and  N_8 
REMARK    2  A    between atoms: N_8  and  C_9 
REMARK    3  A    between atoms: C_9  and  C_10 
REMARK       I    between atoms: C_10  and  N_11 
REMARK    4  A    between atoms: N_11  and  N_12 
REMARK       I    between atoms: N_12  and  C_13 
REMARK    5  A    between atoms: C_13  and  C_14 
REMARK    6  A    between atoms: C_14  and  N_15 
REMARK    7  A    between atoms: N_15  and  C_16 
ROOT
HETATM    1  C   UNL     1      27.666  40.966  51.315  1.00  0.00     0.253 C 
HETATM    2  N   UNL     1      26.601  41.576  51.950  1.00  0.00    -0.266 N 
HETATM    3  O   UNL     1      27.730  40.848  50.090  1.00  0.00    -0.270 OA
HETATM    4  H   UNL     1      26.754  42.018  52.864  1.00  0.00     0.190 HD
ENDROOT
BRANCH   2   5
HETATM    5  N   UNL     1      25.605  42.154  51.142  1.00  0.00    -0.266 N 
HETATM    6  C   UNL     1      25.179  43.435  51.454  1.00  0.00     0.258 C 
HETATM    7  O   UNL     1      25.493  44.001  52.500  1.00  0.00    -0.269 OA
HETATM    8  H   UNL     1      25.552  41.823  50.176  1.00  0.00     0.190 HD
BRANCH   6   9
HETATM    9  C   UNL     1      24.259  44.053  50.385  1.00  0.00     0.173 C 
HETATM   10  C   UNL     1      22.991  43.222  50.206  1.00  0.00     0.042 C 
BRANCH   9  11
HETATM   11  N   UNL     1      23.871  45.409  50.772  1.00  0.00    -0.356 N 
HETATM   12  H   UNL     1      23.235  45.507  51.556  1.00  0.00     0.162 HD
BRANCH  11  13
HETATM   13  C   UNL     1      24.480  46.492  50.255  1.00  0.00     0.168 A 
HETATM   14  S   UNL     1      23.570  47.664  49.390  1.00  0.00    -0.050 SA
HETATM   15  C   UNL     1      25.002  48.563  49.083  1.00  0.00     0.037 A 
HETATM   16  C   UNL     1      26.078  47.915  49.691  1.00  0.00     0.076 A 
HETATM   17  C   UNL     1      25.167  49.754  48.355  1.00  0.00     0.021 A 
HETATM   18  N   UNL     1      25.760  46.750  50.371  1.00  0.00    -0.223 NA
HETATM   19  C   UNL     1      27.366  48.475  49.566  1.00  0.00     0.033 A 
HETATM   20  C   UNL     1      27.542  49.657  48.839  1.00  0.00     0.002 A 
HETATM   21  C   UNL     1      26.455  50.287  48.242  1.00  0.00     0.002 A 
ENDBRANCH  11  13
ENDBRANCH   9  11
ENDBRANCH   6   9
ENDBRANCH   2   5
BRANCH   1  22
HETATM   22  C   UNL     1      28.828  40.575  52.233  1.00  0.00     0.227 C 
BRANCH  22  23
HETATM   23  N   UNL     1      29.042  41.484  53.350  1.00  0.00    -0.348 N 
HETATM   24  C   UNL     1      29.391  42.800  53.145  1.00  0.00     0.252 C 
HETATM   25  O   UNL     1      29.463  43.280  52.019  1.00  0.00    -0.268 OA
HETATM   26  H   UNL     1      28.732  41.186  54.265  1.00  0.00     0.163 HD
BRANCH  24  27
HETATM   27  C   UNL     1      29.601  43.645  54.354  1.00  0.00     0.032 A 
HETATM   28  C   UNL     1      30.595  43.267  55.266  1.00  0.00     0.024 A 
HETATM   29  C   UNL     1      30.841  44.022  56.426  1.00  0.00    -0.055 A 
HETATM   30  C   UNL     1      30.052  45.160  56.686  1.00  0.00    -0.056 A 
HETATM   31  C   UNL     1      31.911  43.569  57.380  1.00  0.00     0.049 C 
HETATM   32  C   UNL     1      30.272  46.005  57.913  1.00  0.00     0.049 C 
HETATM   33  C   UNL     1      29.054  45.529  55.771  1.00  0.00     0.008 A 
HETATM   34  C   UNL     1      28.823  44.776  54.617  1.00  0.00     0.017 A 
ENDBRANCH  24  27
ENDBRANCH  22  23
ENDBRANCH   1  22
TORSDOF 7
ENDMDL
MODEL 2
REMARK VINA RESULT:     -10.3      3.282      4.386
REMARK  7 active torsions:
REMARK  status: ('A' for Active; 'I' for Inactive)
REMARK    1  A    between atoms: C_6  and  C_7 
REMARK       I    between atoms: C_7  and  N_8 
REMARK    2  A    between atoms: N_8  and  C_9 
REMARK    3  A    between atoms: C_9  and  C_10 
REMARK       I    between atoms: C_10  and  N_11 
REMARK    4  A    between atoms: N_11  and  N_12 
REMARK       I    between atoms: N_12  and  C_13 
REMARK    5  A    between atoms: C_13  and  C_14 
REMARK    6  A    between atoms: C_14  and  N_15 
REMARK    7  A    between atoms: N_15  and  C_16 
ROOT
HETATM    1  C   UNL     1      26.810  44.736  50.306  1.00  0.00     0.253 C 
HETATM    2  N   UNL     1      25.476  45.065  50.444  1.00  0.00    -0.266 N 
HETATM    3  O   UNL     1      27.571  45.350  49.556  1.00  0.00    -0.270 OA
HETATM    4  H   UNL     1      24.996  44.841  51.324  1.00  0.00     0.190 HD
ENDROOT
BRANCH   2   5
HETATM    5  N   UNL     1      25.010  46.202  49.758  1.00  0.00    -0.266 N 
HETATM    6  C   UNL     1      24.918  47.391  50.462  1.00  0.00     0.258 C 
HETATM    7  O   UNL     1      25.042  47.449  51.684  1.00  0.00    -0.269 OA
HETATM    8  H   UNL     1      25.166  46.222  48.748  1.00  0.00     0.190 HD
BRANCH   6   9
HETATM    9  C   UNL     1      24.615  48.611  49.571  1.00  0.00     0.173 C 
HETATM   10  C   UNL     1      25.799  48.932  48.663  1.00  0.00     0.042 C 
BRANCH   9  11
HETATM   11  N   UNL     1      23.448  48.349  48.731  1.00  0.00    -0.356 N 
HETATM   12  H   UNL     1      23.440  47.487  48.196  1.00  0.00     0.162 HD
BRANCH  11  13
HETATM   13  C   UNL     1      22.336  49.104  48.812  1.00  0.00     0.168 A 
HETATM   14  S   UNL     1      22.327  50.697  48.169  1.00  0.00    -0.050 SA
HETATM   15  C   UNL     1      20.707  50.913  48.702  1.00  0.00     0.037 A 
HETATM   16  C   UNL     1      20.276  49.735  49.313  1.00  0.00     0.076 A 
HETATM   17  C   UNL     1      19.877  52.041  48.593  1.00  0.00     0.021 A 
HETATM   18  N   UNL     1      21.207  48.710  49.348  1.00  0.00    -0.223 NA
HETATM   19  C   UNL     1      18.967  49.682  49.836  1.00  0.00     0.033 A 
HETATM   20  C   UNL     1      18.134  50.802  49.738  1.00  0.00     0.002 A 
HETATM   21  C   UNL     1      18.585  51.965  49.123  1.00  0.00     0.002 A 
ENDBRANCH  11  13
ENDBRANCH   9  11
ENDBRANCH   6   9
ENDBRANCH   2   5
BRANCH   1  22
HETATM   22  C   UNL     1      27.310  43.646  51.258  1.00  0.00     0.227 C 
BRANCH  22  23
HETATM   23  N   UNL     1      27.809  44.145  52.531  1.00  0.00    -0.348 N 
HETATM   24  C   UNL     1      28.947  43.625  53.107  1.00  0.00     0.252 C 
HETATM   25  O   UNL     1      29.627  42.777  52.539  1.00  0.00    -0.268 OA
HETATM   26  H   UNL     1      27.423  45.011  52.881  1.00  0.00     0.163 HD
BRANCH  24  27
HETATM   27  C   UNL     1      29.368  44.194  54.418  1.00  0.00     0.032 A 
HETATM   28  C   UNL     1      30.387  43.546  55.128  1.00  0.00     0.024 A 
HETATM   29  C   UNL     1      30.828  44.033  56.371  1.00  0.00    -0.055 A 
HETATM   30  C   UNL     1      30.213  45.176  56.920  1.00  0.00    -0.056 A 
HETATM   31  C   UNL     1      31.916  43.295  57.100  1.00  0.00     0.049 C 
HETATM   32  C   UNL     1      30.645  45.740  58.247  1.00  0.00     0.049 C 
HETATM   33  C   UNL     1      29.189  45.816  56.205  1.00  0.00     0.008 A 
HETATM   34  C   UNL     1      28.763  45.328  54.967  1.00  0.00     0.017 A 
ENDBRANCH  24  27
ENDBRANCH  22  23
ENDBRANCH   1  22
TORSDOF 7
ENDMDL
MODEL 3
REMARK VINA RESULT:     -10.3      3.957     10.022
REMARK  7 active torsions:
REMARK  status: ('A' for Active; 'I' for Inactive)
REMARK    1  A    between atoms: C_6  and  C_7 
REMARK       I    between atoms: C_7  and  N_8 
REMARK    2  A    between atoms: N_8  and  C_9 
REMARK    3  A    between atoms: C_9  and  C_10 
REMARK       I    between atoms: C_10  and  N_11 
REMARK    4  A    between atoms: N_11  and  N_12 
REMARK       I    between atoms: N_12  and  C_13 
REMARK    5  A    between atoms: C_13  and  C_14 
REMARK    6  A    between atoms: C_14  and  N_15 
REMARK    7  A    between atoms: N_15  and  C_16 
ROOT
HETATM    1  C   UNL     1      26.428  48.013  49.563  1.00  0.00     0.253 C 
HETATM    2  N   UNL     1      25.818  47.846  50.791  1.00  0.00    -0.266 N 
HETATM    3  O   UNL     1      27.335  47.279  49.166  1.00  0.00    -0.270 OA
HETATM    4  H   UNL     1      24.851  48.169  50.914  1.00  0.00     0.190 HD
ENDROOT
BRANCH   2   5
HETATM    5  N   UNL     1      26.202  46.736  51.565  1.00  0.00    -0.266 N 
HETATM    6  C   UNL     1      25.905  46.754  52.917  1.00  0.00     0.258 C 
HETATM    7  O   UNL     1      25.498  47.762  53.493  1.00  0.00    -0.269 OA
HETATM    8  H   UNL     1      26.278  45.842  51.074  1.00  0.00     0.190 HD
BRANCH   6   9
HETATM    9  C   UNL     1      26.164  45.409  53.621  1.00  0.00     0.173 C 
HETATM   10  C   UNL     1      25.239  44.321  53.082  1.00  0.00     0.042 C 
BRANCH   9  11
HETATM   11  N   UNL     1      27.547  44.984  53.411  1.00  0.00    -0.356 N 
HETATM   12  H   UNL     1      27.879  44.930  52.454  1.00  0.00     0.162 HD
BRANCH  11  13
HETATM   13  C   UNL     1      28.413  44.866  54.435  1.00  0.00     0.168 A 
HETATM   14  S   UNL     1      28.410  46.023  55.704  1.00  0.00    -0.050 SA
HETATM   15  C   UNL     1      29.724  45.211  56.459  1.00  0.00     0.037 A 
HETATM   16  C   UNL     1      30.056  44.090  55.698  1.00  0.00     0.076 A 
HETATM   17  C   UNL     1      30.415  45.540  57.638  1.00  0.00     0.021 A 
HETATM   18  N   UNL     1      29.287  43.898  54.561  1.00  0.00    -0.223 NA
HETATM   19  C   UNL     1      31.118  43.268  56.127  1.00  0.00     0.033 A 
HETATM   20  C   UNL     1      31.817  43.590  57.296  1.00  0.00     0.002 A 
HETATM   21  C   UNL     1      31.468  44.711  58.040  1.00  0.00     0.002 A 
ENDBRANCH  11  13
ENDBRANCH   9  11
ENDBRANCH   6   9
ENDBRANCH   2   5
BRANCH   1  22
HETATM   22  C   UNL     1      25.801  49.087  48.669  1.00  0.00     0.227 C 
BRANCH  22  23
HETATM   23  N   UNL     1      24.440  49.453  49.038  1.00  0.00    -0.348 N 
HETATM   24  C   UNL     1      23.640  50.184  48.187  1.00  0.00     0.252 C 
HETATM   25  O   UNL     1      24.011  50.490  47.059  1.00  0.00    -0.268 OA
HETATM   26  H   UNL     1      24.029  48.991  49.837  1.00  0.00     0.163 HD
BRANCH  24  27
HETATM   27  C   UNL     1      22.269  50.520  48.663  1.00  0.00     0.032 A 
HETATM   28  C   UNL     1      21.237  50.592  47.718  1.00  0.00     0.024 A 
HETATM   29  C   UNL     1      19.922  50.905  48.104  1.00  0.00    -0.055 A 
HETATM   30  C   UNL     1      19.648  51.178  49.459  1.00  0.00    -0.056 A 
HETATM   31  C   UNL     1      18.851  50.982  47.051  1.00  0.00     0.049 C 
HETATM   32  C   UNL     1      18.258  51.518  49.927  1.00  0.00     0.049 C 
HETATM   33  C   UNL     1      20.689  51.109  50.398  1.00  0.00     0.008 A 
HETATM   34  C   UNL     1      21.991  50.789  50.006  1.00  0.00     0.017 A 
ENDBRANCH  24  27
ENDBRANCH  22  23
ENDBRANCH   1  22
TORSDOF 7
ENDMDL
MODEL 4
REMARK VINA RESULT:     -10.1      3.908      5.305
REMARK  7 active torsions:
REMARK  status: ('A' for Active; 'I' for Inactive)
REMARK    1  A    between atoms: C_6  and  C_7 
REMARK       I    between atoms: C_7  and  N_8 
REMARK    2  A    between atoms: N_8  and  C_9 
REMARK    3  A    between atoms: C_9  and  C_10 
REMARK       I    between atoms: C_10  and  N_11 
REMARK    4  A    between atoms: N_11  and  N_12 
REMARK       I    between atoms: N_12  and  C_13 
REMARK    5  A    between atoms: C_13  and  C_14 
REMARK    6  A    between atoms: C_14  and  N_15 
REMARK    7  A    between atoms: N_15  and  C_16 
ROOT
HETATM    1  C   UNL     1      24.257  44.189  50.759  1.00  0.00     0.253 C 
HETATM    2  N   UNL     1      24.755  45.362  50.226  1.00  0.00    -0.266 N 
HETATM    3  O   UNL     1      23.078  44.059  51.094  1.00  0.00    -0.270 OA
HETATM    4  H   UNL     1      25.568  45.319  49.601  1.00  0.00     0.190 HD
ENDROOT
BRANCH   2   5
HETATM    5  N   UNL     1      23.844  46.407  49.985  1.00  0.00    -0.266 N 
HETATM    6  C   UNL     1      24.328  47.704  49.990  1.00  0.00     0.258 C 
HETATM    7  O   UNL     1      25.461  47.987  50.378  1.00  0.00    -0.269 OA
HETATM    8  H   UNL     1      23.022  46.175  49.423  1.00  0.00     0.190 HD
BRANCH   6   9
HETATM    9  C   UNL     1      23.305  48.745  49.498  1.00  0.00     0.173 C 
HETATM   10  C   UNL     1      23.754  49.375  48.182  1.00  0.00     0.042 C 
BRANCH   9  11
HETATM   11  N   UNL     1      22.002  48.116  49.287  1.00  0.00    -0.356 N 
HETATM   12  H   UNL     1      21.967  47.102  49.292  1.00  0.00     0.162 HD
BRANCH  11  13
HETATM   13  C   UNL     1      20.863  48.833  49.291  1.00  0.00     0.168 A 
HETATM   14  S   UNL     1      19.400  48.132  48.728  1.00  0.00    -0.050 SA
HETATM   15  C   UNL     1      18.571  49.611  49.013  1.00  0.00     0.037 A 
HETATM   16  C   UNL     1      19.471  50.533  49.547  1.00  0.00     0.076 A 
HETATM   17  C   UNL     1      17.224  49.936  48.778  1.00  0.00     0.021 A 
HETATM   18  N   UNL     1      20.764  50.068  49.719  1.00  0.00    -0.223 NA
HETATM   19  C   UNL     1      19.009  51.829  49.858  1.00  0.00     0.033 A 
HETATM   20  C   UNL     1      17.672  52.165  49.623  1.00  0.00     0.002 A 
HETATM   21  C   UNL     1      16.792  51.229  49.090  1.00  0.00     0.002 A 
ENDBRANCH  11  13
ENDBRANCH   9  11
ENDBRANCH   6   9
ENDBRANCH   2   5
BRANCH   1  22
HETATM   22  C   UNL     1      25.240  43.015  50.771  1.00  0.00     0.227 C 
BRANCH  22  23
HETATM   23  N   UNL     1      26.225  43.069  51.842  1.00  0.00    -0.348 N 
HETATM   24  C   UNL     1      27.426  43.723  51.679  1.00  0.00     0.252 C 
HETATM   25  O   UNL     1      27.685  44.348  50.656  1.00  0.00    -0.268 OA
HETATM   26  H   UNL     1      25.927  42.796  52.769  1.00  0.00     0.163 HD
BRANCH  24  27
HETATM   27  C   UNL     1      28.371  43.709  52.830  1.00  0.00     0.032 A 
HETATM   28  C   UNL     1      28.177  44.638  53.861  1.00  0.00     0.024 A 
HETATM   29  C   UNL     1      29.035  44.676  54.973  1.00  0.00    -0.055 A 
HETATM   30  C   UNL     1      30.123  43.783  55.035  1.00  0.00    -0.056 A 
HETATM   31  C   UNL     1      28.793  45.700  56.048  1.00  0.00     0.049 C 
HETATM   32  C   UNL     1      31.073  43.780  56.203  1.00  0.00     0.049 C 
HETATM   33  C   UNL     1      30.314  42.860  53.996  1.00  0.00     0.008 A 
HETATM   34  C   UNL     1      29.451  42.824  52.897  1.00  0.00     0.017 A 
ENDBRANCH  24  27
ENDBRANCH  22  23
ENDBRANCH   1  22
TORSDOF 7
ENDMDL
MODEL 5
REMARK VINA RESULT:      -9.8      3.181      4.836
REMARK  7 active torsions:
REMARK  status: ('A' for Active; 'I' for Inactive)
REMARK    1  A    between atoms: C_6  and  C_7 
REMARK       I    between atoms: C_7  and  N_8 
REMARK    2  A    between atoms: N_8  and  C_9 
REMARK    3  A    between atoms: C_9  and  C_10 
REMARK       I    between atoms: C_10  and  N_11 
REMARK    4  A    between atoms: N_11  and  N_12 
REMARK       I    between atoms: N_12  and  C_13 
REMARK    5  A    between atoms: C_13  and  C_14 
REMARK    6  A    between atoms: C_14  and  N_15 
REMARK    7  A    between atoms: N_15  and  C_16 
ROOT
HETATM    1  C   UNL     1      24.674  44.203  50.160  1.00  0.00     0.253 C 
HETATM    2  N   UNL     1      23.845  45.203  50.628  1.00  0.00    -0.266 N 
HETATM    3  O   UNL     1      25.335  44.318  49.126  1.00  0.00    -0.270 OA
HETATM    4  H   UNL     1      23.651  45.259  51.635  1.00  0.00     0.190 HD
ENDROOT
BRANCH   2   5
HETATM    5  N   UNL     1      23.836  46.425  49.929  1.00  0.00    -0.266 N 
HETATM    6  C   UNL     1      24.576  47.474  50.447  1.00  0.00     0.258 C 
HETATM    7  O   UNL     1      25.076  47.441  51.571  1.00  0.00    -0.269 OA
HETATM    8  H   UNL     1      23.667  46.372  48.922  1.00  0.00     0.190 HD
BRANCH   6   9
HETATM    9  C   UNL     1      24.679  48.681  49.497  1.00  0.00     0.173 C 
HETATM   10  C   UNL     1      26.100  48.836  48.961  1.00  0.00     0.042 C 
BRANCH   9  11
HETATM   11  N   UNL     1      23.774  48.513  48.362  1.00  0.00    -0.356 N 
HETATM   12  H   UNL     1      23.938  47.724  47.746  1.00  0.00     0.162 HD
BRANCH  11  13
HETATM   13  C   UNL     1      22.647  49.242  48.243  1.00  0.00     0.168 A 
HETATM   14  S   UNL     1      22.580  50.836  48.879  1.00  0.00    -0.050 SA
HETATM   15  C   UNL     1      20.940  50.974  48.381  1.00  0.00     0.037 A 
HETATM   16  C   UNL     1      20.566  49.795  47.736  1.00  0.00     0.076 A 
HETATM   17  C   UNL     1      20.046  52.045  48.551  1.00  0.00     0.021 A 
HETATM   18  N   UNL     1      21.555  48.829  47.648  1.00  0.00    -0.223 NA
HETATM   19  C   UNL     1      19.250  49.679  47.243  1.00  0.00     0.033 A 
HETATM   20  C   UNL     1      18.349  50.737  47.412  1.00  0.00     0.002 A 
HETATM   21  C   UNL     1      18.745  51.904  48.057  1.00  0.00     0.002 A 
ENDBRANCH  11  13
ENDBRANCH   9  11
ENDBRANCH   6   9
ENDBRANCH   2   5
BRANCH   1  22
HETATM   22  C   UNL     1      24.824  42.997  51.092  1.00  0.00     0.227 C 
BRANCH  22  23
HETATM   23  N   UNL     1      26.037  43.009  51.898  1.00  0.00    -0.348 N 
HETATM   24  C   UNL     1      26.168  43.846  52.983  1.00  0.00     0.252 C 
HETATM   25  O   UNL     1      25.244  44.559  53.361  1.00  0.00    -0.268 OA
HETATM   26  H   UNL     1      26.694  42.252  51.768  1.00  0.00     0.163 HD
BRANCH  24  27
HETATM   27  C   UNL     1      27.453  43.793  53.733  1.00  0.00     0.032 A 
HETATM   28  C   UNL     1      27.806  44.892  54.528  1.00  0.00     0.024 A 
HETATM   29  C   UNL     1      29.006  44.902  55.259  1.00  0.00    -0.055 A 
HETATM   30  C   UNL     1      29.879  43.799  55.167  1.00  0.00    -0.056 A 
HETATM   31  C   UNL     1      29.346  46.110  56.089  1.00  0.00     0.049 C 
HETATM   32  C   UNL     1      31.176  43.758  55.928  1.00  0.00     0.049 C 
HETATM   33  C   UNL     1      29.521  42.706  54.364  1.00  0.00     0.008 A 
HETATM   34  C   UNL     1      28.322  42.701  53.647  1.00  0.00     0.017 A 
ENDBRANCH  24  27
ENDBRANCH  22  23
ENDBRANCH   1  22
TORSDOF 7
ENDMDL
MODEL 6
REMARK VINA RESULT:      -9.7      4.327     10.430
REMARK  7 active torsions:
REMARK  status: ('A' for Active; 'I' for Inactive)
REMARK    1  A    between atoms: C_6  and  C_7 
REMARK       I    between atoms: C_7  and  N_8 
REMARK    2  A    between atoms: N_8  and  C_9 
REMARK    3  A    between atoms: C_9  and  C_10 
REMARK       I    between atoms: C_10  and  N_11 
REMARK    4  A    between atoms: N_11  and  N_12 
REMARK       I    between atoms: N_12  and  C_13 
REMARK    5  A    between atoms: C_13  and  C_14 
REMARK    6  A    between atoms: C_14  and  N_15 
REMARK    7  A    between atoms: N_15  and  C_16 
ROOT
HETATM    1  C   UNL     1      24.601  47.735  49.565  1.00  0.00     0.253 C 
HETATM    2  N   UNL     1      25.726  47.465  50.319  1.00  0.00    -0.266 N 
HETATM    3  O   UNL     1      23.653  46.952  49.481  1.00  0.00    -0.270 OA
HETATM    4  H   UNL     1      26.272  48.248  50.697  1.00  0.00     0.190 HD
ENDROOT
BRANCH   2   5
HETATM    5  N   UNL     1      25.731  46.283  51.083  1.00  0.00    -0.266 N 
HETATM    6  C   UNL     1      26.623  45.285  50.728  1.00  0.00     0.258 C 
HETATM    7  O   UNL     1      27.264  45.313  49.679  1.00  0.00    -0.269 OA
HETATM    8  H   UNL     1      25.424  46.366  52.055  1.00  0.00     0.190 HD
BRANCH   6   9
HETATM    9  C   UNL     1      26.703  44.139  51.754  1.00  0.00     0.173 C 
HETATM   10  C   UNL     1      25.872  42.941  51.302  1.00  0.00     0.042 C 
BRANCH   9  11
HETATM   11  N   UNL     1      28.088  43.702  51.920  1.00  0.00    -0.356 N 
HETATM   12  H   UNL     1      28.587  43.403  51.089  1.00  0.00     0.162 HD
BRANCH  11  13
HETATM   13  C   UNL     1      28.749  43.878  53.080  1.00  0.00     0.168 A 
HETATM   14  S   UNL     1      30.003  42.794  53.531  1.00  0.00    -0.050 SA
HETATM   15  C   UNL     1      30.223  43.649  55.006  1.00  0.00     0.037 A 
HETATM   16  C   UNL     1      29.336  44.725  55.037  1.00  0.00     0.076 A 
HETATM   17  C   UNL     1      31.111  43.387  56.063  1.00  0.00     0.021 A 
HETATM   18  N   UNL     1      28.520  44.853  53.925  1.00  0.00    -0.223 NA
HETATM   19  C   UNL     1      29.335  45.572  56.166  1.00  0.00     0.033 A 
HETATM   20  C   UNL     1      30.211  45.317  57.226  1.00  0.00     0.002 A 
HETATM   21  C   UNL     1      31.088  44.238  57.173  1.00  0.00     0.002 A 
ENDBRANCH  11  13
ENDBRANCH   9  11
ENDBRANCH   6   9
ENDBRANCH   2   5
BRANCH   1  22
HETATM   22  C   UNL     1      24.553  49.139  48.955  1.00  0.00     0.227 C 
BRANCH  22  23
HETATM   23  N   UNL     1      23.244  49.529  48.450  1.00  0.00    -0.348 N 
HETATM   24  C   UNL     1      22.429  50.383  49.158  1.00  0.00     0.252 C 
HETATM   25  O   UNL     1      22.800  50.909  50.202  1.00  0.00    -0.268 OA
HETATM   26  H   UNL     1      23.033  49.324  47.482  1.00  0.00     0.163 HD
BRANCH  24  27
HETATM   27  C   UNL     1      21.104  50.710  48.563  1.00  0.00     0.032 A 
HETATM   28  C   UNL     1      20.186  51.433  49.337  1.00  0.00     0.024 A 
HETATM   29  C   UNL     1      18.919  51.771  48.832  1.00  0.00    -0.055 A 
HETATM   30  C   UNL     1      18.559  51.349  47.536  1.00  0.00    -0.056 A 
HETATM   31  C   UNL     1      17.965  52.538  49.706  1.00  0.00     0.049 C 
HETATM   32  C   UNL     1      17.215  51.683  46.946  1.00  0.00     0.049 C 
HETATM   33  C   UNL     1      19.481  50.620  46.770  1.00  0.00     0.008 A 
HETATM   34  C   UNL     1      20.741  50.295  47.278  1.00  0.00     0.017 A 
ENDBRANCH  24  27
ENDBRANCH  22  23
ENDBRANCH   1  22
TORSDOF 7
ENDMDL
MODEL 7
REMARK VINA RESULT:      -9.7      4.017      5.190
REMARK  7 active torsions:
REMARK  status: ('A' for Active; 'I' for Inactive)
REMARK    1  A    between atoms: C_6  and  C_7 
REMARK       I    between atoms: C_7  and  N_8 
REMARK    2  A    between atoms: N_8  and  C_9 
REMARK    3  A    between atoms: C_9  and  C_10 
REMARK       I    between atoms: C_10  and  N_11 
REMARK    4  A    between atoms: N_11  and  N_12 
REMARK       I    between atoms: N_12  and  C_13 
REMARK    5  A    between atoms: C_13  and  C_14 
REMARK    6  A    between atoms: C_14  and  N_15 
REMARK    7  A    between atoms: N_15  and  C_16 
ROOT
HETATM    1  C   UNL     1      24.012  44.083  50.578  1.00  0.00     0.253 C 
HETATM    2  N   UNL     1      22.811  43.789  49.963  1.00  0.00    -0.266 N 
HETATM    3  O   UNL     1      24.438  45.233  50.688  1.00  0.00    -0.270 OA
HETATM    4  H   UNL     1      22.304  42.940  50.241  1.00  0.00     0.190 HD
ENDROOT
BRANCH   2   5
HETATM    5  N   UNL     1      22.018  44.868  49.530  1.00  0.00    -0.266 N 
HETATM    6  C   UNL     1      21.209  44.676  48.423  1.00  0.00     0.258 C 
HETATM    7  O   UNL     1      21.296  43.682  47.704  1.00  0.00    -0.269 OA
HETATM    8  H   UNL     1      21.749  45.551  50.242  1.00  0.00     0.190 HD
BRANCH   6   9
HETATM    9  C   UNL     1      20.226  45.834  48.172  1.00  0.00     0.173 C 
HETATM   10  C   UNL     1      18.875  45.311  47.691  1.00  0.00     0.042 C 
BRANCH   9  11
HETATM   11  N   UNL     1      20.014  46.597  49.401  1.00  0.00    -0.356 N 
HETATM   12  H   UNL     1      20.262  46.149  50.277  1.00  0.00     0.162 HD
BRANCH  11  13
HETATM   13  C   UNL     1      19.702  47.906  49.375  1.00  0.00     0.168 A 
HETATM   14  S   UNL     1      18.556  48.542  50.484  1.00  0.00    -0.050 SA
HETATM   15  C   UNL     1      18.719  50.099  49.774  1.00  0.00     0.037 A 
HETATM   16  C   UNL     1      19.664  50.028  48.750  1.00  0.00     0.076 A 
HETATM   17  C   UNL     1      18.057  51.297  50.093  1.00  0.00     0.021 A 
HETATM   18  N   UNL     1      20.228  48.779  48.550  1.00  0.00    -0.223 NA
HETATM   19  C   UNL     1      19.959  51.196  48.017  1.00  0.00     0.033 A 
HETATM   20  C   UNL     1      19.302  52.393  48.322  1.00  0.00     0.002 A 
HETATM   21  C   UNL     1      18.364  52.441  49.348  1.00  0.00     0.002 A 
ENDBRANCH  11  13
ENDBRANCH   9  11
ENDBRANCH   6   9
ENDBRANCH   2   5
BRANCH   1  22
HETATM   22  C   UNL     1      24.709  42.890  51.240  1.00  0.00     0.227 C 
BRANCH  22  23
HETATM   23  N   UNL     1      25.713  43.256  52.229  1.00  0.00    -0.348 N 
HETATM   24  C   UNL     1      27.048  42.984  52.027  1.00  0.00     0.252 C 
HETATM   25  O   UNL     1      27.454  42.492  50.980  1.00  0.00    -0.268 OA
HETATM   26  H   UNL     1      25.438  43.890  52.966  1.00  0.00     0.163 HD
BRANCH  24  27
HETATM   27  C   UNL     1      27.995  43.385  53.105  1.00  0.00     0.032 A 
HETATM   28  C   UNL     1      27.826  44.640  53.705  1.00  0.00     0.024 A 
HETATM   29  C   UNL     1      28.687  45.077  54.726  1.00  0.00    -0.055 A 
HETATM   30  C   UNL     1      29.753  44.249  55.130  1.00  0.00    -0.056 A 
HETATM   31  C   UNL     1      28.471  46.438  55.331  1.00  0.00     0.049 C 
HETATM   32  C   UNL     1      30.704  44.667  56.218  1.00  0.00     0.049 C 
HETATM   33  C   UNL     1      29.918  42.996  54.520  1.00  0.00     0.008 A 
HETATM   34  C   UNL     1      29.053  42.567  53.511  1.00  0.00     0.017 A 
ENDBRANCH  24  27
ENDBRANCH  22  23
ENDBRANCH   1  22
TORSDOF 7
ENDMDL
MODEL 8
REMARK VINA RESULT:      -9.4      3.770      4.809
REMARK  7 active torsions:
REMARK  status: ('A' for Active; 'I' for Inactive)
REMARK    1  A    between atoms: C_6  and  C_7 
REMARK       I    between atoms: C_7  and  N_8 
REMARK    2  A    between atoms: N_8  and  C_9 
REMARK    3  A    between atoms: C_9  and  C_10 
REMARK       I    between atoms: C_10  and  N_11 
REMARK    4  A    between atoms: N_11  and  N_12 
REMARK       I    between atoms: N_12  and  C_13 
REMARK    5  A    between atoms: C_13  and  C_14 
REMARK    6  A    between atoms: C_14  and  N_15 
REMARK    7  A    between atoms: N_15  and  C_16 
ROOT
HETATM    1  C   UNL     1      23.842  43.533  50.640  1.00  0.00     0.253 C 
HETATM    2  N   UNL     1      24.022  44.788  50.091  1.00  0.00    -0.266 N 
HETATM    3  O   UNL     1      22.731  43.011  50.752  1.00  0.00    -0.270 OA
HETATM    4  H   UNL     1      24.919  45.011  49.643  1.00  0.00     0.190 HD
ENDROOT
BRANCH   2   5
HETATM    5  N   UNL     1      22.891  45.440  49.568  1.00  0.00    -0.266 N 
HETATM    6  C   UNL     1      22.570  45.217  48.239  1.00  0.00     0.258 C 
HETATM    7  O   UNL     1      23.327  44.637  47.464  1.00  0.00    -0.269 OA
HETATM    8  H   UNL     1      22.152  45.679  50.234  1.00  0.00     0.190 HD
BRANCH   6   9
HETATM    9  C   UNL     1      21.201  45.794  47.833  1.00  0.00     0.173 C 
HETATM   10  C   UNL     1      20.267  44.691  47.342  1.00  0.00     0.042 C 
BRANCH   9  11
HETATM   11  N   UNL     1      20.571  46.459  48.972  1.00  0.00    -0.356 N 
HETATM   12  H   UNL     1      20.564  45.964  49.857  1.00  0.00     0.162 HD
BRANCH  11  13
HETATM   13  C   UNL     1      20.199  47.752  48.916  1.00  0.00     0.168 A 
HETATM   14  S   UNL     1      20.787  48.767  47.662  1.00  0.00    -0.050 SA
HETATM   15  C   UNL     1      19.938  50.102  48.332  1.00  0.00     0.037 A 
HETATM   16  C   UNL     1      19.238  49.670  49.458  1.00  0.00     0.076 A 
HETATM   17  C   UNL     1      19.894  51.438  47.897  1.00  0.00     0.021 A 
HETATM   18  N   UNL     1      19.381  48.326  49.764  1.00  0.00    -0.223 NA
HETATM   19  C   UNL     1      18.467  50.605  50.179  1.00  0.00     0.033 A 
HETATM   20  C   UNL     1      18.421  51.939  49.759  1.00  0.00     0.002 A 
HETATM   21  C   UNL     1      19.126  52.348  48.632  1.00  0.00     0.002 A 
ENDBRANCH  11  13
ENDBRANCH   9  11
ENDBRANCH   6   9
ENDBRANCH   2   5
BRANCH   1  22
HETATM   22  C   UNL     1      25.133  42.778  50.967  1.00  0.00     0.227 C 
BRANCH  22  23
HETATM   23  N   UNL     1      25.855  43.298  52.121  1.00  0.00    -0.348 N 
HETATM   24  C   UNL     1      27.044  43.977  51.975  1.00  0.00     0.252 C 
HETATM   25  O   UNL     1      27.505  44.237  50.869  1.00  0.00    -0.268 OA
HETATM   26  H   UNL     1      25.367  43.328  53.006  1.00  0.00     0.163 HD
BRANCH  24  27
HETATM   27  C   UNL     1      27.711  44.456  53.217  1.00  0.00     0.032 A 
HETATM   28  C   UNL     1      28.808  43.733  53.705  1.00  0.00     0.024 A 
HETATM   29  C   UNL     1      29.479  44.134  54.873  1.00  0.00    -0.055 A 
HETATM   30  C   UNL     1      29.021  45.265  55.577  1.00  0.00    -0.056 A 
HETATM   31  C   UNL     1      30.644  43.318  55.363  1.00  0.00     0.049 C 
HETATM   32  C   UNL     1      29.702  45.738  56.833  1.00  0.00     0.049 C 
HETATM   33  C   UNL     1      27.918  45.980  55.085  1.00  0.00     0.008 A 
HETATM   34  C   UNL     1      27.262  45.579  53.919  1.00  0.00     0.017 A 
ENDBRANCH  24  27
ENDBRANCH  22  23
ENDBRANCH   1  22
TORSDOF 7
ENDMDL
MODEL 9
REMARK VINA RESULT:      -9.2      3.455      4.413
REMARK  7 active torsions:
REMARK  status: ('A' for Active; 'I' for Inactive)
REMARK    1  A    between atoms: C_6  and  C_7 
REMARK       I    between atoms: C_7  and  N_8 
REMARK    2  A    between atoms: N_8  and  C_9 
REMARK    3  A    between atoms: C_9  and  C_10 
REMARK       I    between atoms: C_10  and  N_11 
REMARK    4  A    between atoms: N_11  and  N_12 
REMARK       I    between atoms: N_12  and  C_13 
REMARK    5  A    between atoms: C_13  and  C_14 
REMARK    6  A    between atoms: C_14  and  N_15 
REMARK    7  A    between atoms: N_15  and  C_16 
ROOT
HETATM    1  C   UNL     1      25.635  43.104  49.866  1.00  0.00     0.253 C 
HETATM    2  N   UNL     1      25.582  44.094  48.904  1.00  0.00    -0.266 N 
HETATM    3  O   UNL     1      24.624  42.582  50.339  1.00  0.00    -0.270 OA
HETATM    4  H   UNL     1      26.372  44.204  48.259  1.00  0.00     0.190 HD
ENDROOT
BRANCH   2   5
HETATM    5  N   UNL     1      24.316  44.443  48.397  1.00  0.00    -0.266 N 
HETATM    6  C   UNL     1      23.751  45.632  48.824  1.00  0.00     0.258 C 
HETATM    7  O   UNL     1      24.214  46.288  49.755  1.00  0.00    -0.269 OA
HETATM    8  H   UNL     1      24.076  44.069  47.475  1.00  0.00     0.190 HD
BRANCH   6   9
HETATM    9  C   UNL     1      22.482  46.024  48.045  1.00  0.00     0.173 C 
HETATM   10  C   UNL     1      21.959  44.848  47.223  1.00  0.00     0.042 C 
BRANCH   9  11
HETATM   11  N   UNL     1      21.429  46.446  48.968  1.00  0.00    -0.356 N 
HETATM   12  H   UNL     1      21.199  45.820  49.732  1.00  0.00     0.162 HD
BRANCH  11  13
HETATM   13  C   UNL     1      20.924  47.694  48.939  1.00  0.00     0.168 A 
HETATM   14  S   UNL     1      21.787  48.956  48.157  1.00  0.00    -0.050 SA
HETATM   15  C   UNL     1      20.568  50.081  48.609  1.00  0.00     0.037 A 
HETATM   16  C   UNL     1      19.568  49.403  49.306  1.00  0.00     0.076 A 
HETATM   17  C   UNL     1      20.500  51.464  48.369  1.00  0.00     0.021 A 
HETATM   18  N   UNL     1      19.776  48.043  49.467  1.00  0.00    -0.223 NA
HETATM   19  C   UNL     1      18.459  50.132  49.783  1.00  0.00     0.033 A 
HETATM   20  C   UNL     1      18.384  51.510  49.555  1.00  0.00     0.002 A 
HETATM   21  C   UNL     1      19.392  52.166  48.856  1.00  0.00     0.002 A 
ENDBRANCH  11  13
ENDBRANCH   9  11
ENDBRANCH   6   9
ENDBRANCH   2   5
BRANCH   1  22
HETATM   22  C   UNL     1      27.043  42.602  50.199  1.00  0.00     0.227 C 
BRANCH  22  23
HETATM   23  N   UNL     1      27.658  43.258  51.345  1.00  0.00    -0.348 N 
HETATM   24  C   UNL     1      28.134  42.533  52.415  1.00  0.00     0.252 C 
HETATM   25  O   UNL     1      28.130  41.306  52.414  1.00  0.00    -0.268 OA
HETATM   26  H   UNL     1      27.910  44.232  51.249  1.00  0.00     0.163 HD
BRANCH  24  27
HETATM   27  C   UNL     1      28.733  43.298  53.543  1.00  0.00     0.032 A 
HETATM   28  C   UNL     1      28.155  44.525  53.895  1.00  0.00     0.024 A 
HETATM   29  C   UNL     1      28.674  45.295  54.951  1.00  0.00    -0.055 A 
HETATM   30  C   UNL     1      29.811  44.835  55.644  1.00  0.00    -0.056 A 
HETATM   31  C   UNL     1      28.026  46.611  55.283  1.00  0.00     0.049 C 
HETATM   32  C   UNL     1      30.408  45.619  56.782  1.00  0.00     0.049 C 
HETATM   33  C   UNL     1      30.387  43.608  55.282  1.00  0.00     0.008 A 
HETATM   34  C   UNL     1      29.859  42.846  54.237  1.00  0.00     0.017 A 
ENDBRANCH  24  27
ENDBRANCH  22  23
ENDBRANCH   1  22
TORSDOF 7
ENDMDL
MODEL 10
REMARK VINA RESULT:      -8.9     11.960     14.071
REMARK  7 active torsions:
REMARK  status: ('A' for Active; 'I' for Inactive)
REMARK    1  A    between atoms: C_6  and  C_7 
REMARK       I    between atoms: C_7  and  N_8 
REMARK    2  A    between atoms: N_8  and  C_9 
REMARK    3  A    between atoms: C_9  and  C_10 
REMARK       I    between atoms: C_10  and  N_11 
REMARK    4  A    between atoms: N_11  and  N_12 
REMARK       I    between atoms: N_12  and  C_13 
REMARK    5  A    between atoms: C_13  and  C_14 
REMARK    6  A    between atoms: C_14  and  N_15 
REMARK    7  A    between atoms: N_15  and  C_16 
ROOT
HETATM    1  C   UNL     1      27.819  51.868  41.107  1.00  0.00     0.253 C 
HETATM    2  N   UNL     1      27.271  51.645  39.859  1.00  0.00    -0.266 N 
HETATM    3  O   UNL     1      27.660  51.092  42.051  1.00  0.00    -0.270 OA
HETATM    4  H   UNL     1      27.733  52.044  39.034  1.00  0.00     0.190 HD
ENDROOT
BRANCH   2   5
HETATM    5  N   UNL     1      26.581  50.435  39.657  1.00  0.00    -0.266 N 
HETATM    6  C   UNL     1      26.851  49.719  38.503  1.00  0.00     0.258 C 
HETATM    7  O   UNL     1      27.514  50.183  37.576  1.00  0.00    -0.269 OA
HETATM    8  H   UNL     1      26.266  49.943  40.496  1.00  0.00     0.190 HD
BRANCH   6   9
HETATM    9  C   UNL     1      26.217  48.316  38.487  1.00  0.00     0.173 C 
HETATM   10  C   UNL     1      25.574  48.021  37.135  1.00  0.00     0.042 C 
BRANCH   9  11
HETATM   11  N   UNL     1      27.233  47.297  38.747  1.00  0.00    -0.356 N 
HETATM   12  H   UNL     1      27.154  46.420  38.243  1.00  0.00     0.162 HD
BRANCH  11  13
HETATM   13  C   UNL     1      28.341  47.570  39.460  1.00  0.00     0.168 A 
HETATM   14  S   UNL     1      29.895  47.302  38.779  1.00  0.00    -0.050 SA
HETATM   15  C   UNL     1      30.635  47.814  40.243  1.00  0.00     0.037 A 
HETATM   16  C   UNL     1      29.638  48.183  41.145  1.00  0.00     0.076 A 
HETATM   17  C   UNL     1      32.000  47.882  40.574  1.00  0.00     0.021 A 
HETATM   18  N   UNL     1      28.340  48.058  40.677  1.00  0.00    -0.223 NA
HETATM   19  C   UNL     1      30.015  48.636  42.426  1.00  0.00     0.033 A 
HETATM   20  C   UNL     1      31.370  48.702  42.769  1.00  0.00     0.002 A 
HETATM   21  C   UNL     1      32.348  48.330  41.852  1.00  0.00     0.002 A 
ENDBRANCH  11  13
ENDBRANCH   9  11
ENDBRANCH   6   9
ENDBRANCH   2   5
BRANCH   1  22
HETATM   22  C   UNL     1      28.756  53.076  41.195  1.00  0.00     0.227 C 
BRANCH  22  23
HETATM   23  N   UNL     1      30.147  52.737  41.463  1.00  0.00    -0.348 N 
HETATM   24  C   UNL     1      30.914  52.071  40.533  1.00  0.00     0.252 C 
HETATM   25  O   UNL     1      30.483  51.804  39.416  1.00  0.00    -0.268 OA
HETATM   26  H   UNL     1      30.593  53.176  42.257  1.00  0.00     0.163 HD
BRANCH  24  27
HETATM   27  C   UNL     1      32.320  51.758  40.909  1.00  0.00     0.032 A 
HETATM   28  C   UNL     1      32.722  51.987  42.231  1.00  0.00     0.024 A 
HETATM   29  C   UNL     1      34.037  51.713  42.647  1.00  0.00    -0.055 A 
HETATM   30  C   UNL     1      34.969  51.227  41.709  1.00  0.00    -0.056 A 
HETATM   31  C   UNL     1      34.423  51.987  44.075  1.00  0.00     0.049 C 
HETATM   32  C   UNL     1      36.389  50.917  42.101  1.00  0.00     0.049 C 
HETATM   33  C   UNL     1      34.560  51.006  40.385  1.00  0.00     0.008 A 
HETATM   34  C   UNL     1      33.250  51.274  39.983  1.00  0.00     0.017 A 
ENDBRANCH  24  27
ENDBRANCH  22  23
ENDBRANCH   1  22
TORSDOF 7
ENDMDL
