MODEL 1
REMARK VINA RESULT:      -8.1      0.000      0.000
REMARK  5 active torsions:
REMARK  status: ('A' for Active; 'I' for Inactive)
REMARK    1  A    between atoms: C_2  and  O_3 
REMARK    2  A    between atoms: O_3  and  C_4 
REMARK    3  A    between atoms: C_8  and  N_9 
REMARK       I    between atoms: N_9  and  C_10 
REMARK       I    between atoms: C_10  and  N_11 
REMARK    4  A    between atoms: N_11  and  C_12 
REMARK    5  A    between atoms: C_12  and  C_13 
ROOT
HETATM    1  N   UNL     1      26.153  46.574  50.845  1.00  0.00    -0.309 N 
HETATM    2  C   UNL     1      26.837  45.434  50.543  1.00  0.00     0.321 C 
HETATM    3  N   UNL     1      27.057  44.597  51.606  1.00  0.00    -0.337 N 
HETATM    4  O   UNL     1      27.278  45.093  49.453  1.00  0.00    -0.247 OA
HETATM    5  H   UNL     1      26.333  46.888  51.796  1.00  0.00     0.170 HD
HETATM    6  H   UNL     1      27.569  43.765  51.345  1.00  0.00     0.164 HD
ENDROOT
BRANCH   1   7
HETATM    7  C   UNL     1      25.566  47.547  50.006  1.00  0.00     0.042 A 
HETATM    8  C   UNL     1      26.221  48.572  49.303  1.00  0.00    -0.033 A 
HETATM    9  C   UNL     1      25.448  49.439  48.496  1.00  0.00     0.045 A 
HETATM   10  C   UNL     1      27.702  48.817  49.315  1.00  0.00     0.050 C 
HETATM   11  C   UNL     1      24.071  49.272  48.329  1.00  0.00     0.069 A 
HETATM   12  C   UNL     1      23.435  48.243  49.007  1.00  0.00     0.039 A 
HETATM   13  C   UNL     1      24.177  47.393  49.831  1.00  0.00     0.033 A 
BRANCH  11  14
HETATM   14  O   UNL     1      23.475  50.166  47.484  1.00  0.00    -0.351 OA
BRANCH  14  15
HETATM   15  C   UNL     1      22.048  50.192  47.489  1.00  0.00     0.171 C 
HETATM   16  C   UNL     1      21.600  51.259  48.471  1.00  0.00     0.034 C 
ENDBRANCH  14  15
ENDBRANCH  11  14
ENDBRANCH   1   7
BRANCH   3  17
HETATM   17  C   UNL     1      26.512  44.696  52.947  1.00  0.00     0.183 C 
BRANCH  17  18
HETATM   18  C   UNL     1      27.580  45.012  53.972  1.00  0.00     0.053 A 
HETATM   19  N   UNL     1      27.566  46.264  54.511  1.00  0.00    -0.264 NA
HETATM   20  C   UNL     1      28.549  46.581  55.384  1.00  0.00     0.118 A 
HETATM   21  C   UNL     1      29.549  45.709  55.763  1.00  0.00     0.043 A 
HETATM   22  C   UNL     1      29.536  44.439  55.206  1.00  0.00     0.037 A 
HETATM   23 CL   UNL     1      30.755  43.305  55.642  1.00  0.00    -0.084 Cl
HETATM   24  C   UNL     1      28.552  44.074  54.294  1.00  0.00     0.052 A 
ENDBRANCH  17  18
ENDBRANCH   3  17
TORSDOF 5
ENDMDL
MODEL 2
REMARK VINA RESULT:      -8.1      3.256      8.205
REMARK  5 active torsions:
REMARK  status: ('A' for Active; 'I' for Inactive)
REMARK    1  A    between atoms: C_2  and  O_3 
REMARK    2  A    between atoms: O_3  and  C_4 
REMARK    3  A    between atoms: C_8  and  N_9 
REMARK       I    between atoms: N_9  and  C_10 
REMARK       I    between atoms: C_10  and  N_11 
REMARK    4  A    between atoms: N_11  and  C_12 
REMARK    5  A    between atoms: C_12  and  C_13 
ROOT
HETATM    1  N   UNL     1      26.420  44.902  52.324  1.00  0.00    -0.309 N 
HETATM    2  C   UNL     1      25.081  44.792  52.557  1.00  0.00     0.321 C 
HETATM    3  N   UNL     1      24.287  45.016  51.463  1.00  0.00    -0.337 N 
HETATM    4  O   UNL     1      24.525  44.536  53.617  1.00  0.00    -0.247 OA
HETATM    5  H   UNL     1      26.627  45.579  51.593  1.00  0.00     0.170 HD
HETATM    6  H   UNL     1      23.301  44.928  51.673  1.00  0.00     0.164 HD
ENDROOT
BRANCH   1   7
HETATM    7  C   UNL     1      27.527  44.546  53.125  1.00  0.00     0.042 A 
HETATM    8  C   UNL     1      27.964  45.172  54.303  1.00  0.00    -0.033 A 
HETATM    9  C   UNL     1      29.094  44.645  54.971  1.00  0.00     0.045 A 
HETATM   10  C   UNL     1      27.308  46.362  54.942  1.00  0.00     0.050 C 
HETATM   11  C   UNL     1      29.748  43.491  54.532  1.00  0.00     0.069 A 
HETATM   12  C   UNL     1      29.297  42.863  53.381  1.00  0.00     0.039 A 
HETATM   13  C   UNL     1      28.199  43.385  52.692  1.00  0.00     0.033 A 
BRANCH  11  14
HETATM   14  O   UNL     1      30.796  43.085  55.310  1.00  0.00    -0.351 OA
BRANCH  14  15
HETATM   15  C   UNL     1      31.290  44.031  56.258  1.00  0.00     0.171 C 
HETATM   16  C   UNL     1      31.954  43.263  57.387  1.00  0.00     0.034 C 
ENDBRANCH  14  15
ENDBRANCH  11  14
ENDBRANCH   1   7
BRANCH   3  17
HETATM   17  C   UNL     1      24.698  45.181  50.081  1.00  0.00     0.183 C 
BRANCH  17  18
HETATM   18  C   UNL     1      24.872  46.639  49.712  1.00  0.00     0.053 A 
HETATM   19  N   UNL     1      23.742  47.336  49.406  1.00  0.00    -0.264 NA
HETATM   20  C   UNL     1      23.886  48.623  49.018  1.00  0.00     0.118 A 
HETATM   21  C   UNL     1      25.104  49.265  48.926  1.00  0.00     0.043 A 
HETATM   22  C   UNL     1      26.239  48.535  49.251  1.00  0.00     0.037 A 
HETATM   23 CL   UNL     1      27.787  49.281  49.160  1.00  0.00    -0.084 Cl
HETATM   24  C   UNL     1      26.138  47.206  49.642  1.00  0.00     0.052 A 
ENDBRANCH  17  18
ENDBRANCH   3  17
TORSDOF 5
ENDMDL
MODEL 3
REMARK VINA RESULT:      -7.7      1.884      2.838
REMARK  5 active torsions:
REMARK  status: ('A' for Active; 'I' for Inactive)
REMARK    1  A    between atoms: C_2  and  O_3 
REMARK    2  A    between atoms: O_3  and  C_4 
REMARK    3  A    between atoms: C_8  and  N_9 
REMARK       I    between atoms: N_9  and  C_10 
REMARK       I    between atoms: C_10  and  N_11 
REMARK    4  A    between atoms: N_11  and  C_12 
REMARK    5  A    between atoms: C_12  and  C_13 
ROOT
HETATM    1  N   UNL     1      26.103  44.573  51.949  1.00  0.00    -0.309 N 
HETATM    2  C   UNL     1      25.715  44.062  53.153  1.00  0.00     0.321 C 
HETATM    3  N   UNL     1      26.701  43.413  53.847  1.00  0.00    -0.337 N 
HETATM    4  O   UNL     1      24.601  44.108  53.660  1.00  0.00    -0.247 OA
HETATM    5  H   UNL     1      26.839  44.018  51.518  1.00  0.00     0.170 HD
HETATM    6  H   UNL     1      26.377  43.045  54.732  1.00  0.00     0.164 HD
ENDROOT
BRANCH   1   7
HETATM    7  C   UNL     1      25.448  45.465  51.071  1.00  0.00     0.042 A 
HETATM    8  C   UNL     1      24.307  45.210  50.294  1.00  0.00    -0.033 A 
HETATM    9  C   UNL     1      23.792  46.252  49.487  1.00  0.00     0.045 A 
HETATM   10  C   UNL     1      23.555  43.911  50.262  1.00  0.00     0.050 C 
HETATM   11  C   UNL     1      24.344  47.535  49.486  1.00  0.00     0.069 A 
HETATM   12  C   UNL     1      25.457  47.787  50.274  1.00  0.00     0.039 A 
HETATM   13  C   UNL     1      25.996  46.762  51.057  1.00  0.00     0.033 A 
BRANCH  11  14
HETATM   14  O   UNL     1      23.707  48.442  48.685  1.00  0.00    -0.351 OA
BRANCH  14  15
HETATM   15  C   UNL     1      24.398  49.665  48.432  1.00  0.00     0.171 C 
HETATM   16  C   UNL     1      23.398  50.802  48.539  1.00  0.00     0.034 C 
ENDBRANCH  14  15
ENDBRANCH  11  14
ENDBRANCH   1   7
BRANCH   3  17
HETATM   17  C   UNL     1      28.119  43.354  53.539  1.00  0.00     0.183 C 
BRANCH  17  18
HETATM   18  C   UNL     1      28.955  44.055  54.588  1.00  0.00     0.053 A 
HETATM   19  N   UNL     1      28.660  45.360  54.842  1.00  0.00    -0.264 NA
HETATM   20  C   UNL     1      29.436  46.017  55.733  1.00  0.00     0.118 A 
HETATM   21  C   UNL     1      30.494  45.437  56.402  1.00  0.00     0.043 A 
HETATM   22  C   UNL     1      30.769  44.104  56.132  1.00  0.00     0.037 A 
HETATM   23 CL   UNL     1      32.074  43.323  56.938  1.00  0.00    -0.084 Cl
HETATM   24  C   UNL     1      30.005  43.395  55.213  1.00  0.00     0.052 A 
ENDBRANCH  17  18
ENDBRANCH   3  17
TORSDOF 5
ENDMDL
MODEL 4
REMARK VINA RESULT:      -7.7      3.584      8.530
REMARK  5 active torsions:
REMARK  status: ('A' for Active; 'I' for Inactive)
REMARK    1  A    between atoms: C_2  and  O_3 
REMARK    2  A    between atoms: O_3  and  C_4 
REMARK    3  A    between atoms: C_8  and  N_9 
REMARK       I    between atoms: N_9  and  C_10 
REMARK       I    between atoms: C_10  and  N_11 
REMARK    4  A    between atoms: N_11  and  C_12 
REMARK    5  A    between atoms: C_12  and  C_13 
ROOT
HETATM    1  N   UNL     1      26.663  44.987  51.762  1.00  0.00    -0.309 N 
HETATM    2  C   UNL     1      26.565  44.762  50.420  1.00  0.00     0.321 C 
HETATM    3  N   UNL     1      25.593  45.488  49.785  1.00  0.00    -0.337 N 
HETATM    4  O   UNL     1      27.227  43.986  49.742  1.00  0.00    -0.247 OA
HETATM    5  H   UNL     1      25.766  45.231  52.175  1.00  0.00     0.170 HD
HETATM    6  H   UNL     1      25.547  45.293  48.793  1.00  0.00     0.164 HD
ENDROOT
BRANCH   1   7
HETATM    7  C   UNL     1      27.652  44.600  52.692  1.00  0.00     0.042 A 
HETATM    8  C   UNL     1      27.841  45.097  53.992  1.00  0.00    -0.033 A 
HETATM    9  C   UNL     1      28.888  44.560  54.777  1.00  0.00     0.045 A 
HETATM   10  C   UNL     1      26.996  46.155  54.643  1.00  0.00     0.050 C 
HETATM   11  C   UNL     1      29.695  43.513  54.326  1.00  0.00     0.069 A 
HETATM   12  C   UNL     1      29.489  43.010  53.050  1.00  0.00     0.039 A 
HETATM   13  C   UNL     1      28.477  43.547  52.250  1.00  0.00     0.033 A 
BRANCH  11  14
HETATM   14  O   UNL     1      30.635  43.077  55.218  1.00  0.00    -0.351 OA
BRANCH  14  15
HETATM   15  C   UNL     1      31.133  44.044  56.141  1.00  0.00     0.171 C 
HETATM   16  C   UNL     1      31.848  43.304  57.258  1.00  0.00     0.034 C 
ENDBRANCH  14  15
ENDBRANCH  11  14
ENDBRANCH   1   7
BRANCH   3  17
HETATM   17  C   UNL     1      24.790  46.570  50.326  1.00  0.00     0.183 C 
BRANCH  17  18
HETATM   18  C   UNL     1      24.898  47.827  49.491  1.00  0.00     0.053 A 
HETATM   19  N   UNL     1      26.147  48.340  49.307  1.00  0.00    -0.264 NA
HETATM   20  C   UNL     1      26.254  49.496  48.613  1.00  0.00     0.118 A 
HETATM   21  C   UNL     1      25.176  50.171  48.077  1.00  0.00     0.043 A 
HETATM   22  C   UNL     1      23.916  49.624  48.271  1.00  0.00     0.037 A 
HETATM   23 CL   UNL     1      22.534  50.418  47.624  1.00  0.00    -0.084 Cl
HETATM   24  C   UNL     1      23.759  48.445  48.990  1.00  0.00     0.052 A 
ENDBRANCH  17  18
ENDBRANCH   3  17
TORSDOF 5
ENDMDL
MODEL 5
REMARK VINA RESULT:      -7.4      4.752      7.224
REMARK  5 active torsions:
REMARK  status: ('A' for Active; 'I' for Inactive)
REMARK    1  A    between atoms: C_2  and  O_3 
REMARK    2  A    between atoms: O_3  and  C_4 
REMARK    3  A    between atoms: C_8  and  N_9 
REMARK       I    between atoms: N_9  and  C_10 
REMARK       I    between atoms: C_10  and  N_11 
REMARK    4  A    between atoms: N_11  and  C_12 
REMARK    5  A    between atoms: C_12  and  C_13 
ROOT
HETATM    1  N   UNL     1      27.899  43.696  53.508  1.00  0.00    -0.309 N 
HETATM    2  C   UNL     1      26.850  44.306  54.129  1.00  0.00     0.321 C 
HETATM    3  N   UNL     1      27.182  45.410  54.869  1.00  0.00    -0.337 N 
HETATM    4  O   UNL     1      25.672  43.971  54.110  1.00  0.00    -0.247 OA
HETATM    5  H   UNL     1      28.765  43.797  54.033  1.00  0.00     0.170 HD
HETATM    6  H   UNL     1      26.380  45.835  55.317  1.00  0.00     0.164 HD
ENDROOT
BRANCH   1   7
HETATM    7  C   UNL     1      27.926  42.691  52.517  1.00  0.00     0.042 A 
HETATM    8  C   UNL     1      27.498  42.797  51.184  1.00  0.00    -0.033 A 
HETATM    9  C   UNL     1      27.628  41.670  50.339  1.00  0.00     0.045 A 
HETATM   10  C   UNL     1      26.924  44.035  50.557  1.00  0.00     0.050 C 
HETATM   11  C   UNL     1      28.222  40.481  50.769  1.00  0.00     0.069 A 
HETATM   12  C   UNL     1      28.665  40.391  52.080  1.00  0.00     0.039 A 
HETATM   13  C   UNL     1      28.520  41.485  52.937  1.00  0.00     0.033 A 
BRANCH  11  14
HETATM   14  O   UNL     1      28.312  39.499  49.823  1.00  0.00    -0.351 OA
BRANCH  14  15
HETATM   15  C   UNL     1      29.040  38.327  50.188  1.00  0.00     0.171 C 
HETATM   16  C   UNL     1      30.174  38.149  49.195  1.00  0.00     0.034 C 
ENDBRANCH  14  15
ENDBRANCH  11  14
ENDBRANCH   1   7
BRANCH   3  17
HETATM   17  C   UNL     1      28.462  46.093  54.928  1.00  0.00     0.183 C 
BRANCH  17  18
HETATM   18  C   UNL     1      29.280  45.660  56.126  1.00  0.00     0.053 A 
HETATM   19  N   UNL     1      29.030  46.296  57.305  1.00  0.00    -0.264 NA
HETATM   20  C   UNL     1      29.793  45.963  58.370  1.00  0.00     0.118 A 
HETATM   21  C   UNL     1      30.794  45.013  58.330  1.00  0.00     0.043 A 
HETATM   22  C   UNL     1      31.022  44.375  57.120  1.00  0.00     0.037 A 
HETATM   23 CL   UNL     1      32.254  43.179  57.007  1.00  0.00    -0.084 Cl
HETATM   24  C   UNL     1      30.271  44.696  55.996  1.00  0.00     0.052 A 
ENDBRANCH  17  18
ENDBRANCH   3  17
TORSDOF 5
ENDMDL
MODEL 6
REMARK VINA RESULT:      -7.4      4.993      8.013
REMARK  5 active torsions:
REMARK  status: ('A' for Active; 'I' for Inactive)
REMARK    1  A    between atoms: C_2  and  O_3 
REMARK    2  A    between atoms: O_3  and  C_4 
REMARK    3  A    between atoms: C_8  and  N_9 
REMARK       I    between atoms: N_9  and  C_10 
REMARK       I    between atoms: C_10  and  N_11 
REMARK    4  A    between atoms: N_11  and  C_12 
REMARK    5  A    between atoms: C_12  and  C_13 
ROOT
HETATM    1  N   UNL     1      27.573  43.082  51.609  1.00  0.00    -0.309 N 
HETATM    2  C   UNL     1      27.316  43.593  50.371  1.00  0.00     0.321 C 
HETATM    3  N   UNL     1      26.780  42.701  49.480  1.00  0.00    -0.337 N 
HETATM    4  O   UNL     1      27.522  44.734  49.976  1.00  0.00    -0.247 OA
HETATM    5  H   UNL     1      27.810  42.093  51.572  1.00  0.00     0.170 HD
HETATM    6  H   UNL     1      26.606  43.114  48.573  1.00  0.00     0.164 HD
ENDROOT
BRANCH   1   7
HETATM    7  C   UNL     1      27.914  43.724  52.820  1.00  0.00     0.042 A 
HETATM    8  C   UNL     1      29.107  43.590  53.548  1.00  0.00    -0.033 A 
HETATM    9  C   UNL     1      29.261  44.340  54.737  1.00  0.00     0.045 A 
HETATM   10  C   UNL     1      30.266  42.721  53.154  1.00  0.00     0.050 C 
HETATM   11  C   UNL     1      28.296  45.251  55.174  1.00  0.00     0.069 A 
HETATM   12  C   UNL     1      27.130  45.396  54.438  1.00  0.00     0.039 A 
HETATM   13  C   UNL     1      26.948  44.643  53.275  1.00  0.00     0.033 A 
BRANCH  11  14
HETATM   14  O   UNL     1      28.612  45.929  56.318  1.00  0.00    -0.351 OA
BRANCH  14  15
HETATM   15  C   UNL     1      29.984  45.911  56.711  1.00  0.00     0.171 C 
HETATM   16  C   UNL     1      30.042  45.653  58.207  1.00  0.00     0.034 C 
ENDBRANCH  14  15
ENDBRANCH  11  14
ENDBRANCH   1   7
BRANCH   3  17
HETATM   17  C   UNL     1      26.305  41.355  49.742  1.00  0.00     0.183 C 
BRANCH  17  18
HETATM   18  C   UNL     1      27.308  40.306  49.315  1.00  0.00     0.053 A 
HETATM   19  N   UNL     1      27.294  39.938  48.003  1.00  0.00    -0.264 NA
HETATM   20  C   UNL     1      28.145  38.960  47.617  1.00  0.00     0.118 A 
HETATM   21  C   UNL     1      29.026  38.329  48.472  1.00  0.00     0.043 A 
HETATM   22  C   UNL     1      29.026  38.728  49.801  1.00  0.00     0.037 A 
HETATM   23 CL   UNL     1      30.104  37.981  50.914  1.00  0.00    -0.084 Cl
HETATM   24  C   UNL     1      28.159  39.720  50.243  1.00  0.00     0.052 A 
ENDBRANCH  17  18
ENDBRANCH   3  17
TORSDOF 5
ENDMDL
MODEL 7
REMARK VINA RESULT:      -7.3      3.118      8.050
REMARK  5 active torsions:
REMARK  status: ('A' for Active; 'I' for Inactive)
REMARK    1  A    between atoms: C_2  and  O_3 
REMARK    2  A    between atoms: O_3  and  C_4 
REMARK    3  A    between atoms: C_8  and  N_9 
REMARK       I    between atoms: N_9  and  C_10 
REMARK       I    between atoms: C_10  and  N_11 
REMARK    4  A    between atoms: N_11  and  C_12 
REMARK    5  A    between atoms: C_12  and  C_13 
ROOT
HETATM    1  N   UNL     1      26.174  45.425  52.270  1.00  0.00    -0.309 N 
HETATM    2  C   UNL     1      26.481  45.034  51.000  1.00  0.00     0.321 C 
HETATM    3  N   UNL     1      25.503  45.274  50.071  1.00  0.00    -0.337 N 
HETATM    4  O   UNL     1      27.508  44.491  50.612  1.00  0.00    -0.247 OA
HETATM    5  H   UNL     1      25.176  45.362  52.457  1.00  0.00     0.170 HD
HETATM    6  H   UNL     1      25.764  44.970  49.143  1.00  0.00     0.164 HD
ENDROOT
BRANCH   1   7
HETATM    7  C   UNL     1      26.983  45.536  53.422  1.00  0.00     0.042 A 
HETATM    8  C   UNL     1      27.625  44.498  54.115  1.00  0.00    -0.033 A 
HETATM    9  C   UNL     1      28.412  44.824  55.245  1.00  0.00     0.045 A 
HETATM   10  C   UNL     1      27.569  43.045  53.741  1.00  0.00     0.050 C 
HETATM   11  C   UNL     1      28.618  46.144  55.653  1.00  0.00     0.069 A 
HETATM   12  C   UNL     1      28.000  47.167  54.949  1.00  0.00     0.039 A 
HETATM   13  C   UNL     1      27.198  46.862  53.847  1.00  0.00     0.033 A 
BRANCH  11  14
HETATM   14  O   UNL     1      29.437  46.296  56.737  1.00  0.00    -0.351 OA
BRANCH  14  15
HETATM   15  C   UNL     1      30.375  45.248  56.979  1.00  0.00     0.171 C 
HETATM   16  C   UNL     1      30.804  45.326  58.433  1.00  0.00     0.034 C 
ENDBRANCH  14  15
ENDBRANCH  11  14
ENDBRANCH   1   7
BRANCH   3  17
HETATM   17  C   UNL     1      24.277  46.033  50.242  1.00  0.00     0.183 C 
BRANCH  17  18
HETATM   18  C   UNL     1      24.353  47.390  49.577  1.00  0.00     0.053 A 
HETATM   19  N   UNL     1      23.196  47.886  49.056  1.00  0.00    -0.264 NA
HETATM   20  C   UNL     1      23.258  49.070  48.406  1.00  0.00     0.118 A 
HETATM   21  C   UNL     1      24.418  49.801  48.254  1.00  0.00     0.043 A 
HETATM   22  C   UNL     1      25.581  49.278  48.800  1.00  0.00     0.037 A 
HETATM   23 CL   UNL     1      27.060  50.145  48.647  1.00  0.00    -0.084 Cl
HETATM   24  C   UNL     1      25.565  48.058  49.465  1.00  0.00     0.052 A 
ENDBRANCH  17  18
ENDBRANCH   3  17
TORSDOF 5
ENDMDL
MODEL 8
REMARK VINA RESULT:      -7.3      4.784      6.218
REMARK  5 active torsions:
REMARK  status: ('A' for Active; 'I' for Inactive)
REMARK    1  A    between atoms: C_2  and  O_3 
REMARK    2  A    between atoms: O_3  and  C_4 
REMARK    3  A    between atoms: C_8  and  N_9 
REMARK       I    between atoms: N_9  and  C_10 
REMARK       I    between atoms: C_10  and  N_11 
REMARK    4  A    between atoms: N_11  and  C_12 
REMARK    5  A    between atoms: C_12  and  C_13 
ROOT
HETATM    1  N   UNL     1      27.703  43.968  53.032  1.00  0.00    -0.309 N 
HETATM    2  C   UNL     1      26.740  44.419  53.886  1.00  0.00     0.321 C 
HETATM    3  N   UNL     1      27.168  45.350  54.796  1.00  0.00    -0.337 N 
HETATM    4  O   UNL     1      25.565  44.078  53.935  1.00  0.00    -0.247 OA
HETATM    5  H   UNL     1      28.626  43.971  53.461  1.00  0.00     0.170 HD
HETATM    6  H   UNL     1      26.429  45.659  55.413  1.00  0.00     0.164 HD
ENDROOT
BRANCH   1   7
HETATM    7  C   UNL     1      27.604  43.193  51.856  1.00  0.00     0.042 A 
HETATM    8  C   UNL     1      28.011  41.861  51.678  1.00  0.00    -0.033 A 
HETATM    9  C   UNL     1      27.805  41.254  50.416  1.00  0.00     0.045 A 
HETATM   10  C   UNL     1      28.636  40.999  52.737  1.00  0.00     0.050 C 
HETATM   11  C   UNL     1      27.158  41.913  49.369  1.00  0.00     0.069 A 
HETATM   12  C   UNL     1      26.736  43.221  49.560  1.00  0.00     0.039 A 
HETATM   13  C   UNL     1      26.956  43.846  50.790  1.00  0.00     0.033 A 
BRANCH  11  14
HETATM   14  O   UNL     1      26.998  41.177  48.228  1.00  0.00    -0.351 OA
BRANCH  14  15
HETATM   15  C   UNL     1      28.187  40.657  47.634  1.00  0.00     0.171 C 
HETATM   16  C   UNL     1      28.156  40.986  46.152  1.00  0.00     0.034 C 
ENDBRANCH  14  15
ENDBRANCH  11  14
ENDBRANCH   1   7
BRANCH   3  17
HETATM   17  C   UNL     1      28.453  46.024  54.846  1.00  0.00     0.183 C 
BRANCH  17  18
HETATM   18  C   UNL     1      29.257  45.622  56.063  1.00  0.00     0.053 A 
HETATM   19  N   UNL     1      28.989  46.283  57.225  1.00  0.00    -0.264 NA
HETATM   20  C   UNL     1      29.739  45.976  58.307  1.00  0.00     0.118 A 
HETATM   21  C   UNL     1      30.744  45.031  58.301  1.00  0.00     0.043 A 
HETATM   22  C   UNL     1      30.992  44.367  57.108  1.00  0.00     0.037 A 
HETATM   23 CL   UNL     1      32.230  43.174  57.038  1.00  0.00    -0.084 Cl
HETATM   24  C   UNL     1      30.254  44.660  55.968  1.00  0.00     0.052 A 
ENDBRANCH  17  18
ENDBRANCH   3  17
TORSDOF 5
ENDMDL
MODEL 9
REMARK VINA RESULT:      -7.2      1.490      2.321
REMARK  5 active torsions:
REMARK  status: ('A' for Active; 'I' for Inactive)
REMARK    1  A    between atoms: C_2  and  O_3 
REMARK    2  A    between atoms: O_3  and  C_4 
REMARK    3  A    between atoms: C_8  and  N_9 
REMARK       I    between atoms: N_9  and  C_10 
REMARK       I    between atoms: C_10  and  N_11 
REMARK    4  A    between atoms: N_11  and  C_12 
REMARK    5  A    between atoms: C_12  and  C_13 
ROOT
HETATM    1  N   UNL     1      26.120  45.888  50.924  1.00  0.00    -0.309 N 
HETATM    2  C   UNL     1      26.957  44.846  50.651  1.00  0.00     0.321 C 
HETATM    3  N   UNL     1      27.551  44.283  51.749  1.00  0.00    -0.337 N 
HETATM    4  O   UNL     1      27.239  44.382  49.554  1.00  0.00    -0.247 OA
HETATM    5  H   UNL     1      26.412  46.407  51.749  1.00  0.00     0.170 HD
HETATM    6  H   UNL     1      28.166  43.517  51.509  1.00  0.00     0.164 HD
ENDROOT
BRANCH   1   7
HETATM    7  C   UNL     1      25.190  46.563  50.103  1.00  0.00     0.042 A 
HETATM    8  C   UNL     1      23.976  46.065  49.603  1.00  0.00    -0.033 A 
HETATM    9  C   UNL     1      23.173  46.915  48.807  1.00  0.00     0.045 A 
HETATM   10  C   UNL     1      23.434  44.689  49.865  1.00  0.00     0.050 C 
HETATM   11  C   UNL     1      23.517  48.245  48.555  1.00  0.00     0.069 A 
HETATM   12  C   UNL     1      24.706  48.738  49.072  1.00  0.00     0.039 A 
HETATM   13  C   UNL     1      25.526  47.905  49.838  1.00  0.00     0.033 A 
BRANCH  11  14
HETATM   14  O   UNL     1      22.617  48.947  47.804  1.00  0.00    -0.351 OA
BRANCH  14  15
HETATM   15  C   UNL     1      21.531  49.549  48.510  1.00  0.00     0.171 C 
HETATM   16  C   UNL     1      21.783  51.045  48.573  1.00  0.00     0.034 C 
ENDBRANCH  14  15
ENDBRANCH  11  14
ENDBRANCH   1   7
BRANCH   3  17
HETATM   17  C   UNL     1      27.270  44.545  53.149  1.00  0.00     0.183 C 
BRANCH  17  18
HETATM   18  C   UNL     1      28.498  44.376  54.016  1.00  0.00     0.053 A 
HETATM   19  N   UNL     1      29.350  43.365  53.688  1.00  0.00    -0.264 NA
HETATM   20  C   UNL     1      30.422  43.164  54.487  1.00  0.00     0.118 A 
HETATM   21  C   UNL     1      30.702  43.930  55.601  1.00  0.00     0.043 A 
HETATM   22  C   UNL     1      29.824  44.958  55.909  1.00  0.00     0.037 A 
HETATM   23 CL   UNL     1      30.121  45.950  57.283  1.00  0.00    -0.084 Cl
HETATM   24  C   UNL     1      28.703  45.192  55.122  1.00  0.00     0.052 A 
ENDBRANCH  17  18
ENDBRANCH   3  17
TORSDOF 5
ENDMDL
MODEL 10
REMARK VINA RESULT:      -7.2      4.536      8.426
REMARK  5 active torsions:
REMARK  status: ('A' for Active; 'I' for Inactive)
REMARK    1  A    between atoms: C_2  and  O_3 
REMARK    2  A    between atoms: O_3  and  C_4 
REMARK    3  A    between atoms: C_8  and  N_9 
REMARK       I    between atoms: N_9  and  C_10 
REMARK       I    between atoms: C_10  and  N_11 
REMARK    4  A    between atoms: N_11  and  C_12 
REMARK    5  A    between atoms: C_12  and  C_13 
ROOT
HETATM    1  N   UNL     1      26.940  44.516  52.819  1.00  0.00    -0.309 N 
HETATM    2  C   UNL     1      25.621  44.259  53.051  1.00  0.00     0.321 C 
HETATM    3  N   UNL     1      24.814  44.359  51.948  1.00  0.00    -0.337 N 
HETATM    4  O   UNL     1      25.091  43.972  54.117  1.00  0.00    -0.247 OA
HETATM    5  H   UNL     1      27.073  45.190  52.069  1.00  0.00     0.170 HD
HETATM    6  H   UNL     1      23.843  44.165  52.158  1.00  0.00     0.164 HD
ENDROOT
BRANCH   1   7
HETATM    7  C   UNL     1      28.076  44.311  53.633  1.00  0.00     0.042 A 
HETATM    8  C   UNL     1      29.021  43.277  53.533  1.00  0.00    -0.033 A 
HETATM    9  C   UNL     1      30.105  43.261  54.441  1.00  0.00     0.045 A 
HETATM   10  C   UNL     1      28.993  42.178  52.510  1.00  0.00     0.050 C 
HETATM   11  C   UNL     1      30.299  44.269  55.388  1.00  0.00     0.069 A 
HETATM   12  C   UNL     1      29.375  45.301  55.466  1.00  0.00     0.039 A 
HETATM   13  C   UNL     1      28.283  45.319  54.595  1.00  0.00     0.033 A 
BRANCH  11  14
HETATM   14  O   UNL     1      31.416  44.133  56.164  1.00  0.00    -0.351 OA
BRANCH  14  15
HETATM   15  C   UNL     1      31.210  43.692  57.505  1.00  0.00     0.171 C 
HETATM   16  C   UNL     1      31.111  44.920  58.394  1.00  0.00     0.034 C 
ENDBRANCH  14  15
ENDBRANCH  11  14
ENDBRANCH   1   7
BRANCH   3  17
HETATM   17  C   UNL     1      25.212  44.531  50.563  1.00  0.00     0.183 C 
BRANCH  17  18
HETATM   18  C   UNL     1      25.380  43.205  49.853  1.00  0.00     0.053 A 
HETATM   19  N   UNL     1      24.242  42.570  49.456  1.00  0.00    -0.264 NA
HETATM   20  C   UNL     1      24.371  41.357  48.872  1.00  0.00     0.118 A 
HETATM   21  C   UNL     1      25.585  40.740  48.649  1.00  0.00     0.043 A 
HETATM   22  C   UNL     1      26.730  41.411  49.055  1.00  0.00     0.037 A 
HETATM   23 CL   UNL     1      28.273  40.694  48.800  1.00  0.00    -0.084 Cl
HETATM   24  C   UNL     1      26.642  42.653  49.670  1.00  0.00     0.052 A 
ENDBRANCH  17  18
ENDBRANCH   3  17
TORSDOF 5
ENDMDL
