MODEL 1
REMARK VINA RESULT:      -8.4      0.000      0.000
REMARK  8 active torsions:
REMARK  status: ('A' for Active; 'I' for Inactive)
REMARK    1  A    between atoms: C_2  and  N_3 
REMARK    2  A    between atoms: C_2  and  C_17 
REMARK    3  A    between atoms: N_3  and  C_6 
REMARK    4  A    between atoms: C_6  and  C_7 
REMARK    5  A    between atoms: C_7  and  O_8 
REMARK    6  A    between atoms: C_7  and  C_9 
REMARK    7  A    between atoms: C_11  and  O_12 
REMARK    8  A    between atoms: C_17  and  C_18 
ROOT
HETATM    1  N   UNL     1      25.450  45.176  52.355  1.00  0.00    -0.068 N 
HETATM    2  H   UNL     1      25.759  44.622  51.543  1.00  0.00     0.277 HD
HETATM    3  H   UNL     1      24.438  44.970  52.442  1.00  0.00     0.277 HD
ENDROOT
BRANCH   1   4
HETATM    4  C   UNL     1      26.228  44.754  53.576  1.00  0.00     0.188 C 
HETATM    5  C   UNL     1      25.202  44.291  54.614  1.00  0.00     0.040 C 
BRANCH   4   6
HETATM    6  C   UNL     1      27.089  45.918  54.102  1.00  0.00     0.099 C 
BRANCH   6   7
HETATM    7  C   UNL     1      28.236  45.421  54.927  1.00  0.00     0.078 A 
HETATM    8  S   UNL     1      29.100  44.021  54.451  1.00  0.00    -0.073 SA
HETATM    9  C   UNL     1      30.106  44.168  55.842  1.00  0.00     0.035 A 
HETATM   10  C   UNL     1      29.703  45.286  56.577  1.00  0.00     0.074 A 
HETATM   11  C   UNL     1      31.174  43.355  56.253  1.00  0.00     0.021 A 
HETATM   12  N   UNL     1      28.627  45.987  56.045  1.00  0.00    -0.245 NA
HETATM   13  C   UNL     1      30.395  45.605  57.762  1.00  0.00     0.033 A 
HETATM   14  C   UNL     1      31.462  44.803  58.180  1.00  0.00     0.002 A 
HETATM   15  C   UNL     1      31.844  43.692  57.434  1.00  0.00     0.002 A 
ENDBRANCH   6   7
ENDBRANCH   4   6
ENDBRANCH   1   4
BRANCH   1  16
HETATM   16  C   UNL     1      25.544  46.631  51.952  1.00  0.00     0.269 C 
BRANCH  16  17
HETATM   17  C   UNL     1      24.752  46.823  50.638  1.00  0.00     0.177 C 
BRANCH  17  18
HETATM   18  O   UNL     1      24.755  45.556  49.962  1.00  0.00    -0.389 OA
HETATM   19  H   UNL     1      25.696  45.335  49.799  1.00  0.00     0.210 HD
ENDBRANCH  17  18
BRANCH  17  20
HETATM   20  C   UNL     1      25.362  47.898  49.765  1.00  0.00    -0.025 A 
HETATM   21  C   UNL     1      24.515  48.729  49.007  1.00  0.00     0.046 A 
HETATM   22  C   UNL     1      25.037  49.759  48.222  1.00  0.00     0.068 A 
HETATM   23  C   UNL     1      26.415  49.976  48.208  1.00  0.00     0.037 A 
HETATM   24  C   UNL     1      27.269  49.157  48.943  1.00  0.00     0.003 A 
HETATM   25  C   UNL     1      26.749  48.120  49.715  1.00  0.00     0.010 A 
BRANCH  22  26
HETATM   26  O   UNL     1      24.314  50.627  47.455  1.00  0.00    -0.356 OA
HETATM   27  C   UNL     1      23.057  51.056  47.965  1.00  0.00     0.210 C 
ENDBRANCH  22  26
ENDBRANCH  17  20
ENDBRANCH  16  17
ENDBRANCH   1  16
TORSDOF 8
ENDMDL
MODEL 2
REMARK VINA RESULT:      -8.3      1.924      2.512
REMARK  8 active torsions:
REMARK  status: ('A' for Active; 'I' for Inactive)
REMARK    1  A    between atoms: C_2  and  N_3 
REMARK    2  A    between atoms: C_2  and  C_17 
REMARK    3  A    between atoms: N_3  and  C_6 
REMARK    4  A    between atoms: C_6  and  C_7 
REMARK    5  A    between atoms: C_7  and  O_8 
REMARK    6  A    between atoms: C_7  and  C_9 
REMARK    7  A    between atoms: C_11  and  O_12 
REMARK    8  A    between atoms: C_17  and  C_18 
ROOT
HETATM    1  N   UNL     1      26.970  45.010  50.015  1.00  0.00    -0.068 N 
HETATM    2  H   UNL     1      27.653  45.600  50.512  1.00  0.00     0.277 HD
HETATM    3  H   UNL     1      27.213  45.116  49.013  1.00  0.00     0.277 HD
ENDROOT
BRANCH   1   4
HETATM    4  C   UNL     1      27.099  43.583  50.488  1.00  0.00     0.188 C 
HETATM    5  C   UNL     1      26.389  42.710  49.449  1.00  0.00     0.040 C 
BRANCH   4   6
HETATM    6  C   UNL     1      26.483  43.418  51.890  1.00  0.00     0.099 C 
BRANCH   6   7
HETATM    7  C   UNL     1      27.447  43.827  52.962  1.00  0.00     0.078 A 
HETATM    8  S   UNL     1      27.208  45.287  53.826  1.00  0.00    -0.073 SA
HETATM    9  C   UNL     1      28.643  44.987  54.730  1.00  0.00     0.035 A 
HETATM   10  C   UNL     1      29.206  43.783  54.300  1.00  0.00     0.074 A 
HETATM   11  C   UNL     1      29.229  45.759  55.746  1.00  0.00     0.021 A 
HETATM   12  N   UNL     1      28.515  43.136  53.283  1.00  0.00    -0.245 NA
HETATM   13  C   UNL     1      30.394  43.332  54.910  1.00  0.00     0.033 A 
HETATM   14  C   UNL     1      30.984  44.093  55.925  1.00  0.00     0.002 A 
HETATM   15  C   UNL     1      30.408  45.290  56.335  1.00  0.00     0.002 A 
ENDBRANCH   6   7
ENDBRANCH   4   6
ENDBRANCH   1   4
BRANCH   1  16
HETATM   16  C   UNL     1      25.619  45.669  50.186  1.00  0.00     0.269 C 
BRANCH  16  17
HETATM   17  C   UNL     1      25.833  47.052  50.843  1.00  0.00     0.177 C 
BRANCH  17  18
HETATM   18  O   UNL     1      24.674  47.313  51.650  1.00  0.00    -0.389 OA
HETATM   19  H   UNL     1      24.786  46.785  52.468  1.00  0.00     0.210 HD
ENDBRANCH  17  18
BRANCH  17  20
HETATM   20  C   UNL     1      26.025  48.142  49.811  1.00  0.00    -0.025 A 
HETATM   21  C   UNL     1      24.905  48.621  49.104  1.00  0.00     0.046 A 
HETATM   22  C   UNL     1      25.035  49.656  48.175  1.00  0.00     0.068 A 
HETATM   23  C   UNL     1      26.288  50.229  47.962  1.00  0.00     0.037 A 
HETATM   24  C   UNL     1      27.408  49.760  48.644  1.00  0.00     0.003 A 
HETATM   25  C   UNL     1      27.281  48.719  49.561  1.00  0.00     0.010 A 
BRANCH  22  26
HETATM   26  O   UNL     1      24.023  50.203  47.439  1.00  0.00    -0.356 OA
HETATM   27  C   UNL     1      22.692  49.869  47.813  1.00  0.00     0.210 C 
ENDBRANCH  22  26
ENDBRANCH  17  20
ENDBRANCH  16  17
ENDBRANCH   1  16
TORSDOF 8
ENDMDL
MODEL 3
REMARK VINA RESULT:      -8.3      2.930      4.193
REMARK  8 active torsions:
REMARK  status: ('A' for Active; 'I' for Inactive)
REMARK    1  A    between atoms: C_2  and  N_3 
REMARK    2  A    between atoms: C_2  and  C_17 
REMARK    3  A    between atoms: N_3  and  C_6 
REMARK    4  A    between atoms: C_6  and  C_7 
REMARK    5  A    between atoms: C_7  and  O_8 
REMARK    6  A    between atoms: C_7  and  C_9 
REMARK    7  A    between atoms: C_11  and  O_12 
REMARK    8  A    between atoms: C_17  and  C_18 
ROOT
HETATM    1  N   UNL     1      28.688  41.175  51.277  1.00  0.00    -0.068 N 
HETATM    2  H   UNL     1      28.937  41.871  50.560  1.00  0.00     0.277 HD
HETATM    3  H   UNL     1      29.192  40.315  50.994  1.00  0.00     0.277 HD
ENDROOT
BRANCH   1   4
HETATM    4  C   UNL     1      29.122  41.674  52.633  1.00  0.00     0.188 C 
HETATM    5  C   UNL     1      28.000  41.318  53.612  1.00  0.00     0.040 C 
BRANCH   4   6
HETATM    6  C   UNL     1      29.388  43.191  52.595  1.00  0.00     0.099 C 
BRANCH   6   7
HETATM    7  C   UNL     1      29.647  43.735  53.967  1.00  0.00     0.078 A 
HETATM    8  S   UNL     1      28.682  45.007  54.587  1.00  0.00    -0.073 SA
HETATM    9  C   UNL     1      29.608  45.001  56.040  1.00  0.00     0.035 A 
HETATM   10  C   UNL     1      30.597  44.019  55.943  1.00  0.00     0.074 A 
HETATM   11  C   UNL     1      29.470  45.805  57.183  1.00  0.00     0.021 A 
HETATM   12  N   UNL     1      30.612  43.310  54.748  1.00  0.00    -0.245 NA
HETATM   13  C   UNL     1      31.476  43.831  57.028  1.00  0.00     0.033 A 
HETATM   14  C   UNL     1      31.345  44.625  58.173  1.00  0.00     0.002 A 
HETATM   15  C   UNL     1      30.355  45.599  58.246  1.00  0.00     0.002 A 
ENDBRANCH   6   7
ENDBRANCH   4   6
ENDBRANCH   1   4
BRANCH   1  16
HETATM   16  C   UNL     1      27.216  40.871  51.099  1.00  0.00     0.269 C 
BRANCH  16  17
HETATM   17  C   UNL     1      26.664  41.784  49.980  1.00  0.00     0.177 C 
BRANCH  17  18
HETATM   18  O   UNL     1      27.618  41.750  48.907  1.00  0.00    -0.389 OA
HETATM   19  H   UNL     1      27.220  41.194  48.205  1.00  0.00     0.210 HD
ENDBRANCH  17  18
BRANCH  17  20
HETATM   20  C   UNL     1      26.452  43.202  50.464  1.00  0.00    -0.025 A 
HETATM   21  C   UNL     1      26.905  44.273  49.670  1.00  0.00     0.046 A 
HETATM   22  C   UNL     1      26.689  45.596  50.062  1.00  0.00     0.068 A 
HETATM   23  C   UNL     1      26.001  45.853  51.247  1.00  0.00     0.037 A 
HETATM   24  C   UNL     1      25.557  44.807  52.052  1.00  0.00     0.003 A 
HETATM   25  C   UNL     1      25.784  43.487  51.667  1.00  0.00     0.010 A 
BRANCH  22  26
HETATM   26  O   UNL     1      27.076  46.708  49.371  1.00  0.00    -0.356 OA
HETATM   27  C   UNL     1      26.444  47.938  49.710  1.00  0.00     0.210 C 
ENDBRANCH  22  26
ENDBRANCH  17  20
ENDBRANCH  16  17
ENDBRANCH   1  16
TORSDOF 8
ENDMDL
MODEL 4
REMARK VINA RESULT:      -8.1      1.855      2.360
REMARK  8 active torsions:
REMARK  status: ('A' for Active; 'I' for Inactive)
REMARK    1  A    between atoms: C_2  and  N_3 
REMARK    2  A    between atoms: C_2  and  C_17 
REMARK    3  A    between atoms: N_3  and  C_6 
REMARK    4  A    between atoms: C_6  and  C_7 
REMARK    5  A    between atoms: C_7  and  O_8 
REMARK    6  A    between atoms: C_7  and  C_9 
REMARK    7  A    between atoms: C_11  and  O_12 
REMARK    8  A    between atoms: C_17  and  C_18 
ROOT
HETATM    1  N   UNL     1      26.112  42.922  51.634  1.00  0.00    -0.068 N 
HETATM    2  H   UNL     1      26.914  42.953  50.988  1.00  0.00     0.277 HD
HETATM    3  H   UNL     1      25.920  41.912  51.765  1.00  0.00     0.277 HD
ENDROOT
BRANCH   1   4
HETATM    4  C   UNL     1      26.479  43.609  52.926  1.00  0.00     0.188 C 
HETATM    5  C   UNL     1      25.264  44.442  53.341  1.00  0.00     0.040 C 
BRANCH   4   6
HETATM    6  C   UNL     1      27.735  44.482  52.740  1.00  0.00     0.099 C 
BRANCH   6   7
HETATM    7  C   UNL     1      28.564  44.521  53.988  1.00  0.00     0.078 A 
HETATM    8  S   UNL     1      28.350  45.781  55.128  1.00  0.00    -0.073 SA
HETATM    9  C   UNL     1      29.595  45.105  56.108  1.00  0.00     0.035 A 
HETATM   10  C   UNL     1      30.089  43.956  55.485  1.00  0.00     0.074 A 
HETATM   11  C   UNL     1      30.099  45.557  57.338  1.00  0.00     0.021 A 
HETATM   12  N   UNL     1      29.495  43.640  54.269  1.00  0.00    -0.245 NA
HETATM   13  C   UNL     1      31.119  43.230  56.116  1.00  0.00     0.033 A 
HETATM   14  C   UNL     1      31.626  43.670  57.344  1.00  0.00     0.002 A 
HETATM   15  C   UNL     1      31.122  44.819  57.944  1.00  0.00     0.002 A 
ENDBRANCH   6   7
ENDBRANCH   4   6
ENDBRANCH   1   4
BRANCH   1  16
HETATM   16  C   UNL     1      24.923  43.475  50.878  1.00  0.00     0.269 C 
BRANCH  16  17
HETATM   17  C   UNL     1      25.420  44.009  49.515  1.00  0.00     0.177 C 
BRANCH  17  18
HETATM   18  O   UNL     1      26.644  43.318  49.220  1.00  0.00    -0.389 OA
HETATM   19  H   UNL     1      26.630  43.136  48.257  1.00  0.00     0.210 HD
ENDBRANCH  17  18
BRANCH  17  20
HETATM   20  C   UNL     1      25.641  45.505  49.543  1.00  0.00    -0.025 A 
HETATM   21  C   UNL     1      24.526  46.362  49.618  1.00  0.00     0.046 A 
HETATM   22  C   UNL     1      24.691  47.747  49.689  1.00  0.00     0.068 A 
HETATM   23  C   UNL     1      25.979  48.281  49.703  1.00  0.00     0.037 A 
HETATM   24  C   UNL     1      27.093  47.450  49.618  1.00  0.00     0.003 A 
HETATM   25  C   UNL     1      26.928  46.069  49.533  1.00  0.00     0.010 A 
BRANCH  22  26
HETATM   26  O   UNL     1      23.688  48.670  49.772  1.00  0.00    -0.356 OA
HETATM   27  C   UNL     1      22.447  48.340  49.159  1.00  0.00     0.210 C 
ENDBRANCH  22  26
ENDBRANCH  17  20
ENDBRANCH  16  17
ENDBRANCH   1  16
TORSDOF 8
ENDMDL
MODEL 5
REMARK VINA RESULT:      -8.0     12.864     15.099
REMARK  8 active torsions:
REMARK  status: ('A' for Active; 'I' for Inactive)
REMARK    1  A    between atoms: C_2  and  N_3 
REMARK    2  A    between atoms: C_2  and  C_17 
REMARK    3  A    between atoms: N_3  and  C_6 
REMARK    4  A    between atoms: C_6  and  C_7 
REMARK    5  A    between atoms: C_7  and  O_8 
REMARK    6  A    between atoms: C_7  and  C_9 
REMARK    7  A    between atoms: C_11  and  O_12 
REMARK    8  A    between atoms: C_17  and  C_18 
ROOT
HETATM    1  N   UNL     1      27.450  48.342  38.706  1.00  0.00    -0.068 N 
HETATM    2  H   UNL     1      26.967  47.615  38.159  1.00  0.00     0.277 HD
HETATM    3  H   UNL     1      28.267  48.607  38.126  1.00  0.00     0.277 HD
ENDROOT
BRANCH   1   4
HETATM    4  C   UNL     1      26.513  49.500  38.942  1.00  0.00     0.188 C 
HETATM    5  C   UNL     1      25.125  49.042  38.486  1.00  0.00     0.040 C 
BRANCH   4   6
HETATM    6  C   UNL     1      26.985  50.748  38.171  1.00  0.00     0.099 C 
BRANCH   6   7
HETATM    7  C   UNL     1      28.381  51.133  38.557  1.00  0.00     0.078 A 
HETATM    8  S   UNL     1      28.648  52.265  39.815  1.00  0.00    -0.073 SA
HETATM    9  C   UNL     1      30.348  52.131  39.574  1.00  0.00     0.035 A 
HETATM   10  C   UNL     1      30.590  51.224  38.539  1.00  0.00     0.074 A 
HETATM   11  C   UNL     1      31.393  52.780  40.251  1.00  0.00     0.021 A 
HETATM   12  N   UNL     1      29.454  50.669  37.962  1.00  0.00    -0.245 NA
HETATM   13  C   UNL     1      31.922  50.952  38.170  1.00  0.00     0.033 A 
HETATM   14  C   UNL     1      32.971  51.592  38.841  1.00  0.00     0.002 A 
HETATM   15  C   UNL     1      32.707  52.494  39.866  1.00  0.00     0.002 A 
ENDBRANCH   6   7
ENDBRANCH   4   6
ENDBRANCH   1   4
BRANCH   1  16
HETATM   16  C   UNL     1      28.017  47.659  39.932  1.00  0.00     0.269 C 
BRANCH  16  17
HETATM   17  C   UNL     1      29.508  47.346  39.668  1.00  0.00     0.177 C 
BRANCH  17  18
HETATM   18  O   UNL     1      29.673  45.931  39.849  1.00  0.00    -0.389 OA
HETATM   19  H   UNL     1      30.541  45.704  39.453  1.00  0.00     0.210 HD
ENDBRANCH  17  18
BRANCH  17  20
HETATM   20  C   UNL     1      30.418  48.117  40.598  1.00  0.00    -0.025 A 
HETATM   21  C   UNL     1      31.813  47.982  40.459  1.00  0.00     0.046 A 
HETATM   22  C   UNL     1      32.687  48.709  41.271  1.00  0.00     0.068 A 
HETATM   23  C   UNL     1      32.166  49.591  42.216  1.00  0.00     0.037 A 
HETATM   24  C   UNL     1      30.789  49.729  42.375  1.00  0.00     0.003 A 
HETATM   25  C   UNL     1      29.918  48.994  41.575  1.00  0.00     0.010 A 
BRANCH  22  26
HETATM   26  O   UNL     1      34.051  48.663  41.221  1.00  0.00    -0.356 OA
HETATM   27  C   UNL     1      34.757  49.826  41.638  1.00  0.00     0.210 C 
ENDBRANCH  22  26
ENDBRANCH  17  20
ENDBRANCH  16  17
ENDBRANCH   1  16
TORSDOF 8
ENDMDL
MODEL 6
REMARK VINA RESULT:      -8.0     12.240     14.374
REMARK  8 active torsions:
REMARK  status: ('A' for Active; 'I' for Inactive)
REMARK    1  A    between atoms: C_2  and  N_3 
REMARK    2  A    between atoms: C_2  and  C_17 
REMARK    3  A    between atoms: N_3  and  C_6 
REMARK    4  A    between atoms: C_6  and  C_7 
REMARK    5  A    between atoms: C_7  and  O_8 
REMARK    6  A    between atoms: C_7  and  C_9 
REMARK    7  A    between atoms: C_11  and  O_12 
REMARK    8  A    between atoms: C_17  and  C_18 
ROOT
HETATM    1  N   UNL     1      33.497  50.877  39.219  1.00  0.00    -0.068 N 
HETATM    2  H   UNL     1      34.177  50.719  38.461  1.00  0.00     0.277 HD
HETATM    3  H   UNL     1      32.968  49.989  39.286  1.00  0.00     0.277 HD
ENDROOT
BRANCH   1   4
HETATM    4  C   UNL     1      34.234  51.204  40.494  1.00  0.00     0.188 C 
HETATM    5  C   UNL     1      35.710  51.366  40.119  1.00  0.00     0.040 C 
BRANCH   4   6
HETATM    6  C   UNL     1      34.029  50.093  41.541  1.00  0.00     0.099 C 
BRANCH   6   7
HETATM    7  C   UNL     1      32.648  49.516  41.463  1.00  0.00     0.078 A 
HETATM    8  S   UNL     1      31.450  49.989  42.591  1.00  0.00    -0.073 SA
HETATM    9  C   UNL     1      30.322  48.926  41.840  1.00  0.00     0.035 A 
HETATM   10  C   UNL     1      30.951  48.279  40.773  1.00  0.00     0.074 A 
HETATM   11  C   UNL     1      28.979  48.681  42.169  1.00  0.00     0.021 A 
HETATM   12  N   UNL     1      32.283  48.621  40.576  1.00  0.00    -0.245 NA
HETATM   13  C   UNL     1      30.210  47.359  40.004  1.00  0.00     0.033 A 
HETATM   14  C   UNL     1      28.870  47.110  40.322  1.00  0.00     0.002 A 
HETATM   15  C   UNL     1      28.266  47.763  41.391  1.00  0.00     0.002 A 
ENDBRANCH   6   7
ENDBRANCH   4   6
ENDBRANCH   1   4
BRANCH   1  16
HETATM   16  C   UNL     1      32.513  51.909  38.714  1.00  0.00     0.269 C 
BRANCH  16  17
HETATM   17  C   UNL     1      31.257  51.170  38.196  1.00  0.00     0.177 C 
BRANCH  17  18
HETATM   18  O   UNL     1      31.042  51.612  36.846  1.00  0.00    -0.389 OA
HETATM   19  H   UNL     1      30.911  50.802  36.311  1.00  0.00     0.210 HD
ENDBRANCH  17  18
BRANCH  17  20
HETATM   20  C   UNL     1      30.043  51.454  39.053  1.00  0.00    -0.025 A 
HETATM   21  C   UNL     1      28.858  50.727  38.825  1.00  0.00     0.046 A 
HETATM   22  C   UNL     1      27.730  50.930  39.623  1.00  0.00     0.068 A 
HETATM   23  C   UNL     1      27.789  51.851  40.668  1.00  0.00     0.037 A 
HETATM   24  C   UNL     1      28.949  52.586  40.902  1.00  0.00     0.003 A 
HETATM   25  C   UNL     1      30.070  52.394  40.097  1.00  0.00     0.010 A 
BRANCH  22  26
HETATM   26  O   UNL     1      26.535  50.282  39.498  1.00  0.00    -0.356 OA
HETATM   27  C   UNL     1      26.267  49.642  38.256  1.00  0.00     0.210 C 
ENDBRANCH  22  26
ENDBRANCH  17  20
ENDBRANCH  16  17
ENDBRANCH   1  16
TORSDOF 8
ENDMDL
MODEL 7
REMARK VINA RESULT:      -7.9      3.428      9.024
REMARK  8 active torsions:
REMARK  status: ('A' for Active; 'I' for Inactive)
REMARK    1  A    between atoms: C_2  and  N_3 
REMARK    2  A    between atoms: C_2  and  C_17 
REMARK    3  A    between atoms: N_3  and  C_6 
REMARK    4  A    between atoms: C_6  and  C_7 
REMARK    5  A    between atoms: C_7  and  O_8 
REMARK    6  A    between atoms: C_7  and  C_9 
REMARK    7  A    between atoms: C_11  and  O_12 
REMARK    8  A    between atoms: C_17  and  C_18 
ROOT
HETATM    1  N   UNL     1      26.289  43.947  51.953  1.00  0.00    -0.068 N 
HETATM    2  H   UNL     1      26.042  44.320  52.881  1.00  0.00     0.277 HD
HETATM    3  H   UNL     1      25.904  42.985  51.946  1.00  0.00     0.277 HD
ENDROOT
BRANCH   1   4
HETATM    4  C   UNL     1      25.678  44.817  50.883  1.00  0.00     0.188 C 
HETATM    5  C   UNL     1      25.883  44.088  49.553  1.00  0.00     0.040 C 
BRANCH   4   6
HETATM    6  C   UNL     1      26.331  46.212  50.877  1.00  0.00     0.099 C 
BRANCH   6   7
HETATM    7  C   UNL     1      25.495  47.205  50.128  1.00  0.00     0.078 A 
HETATM    8  S   UNL     1      26.233  48.530  49.333  1.00  0.00    -0.073 SA
HETATM    9  C   UNL     1      24.685  49.085  48.821  1.00  0.00     0.035 A 
HETATM   10  C   UNL     1      23.707  48.210  49.301  1.00  0.00     0.074 A 
HETATM   11  C   UNL     1      24.357  50.213  48.051  1.00  0.00     0.021 A 
HETATM   12  N   UNL     1      24.186  47.144  50.054  1.00  0.00    -0.245 NA
HETATM   13  C   UNL     1      22.356  48.467  48.997  1.00  0.00     0.033 A 
HETATM   14  C   UNL     1      22.019  49.586  48.228  1.00  0.00     0.002 A 
HETATM   15  C   UNL     1      23.008  50.446  47.763  1.00  0.00     0.002 A 
ENDBRANCH   6   7
ENDBRANCH   4   6
ENDBRANCH   1   4
BRANCH   1  16
HETATM   16  C   UNL     1      27.794  43.792  51.932  1.00  0.00     0.269 C 
BRANCH  16  17
HETATM   17  C   UNL     1      28.197  42.805  53.053  1.00  0.00     0.177 C 
BRANCH  17  18
HETATM   18  O   UNL     1      26.977  42.303  53.621  1.00  0.00    -0.389 OA
HETATM   19  H   UNL     1      26.250  42.661  53.070  1.00  0.00     0.210 HD
ENDBRANCH  17  18
BRANCH  17  20
HETATM   20  C   UNL     1      29.047  43.472  54.111  1.00  0.00    -0.025 A 
HETATM   21  C   UNL     1      28.559  44.624  54.758  1.00  0.00     0.046 A 
HETATM   22  C   UNL     1      29.296  45.243  55.770  1.00  0.00     0.068 A 
HETATM   23  C   UNL     1      30.522  44.699  56.152  1.00  0.00     0.037 A 
HETATM   24  C   UNL     1      31.026  43.568  55.516  1.00  0.00     0.003 A 
HETATM   25  C   UNL     1      30.297  42.958  54.497  1.00  0.00     0.010 A 
BRANCH  22  26
HETATM   26  O   UNL     1      28.921  46.355  56.468  1.00  0.00    -0.356 OA
HETATM   27  C   UNL     1      28.744  46.213  57.873  1.00  0.00     0.210 C 
ENDBRANCH  22  26
ENDBRANCH  17  20
ENDBRANCH  16  17
ENDBRANCH   1  16
TORSDOF 8
ENDMDL
MODEL 8
REMARK VINA RESULT:      -7.8     12.202     14.772
REMARK  8 active torsions:
REMARK  status: ('A' for Active; 'I' for Inactive)
REMARK    1  A    between atoms: C_2  and  N_3 
REMARK    2  A    between atoms: C_2  and  C_17 
REMARK    3  A    between atoms: N_3  and  C_6 
REMARK    4  A    between atoms: C_6  and  C_7 
REMARK    5  A    between atoms: C_7  and  O_8 
REMARK    6  A    between atoms: C_7  and  C_9 
REMARK    7  A    between atoms: C_11  and  O_12 
REMARK    8  A    between atoms: C_17  and  C_18 
ROOT
HETATM    1  N   UNL     1      27.946  48.683  39.426  1.00  0.00    -0.068 N 
HETATM    2  H   UNL     1      28.433  48.125  38.710  1.00  0.00     0.277 HD
HETATM    3  H   UNL     1      28.650  49.375  39.741  1.00  0.00     0.277 HD
ENDROOT
BRANCH   1   4
HETATM    4  C   UNL     1      26.732  49.337  38.813  1.00  0.00     0.188 C 
HETATM    5  C   UNL     1      26.246  48.405  37.700  1.00  0.00     0.040 C 
BRANCH   4   6
HETATM    6  C   UNL     1      27.082  50.738  38.275  1.00  0.00     0.099 C 
BRANCH   6   7
HETATM    7  C   UNL     1      28.485  51.126  38.630  1.00  0.00     0.078 A 
HETATM    8  S   UNL     1      28.778  52.241  39.896  1.00  0.00    -0.073 SA
HETATM    9  C   UNL     1      30.472  52.121  39.609  1.00  0.00     0.035 A 
HETATM   10  C   UNL     1      30.692  51.230  38.556  1.00  0.00     0.074 A 
HETATM   11  C   UNL     1      31.531  52.766  40.268  1.00  0.00     0.021 A 
HETATM   12  N   UNL     1      29.545  50.676  38.001  1.00  0.00    -0.245 NA
HETATM   13  C   UNL     1      32.016  50.971  38.149  1.00  0.00     0.033 A 
HETATM   14  C   UNL     1      33.078  51.607  38.801  1.00  0.00     0.002 A 
HETATM   15  C   UNL     1      32.836  52.493  39.846  1.00  0.00     0.002 A 
ENDBRANCH   6   7
ENDBRANCH   4   6
ENDBRANCH   1   4
BRANCH   1  16
HETATM   16  C   UNL     1      27.708  47.767  40.606  1.00  0.00     0.269 C 
BRANCH  16  17
HETATM   17  C   UNL     1      28.434  48.360  41.835  1.00  0.00     0.177 C 
BRANCH  17  18
HETATM   18  O   UNL     1      27.809  49.621  42.118  1.00  0.00    -0.389 OA
HETATM   19  H   UNL     1      27.821  50.127  41.279  1.00  0.00     0.210 HD
ENDBRANCH  17  18
BRANCH  17  20
HETATM   20  C   UNL     1      29.914  48.539  41.582  1.00  0.00    -0.025 A 
HETATM   21  C   UNL     1      30.639  49.455  42.370  1.00  0.00     0.046 A 
HETATM   22  C   UNL     1      32.015  49.617  42.195  1.00  0.00     0.068 A 
HETATM   23  C   UNL     1      32.677  48.847  41.239  1.00  0.00     0.037 A 
HETATM   24  C   UNL     1      31.976  47.946  40.444  1.00  0.00     0.003 A 
HETATM   25  C   UNL     1      30.600  47.794  40.608  1.00  0.00     0.010 A 
BRANCH  22  26
HETATM   26  O   UNL     1      32.817  50.466  42.903  1.00  0.00    -0.356 OA
HETATM   27  C   UNL     1      32.176  51.443  43.715  1.00  0.00     0.210 C 
ENDBRANCH  22  26
ENDBRANCH  17  20
ENDBRANCH  16  17
ENDBRANCH   1  16
TORSDOF 8
ENDMDL
MODEL 9
REMARK VINA RESULT:      -7.7     12.711     15.200
REMARK  8 active torsions:
REMARK  status: ('A' for Active; 'I' for Inactive)
REMARK    1  A    between atoms: C_2  and  N_3 
REMARK    2  A    between atoms: C_2  and  C_17 
REMARK    3  A    between atoms: N_3  and  C_6 
REMARK    4  A    between atoms: C_6  and  C_7 
REMARK    5  A    between atoms: C_7  and  O_8 
REMARK    6  A    between atoms: C_7  and  C_9 
REMARK    7  A    between atoms: C_11  and  O_12 
REMARK    8  A    between atoms: C_17  and  C_18 
ROOT
HETATM    1  N   UNL     1      35.234  52.289  41.717  1.00  0.00    -0.068 N 
HETATM    2  H   UNL     1      36.150  52.648  42.023  1.00  0.00     0.277 HD
HETATM    3  H   UNL     1      34.588  53.091  41.829  1.00  0.00     0.277 HD
ENDROOT
BRANCH   1   4
HETATM    4  C   UNL     1      35.329  51.824  40.285  1.00  0.00     0.188 C 
HETATM    5  C   UNL     1      36.818  51.795  39.930  1.00  0.00     0.040 C 
BRANCH   4   6
HETATM    6  C   UNL     1      34.538  52.763  39.354  1.00  0.00     0.099 C 
BRANCH   6   7
HETATM    7  C   UNL     1      33.064  52.506  39.442  1.00  0.00     0.078 A 
HETATM    8  S   UNL     1      32.341  51.291  38.476  1.00  0.00    -0.073 SA
HETATM    9  C   UNL     1      30.800  51.677  39.143  1.00  0.00     0.035 A 
HETATM   10  C   UNL     1      30.953  52.718  40.063  1.00  0.00     0.074 A 
HETATM   11  C   UNL     1      29.548  51.102  38.874  1.00  0.00     0.021 A 
HETATM   12  N   UNL     1      32.252  53.186  40.216  1.00  0.00    -0.245 NA
HETATM   13  C   UNL     1      29.815  53.197  40.741  1.00  0.00     0.033 A 
HETATM   14  C   UNL     1      28.562  52.629  40.482  1.00  0.00     0.002 A 
HETATM   15  C   UNL     1      28.433  51.597  39.560  1.00  0.00     0.002 A 
ENDBRANCH   6   7
ENDBRANCH   4   6
ENDBRANCH   1   4
BRANCH   1  16
HETATM   16  C   UNL     1      34.803  51.263  42.742  1.00  0.00     0.269 C 
BRANCH  16  17
HETATM   17  C   UNL     1      33.284  51.423  42.980  1.00  0.00     0.177 C 
BRANCH  17  18
HETATM   18  O   UNL     1      33.090  51.485  44.402  1.00  0.00    -0.389 OA
HETATM   19  H   UNL     1      32.797  52.399  44.598  1.00  0.00     0.210 HD
ENDBRANCH  17  18
BRANCH  17  20
HETATM   20  C   UNL     1      32.497  50.279  42.381  1.00  0.00    -0.025 A 
HETATM   21  C   UNL     1      31.110  50.205  42.614  1.00  0.00     0.046 A 
HETATM   22  C   UNL     1      30.342  49.187  42.043  1.00  0.00     0.068 A 
HETATM   23  C   UNL     1      30.958  48.247  41.218  1.00  0.00     0.037 A 
HETATM   24  C   UNL     1      32.330  48.299  40.985  1.00  0.00     0.003 A 
HETATM   25  C   UNL     1      33.099  49.305  41.566  1.00  0.00     0.010 A 
BRANCH  22  26
HETATM   26  O   UNL     1      28.995  49.021  42.194  1.00  0.00    -0.356 OA
HETATM   27  C   UNL     1      28.353  48.089  41.330  1.00  0.00     0.210 C 
ENDBRANCH  22  26
ENDBRANCH  17  20
ENDBRANCH  16  17
ENDBRANCH   1  16
TORSDOF 8
ENDMDL
MODEL 10
REMARK VINA RESULT:      -7.7      3.954      6.082
REMARK  8 active torsions:
REMARK  status: ('A' for Active; 'I' for Inactive)
REMARK    1  A    between atoms: C_2  and  N_3 
REMARK    2  A    between atoms: C_2  and  C_17 
REMARK    3  A    between atoms: N_3  and  C_6 
REMARK    4  A    between atoms: C_6  and  C_7 
REMARK    5  A    between atoms: C_7  and  O_8 
REMARK    6  A    between atoms: C_7  and  C_9 
REMARK    7  A    between atoms: C_11  and  O_12 
REMARK    8  A    between atoms: C_17  and  C_18 
ROOT
HETATM    1  N   UNL     1      25.410  44.740  52.091  1.00  0.00    -0.068 N 
HETATM    2  H   UNL     1      24.408  44.917  52.250  1.00  0.00     0.277 HD
HETATM    3  H   UNL     1      25.741  45.566  51.560  1.00  0.00     0.277 HD
ENDROOT
BRANCH   1   4
HETATM    4  C   UNL     1      26.111  44.592  53.419  1.00  0.00     0.188 C 
HETATM    5  C   UNL     1      25.017  44.508  54.487  1.00  0.00     0.040 C 
BRANCH   4   6
HETATM    6  C   UNL     1      27.063  45.778  53.667  1.00  0.00     0.099 C 
BRANCH   6   7
HETATM    7  C   UNL     1      28.132  45.424  54.655  1.00  0.00     0.078 A 
HETATM    8  S   UNL     1      28.369  46.385  56.052  1.00  0.00    -0.073 SA
HETATM    9  C   UNL     1      29.669  45.363  56.535  1.00  0.00     0.035 A 
HETATM   10  C   UNL     1      29.830  44.353  55.582  1.00  0.00     0.074 A 
HETATM   11  C   UNL     1      30.487  45.446  57.673  1.00  0.00     0.021 A 
HETATM   12  N   UNL     1      28.949  44.407  54.509  1.00  0.00    -0.245 NA
HETATM   13  C   UNL     1      30.840  43.391  55.776  1.00  0.00     0.033 A 
HETATM   14  C   UNL     1      31.659  43.463  56.909  1.00  0.00     0.002 A 
HETATM   15  C   UNL     1      31.484  44.479  57.842  1.00  0.00     0.002 A 
ENDBRANCH   6   7
ENDBRANCH   4   6
ENDBRANCH   1   4
BRANCH   1  16
HETATM   16  C   UNL     1      25.500  43.570  51.135  1.00  0.00     0.269 C 
BRANCH  16  17
HETATM   17  C   UNL     1      26.953  43.477  50.618  1.00  0.00     0.177 C 
BRANCH  17  18
HETATM   18  O   UNL     1      26.895  43.615  49.189  1.00  0.00    -0.389 OA
HETATM   19  H   UNL     1      27.578  43.012  48.828  1.00  0.00     0.210 HD
ENDBRANCH  17  18
BRANCH  17  20
HETATM   20  C   UNL     1      27.606  42.168  51.004  1.00  0.00    -0.025 A 
HETATM   21  C   UNL     1      27.706  41.142  50.044  1.00  0.00     0.046 A 
HETATM   22  C   UNL     1      28.339  39.936  50.350  1.00  0.00     0.068 A 
HETATM   23  C   UNL     1      28.893  39.757  51.617  1.00  0.00     0.037 A 
HETATM   24  C   UNL     1      28.794  40.756  52.582  1.00  0.00     0.003 A 
HETATM   25  C   UNL     1      28.150  41.954  52.282  1.00  0.00     0.010 A 
BRANCH  22  26
HETATM   26  O   UNL     1      28.500  38.878  49.500  1.00  0.00    -0.356 OA
HETATM   27  C   UNL     1      27.339  38.394  48.835  1.00  0.00     0.210 C 
ENDBRANCH  22  26
ENDBRANCH  17  20
ENDBRANCH  16  17
ENDBRANCH   1  16
TORSDOF 8
ENDMDL
