MODEL 1
REMARK VINA RESULT:      -7.4      0.000      0.000
REMARK  6 active torsions:
REMARK  status: ('A' for Active; 'I' for Inactive)
REMARK    1  A    between atoms: C_2  and  O_3 
REMARK    2  A    between atoms: O_3  and  C_4 
REMARK    3  A    between atoms: C_4  and  C_5 
REMARK    4  A    between atoms: C_6  and  O_7 
REMARK    5  A    between atoms: C_12  and  O_13 
REMARK    6  A    between atoms: C_17  and  C_18 
ROOT
HETATM    1  C   UNL     1      30.514  51.808  40.815  1.00  0.00     0.133 C 
HETATM    2  C   UNL     1      30.638  51.603  39.269  1.00  0.00     0.073 C 
HETATM    3  C   UNL     1      32.023  52.043  38.761  1.00  0.00     0.047 C 
HETATM    4  C   UNL     1      30.356  50.145  38.818  1.00  0.00     0.097 C 
HETATM    5  C   UNL     1      31.040  49.199  39.727  1.00  0.00     0.042 A 
HETATM    6  C   UNL     1      31.411  49.432  41.035  1.00  0.00     0.030 A 
HETATM    7  C   UNL     1      31.972  48.205  41.427  1.00  0.00     0.190 A 
HETATM    8  N   UNL     1      31.988  47.292  40.465  1.00  0.00    -0.149 NA
HETATM    9  N   UNL     1      31.403  47.918  39.429  1.00  0.00    -0.279 N 
HETATM   10  H   UNL     1      31.281  47.405  38.562  1.00  0.00     0.189 HD
HETATM   11  C   UNL     1      31.130  50.714  41.743  1.00  0.00     0.074 C 
ENDROOT
BRANCH  11  12
HETATM   12  C   UNL     1      32.394  51.176  42.458  1.00  0.00    -0.048 A 
HETATM   13  C   UNL     1      32.432  51.607  43.794  1.00  0.00     0.009 A 
HETATM   14  C   UNL     1      33.635  52.007  44.387  1.00  0.00     0.024 A 
HETATM   15  C   UNL     1      34.816  51.974  43.653  1.00  0.00     0.034 A 
HETATM   16 CL   UNL     1      36.293  52.470  44.381  1.00  0.00    -0.084 Cl
HETATM   17  C   UNL     1      34.808  51.542  42.332  1.00  0.00     0.024 A 
HETATM   18  C   UNL     1      33.607  51.142  41.741  1.00  0.00     0.009 A 
ENDBRANCH  11  12
BRANCH   1  19
HETATM   19  C   UNL     1      29.062  52.020  41.199  1.00  0.00     0.267 C 
HETATM   20  O   UNL     1      28.463  53.062  40.960  1.00  0.00    -0.265 OA
BRANCH  19  21
HETATM   21  O   UNL     1      28.526  50.938  41.820  1.00  0.00    -0.321 OA
BRANCH  21  22
HETATM   22  C   UNL     1      27.482  50.254  41.108  1.00  0.00     0.174 C 
HETATM   23  C   UNL     1      27.700  48.757  41.194  1.00  0.00     0.034 C 
ENDBRANCH  21  22
ENDBRANCH  19  21
ENDBRANCH   1  19
BRANCH   2  24
HETATM   24  O   UNL     1      29.703  52.449  38.575  1.00  0.00    -0.389 OA
HETATM   25  H   UNL     1      30.055  53.358  38.551  1.00  0.00     0.210 HD
ENDBRANCH   2  24
BRANCH   7  26
HETATM   26  O   UNL     1      32.494  47.839  42.600  1.00  0.00    -0.343 OA
HETATM   27  H   UNL     1      33.410  48.152  42.663  1.00  0.00     0.219 HD
ENDBRANCH   7  26
TORSDOF 6
ENDMDL
MODEL 2
REMARK VINA RESULT:      -7.3      3.647      6.029
REMARK  6 active torsions:
REMARK  status: ('A' for Active; 'I' for Inactive)
REMARK    1  A    between atoms: C_2  and  O_3 
REMARK    2  A    between atoms: O_3  and  C_4 
REMARK    3  A    between atoms: C_4  and  C_5 
REMARK    4  A    between atoms: C_6  and  O_7 
REMARK    5  A    between atoms: C_12  and  O_13 
REMARK    6  A    between atoms: C_17  and  C_18 
ROOT
HETATM    1  C   UNL     1      31.867  49.807  40.367  1.00  0.00     0.133 C 
HETATM    2  C   UNL     1      32.291  51.053  39.520  1.00  0.00     0.073 C 
HETATM    3  C   UNL     1      31.787  50.936  38.070  1.00  0.00     0.047 C 
HETATM    4  C   UNL     1      31.818  52.400  40.130  1.00  0.00     0.097 C 
HETATM    5  C   UNL     1      30.413  52.280  40.579  1.00  0.00     0.042 A 
HETATM    6  C   UNL     1      29.757  51.120  40.935  1.00  0.00     0.030 A 
HETATM    7  C   UNL     1      28.485  51.580  41.313  1.00  0.00     0.190 A 
HETATM    8  N   UNL     1      28.331  52.892  41.186  1.00  0.00    -0.149 NA
HETATM    9  N   UNL     1      29.530  53.306  40.741  1.00  0.00    -0.279 N 
HETATM   10  H   UNL     1      29.669  54.299  40.580  1.00  0.00     0.189 HD
HETATM   11  C   UNL     1      30.416  49.782  40.942  1.00  0.00     0.074 C 
ENDROOT
BRANCH  11  12
HETATM   12  C   UNL     1      29.510  48.776  40.241  1.00  0.00    -0.048 A 
HETATM   13  C   UNL     1      29.024  48.931  38.933  1.00  0.00     0.009 A 
HETATM   14  C   UNL     1      28.204  47.958  38.352  1.00  0.00     0.024 A 
HETATM   15  C   UNL     1      27.866  46.814  39.069  1.00  0.00     0.034 A 
HETATM   16 CL   UNL     1      26.854  45.621  38.354  1.00  0.00    -0.084 Cl
HETATM   17  C   UNL     1      28.342  46.632  40.362  1.00  0.00     0.024 A 
HETATM   18  C   UNL     1      29.162  47.604  40.941  1.00  0.00     0.009 A 
ENDBRANCH  11  12
BRANCH   1  19
HETATM   19  C   UNL     1      32.851  49.587  41.501  1.00  0.00     0.267 C 
HETATM   20  O   UNL     1      33.926  49.022  41.339  1.00  0.00    -0.265 OA
BRANCH  19  21
HETATM   21  O   UNL     1      32.403  50.086  42.682  1.00  0.00    -0.321 OA
BRANCH  21  22
HETATM   22  C   UNL     1      33.156  51.178  43.233  1.00  0.00     0.174 C 
HETATM   23  C   UNL     1      32.386  51.803  44.378  1.00  0.00     0.034 C 
ENDBRANCH  21  22
ENDBRANCH  19  21
ENDBRANCH   1  19
BRANCH   2  24
HETATM   24  O   UNL     1      33.725  51.120  39.410  1.00  0.00    -0.389 OA
HETATM   25  H   UNL     1      34.025  51.996  39.715  1.00  0.00     0.210 HD
ENDBRANCH   2  24
BRANCH   7  26
HETATM   26  O   UNL     1      27.426  50.901  41.760  1.00  0.00    -0.343 OA
HETATM   27  H   UNL     1      26.908  51.458  42.360  1.00  0.00     0.219 HD
ENDBRANCH   7  26
TORSDOF 6
ENDMDL
MODEL 3
REMARK VINA RESULT:      -7.3      3.435      5.449
REMARK  6 active torsions:
REMARK  status: ('A' for Active; 'I' for Inactive)
REMARK    1  A    between atoms: C_2  and  O_3 
REMARK    2  A    between atoms: O_3  and  C_4 
REMARK    3  A    between atoms: C_4  and  C_5 
REMARK    4  A    between atoms: C_6  and  O_7 
REMARK    5  A    between atoms: C_12  and  O_13 
REMARK    6  A    between atoms: C_17  and  C_18 
ROOT
HETATM    1  C   UNL     1      29.791  50.814  39.296  1.00  0.00     0.133 C 
HETATM    2  C   UNL     1      29.318  52.088  40.072  1.00  0.00     0.073 C 
HETATM    3  C   UNL     1      27.975  51.839  40.782  1.00  0.00     0.047 C 
HETATM    4  C   UNL     1      30.363  52.605  41.098  1.00  0.00     0.097 C 
HETATM    5  C   UNL     1      30.924  51.467  41.858  1.00  0.00     0.042 A 
HETATM    6  C   UNL     1      30.987  50.151  41.448  1.00  0.00     0.030 A 
HETATM    7  C   UNL     1      31.641  49.518  42.518  1.00  0.00     0.190 A 
HETATM    8  N   UNL     1      31.939  50.334  43.521  1.00  0.00    -0.149 NA
HETATM    9  N   UNL     1      31.497  51.530  43.094  1.00  0.00    -0.279 N 
HETATM   10  H   UNL     1      31.631  52.337  43.695  1.00  0.00     0.189 HD
HETATM   11  C   UNL     1      30.505  49.692  40.113  1.00  0.00     0.074 C 
ENDROOT
BRANCH  11  12
HETATM   12  C   UNL     1      29.649  48.444  40.295  1.00  0.00    -0.048 A 
HETATM   13  C   UNL     1      28.492  48.391  41.089  1.00  0.00     0.009 A 
HETATM   14  C   UNL     1      27.750  47.210  41.199  1.00  0.00     0.024 A 
HETATM   15  C   UNL     1      28.151  46.070  40.511  1.00  0.00     0.034 A 
HETATM   16 CL   UNL     1      27.240  44.617  40.650  1.00  0.00    -0.084 Cl
HETATM   17  C   UNL     1      29.287  46.098  39.710  1.00  0.00     0.024 A 
HETATM   18  C   UNL     1      30.027  47.279  39.599  1.00  0.00     0.009 A 
ENDBRANCH  11  12
BRANCH   1  19
HETATM   19  C   UNL     1      30.674  51.212  38.128  1.00  0.00     0.267 C 
HETATM   20  O   UNL     1      30.232  51.765  37.128  1.00  0.00    -0.265 OA
BRANCH  19  21
HETATM   21  O   UNL     1      31.978  50.889  38.329  1.00  0.00    -0.321 OA
BRANCH  21  22
HETATM   22  C   UNL     1      32.856  51.978  38.651  1.00  0.00     0.174 C 
HETATM   23  C   UNL     1      33.936  51.501  39.601  1.00  0.00     0.034 C 
ENDBRANCH  21  22
ENDBRANCH  19  21
ENDBRANCH   1  19
BRANCH   2  24
HETATM   24  O   UNL     1      29.059  53.166  39.154  1.00  0.00    -0.389 OA
HETATM   25  H   UNL     1      28.318  53.701  39.496  1.00  0.00     0.210 HD
ENDBRANCH   2  24
BRANCH   7  26
HETATM   26  O   UNL     1      31.986  48.238  42.673  1.00  0.00    -0.343 OA
HETATM   27  H   UNL     1      31.259  47.666  42.385  1.00  0.00     0.219 HD
ENDBRANCH   7  26
TORSDOF 6
ENDMDL
MODEL 4
REMARK VINA RESULT:      -6.8      2.351      3.463
REMARK  6 active torsions:
REMARK  status: ('A' for Active; 'I' for Inactive)
REMARK    1  A    between atoms: C_2  and  O_3 
REMARK    2  A    between atoms: O_3  and  C_4 
REMARK    3  A    between atoms: C_4  and  C_5 
REMARK    4  A    between atoms: C_6  and  O_7 
REMARK    5  A    between atoms: C_12  and  O_13 
REMARK    6  A    between atoms: C_17  and  C_18 
ROOT
HETATM    1  C   UNL     1      28.703  50.261  40.863  1.00  0.00     0.133 C 
HETATM    2  C   UNL     1      27.844  51.398  40.215  1.00  0.00     0.073 C 
HETATM    3  C   UNL     1      28.145  52.760  40.867  1.00  0.00     0.047 C 
HETATM    4  C   UNL     1      28.025  51.504  38.676  1.00  0.00     0.097 C 
HETATM    5  C   UNL     1      29.461  51.403  38.334  1.00  0.00     0.042 A 
HETATM    6  C   UNL     1      30.447  50.792  39.081  1.00  0.00     0.030 A 
HETATM    7  C   UNL     1      31.592  50.950  38.282  1.00  0.00     0.190 A 
HETATM    8  N   UNL     1      31.371  51.617  37.156  1.00  0.00    -0.149 NA
HETATM    9  N   UNL     1      30.053  51.880  37.202  1.00  0.00    -0.279 N 
HETATM   10  H   UNL     1      29.633  52.380  36.424  1.00  0.00     0.189 HD
HETATM   11  C   UNL     1      30.176  50.098  40.372  1.00  0.00     0.074 C 
ENDROOT
BRANCH  11  12
HETATM   12  C   UNL     1      31.205  50.545  41.404  1.00  0.00    -0.048 A 
HETATM   13  C   UNL     1      32.455  49.933  41.586  1.00  0.00     0.009 A 
HETATM   14  C   UNL     1      33.354  50.408  42.549  1.00  0.00     0.024 A 
HETATM   15  C   UNL     1      33.015  51.503  43.337  1.00  0.00     0.034 A 
HETATM   16 CL   UNL     1      34.118  52.082  44.523  1.00  0.00    -0.084 Cl
HETATM   17  C   UNL     1      31.786  52.132  43.170  1.00  0.00     0.024 A 
HETATM   18  C   UNL     1      30.891  51.659  42.208  1.00  0.00     0.009 A 
ENDBRANCH  11  12
BRANCH   1  19
HETATM   19  C   UNL     1      27.989  48.929  40.732  1.00  0.00     0.267 C 
HETATM   20  O   UNL     1      27.081  48.593  41.484  1.00  0.00    -0.265 OA
BRANCH  19  21
HETATM   21  O   UNL     1      28.468  48.181  39.706  1.00  0.00    -0.321 OA
BRANCH  21  22
HETATM   22  C   UNL     1      28.658  46.783  39.977  1.00  0.00     0.174 C 
HETATM   23  C   UNL     1      30.058  46.369  39.570  1.00  0.00     0.034 C 
ENDBRANCH  21  22
ENDBRANCH  19  21
ENDBRANCH   1  19
BRANCH   2  24
HETATM   24  O   UNL     1      26.444  51.170  40.461  1.00  0.00    -0.389 OA
HETATM   25  H   UNL     1      25.923  51.640  39.783  1.00  0.00     0.210 HD
ENDBRANCH   2  24
BRANCH   7  26
HETATM   26  O   UNL     1      32.846  50.546  38.495  1.00  0.00    -0.343 OA
HETATM   27  H   UNL     1      32.865  49.585  38.611  1.00  0.00     0.219 HD
ENDBRANCH   7  26
TORSDOF 6
ENDMDL
MODEL 5
REMARK VINA RESULT:      -6.7     11.567     13.847
REMARK  6 active torsions:
REMARK  status: ('A' for Active; 'I' for Inactive)
REMARK    1  A    between atoms: C_2  and  O_3 
REMARK    2  A    between atoms: O_3  and  C_4 
REMARK    3  A    between atoms: C_4  and  C_5 
REMARK    4  A    between atoms: C_6  and  O_7 
REMARK    5  A    between atoms: C_12  and  O_13 
REMARK    6  A    between atoms: C_17  and  C_18 
ROOT
HETATM    1  C   UNL     1      19.580  48.224  46.896  1.00  0.00     0.133 C 
HETATM    2  C   UNL     1      18.923  46.889  47.381  1.00  0.00     0.073 C 
HETATM    3  C   UNL     1      19.993  45.872  47.818  1.00  0.00     0.047 C 
HETATM    4  C   UNL     1      17.896  47.091  48.528  1.00  0.00     0.097 C 
HETATM    5  C   UNL     1      18.445  48.029  49.531  1.00  0.00     0.042 A 
HETATM    6  C   UNL     1      19.406  48.997  49.319  1.00  0.00     0.030 A 
HETATM    7  C   UNL     1      19.515  49.613  50.576  1.00  0.00     0.190 A 
HETATM    8  N   UNL     1      18.731  49.080  51.505  1.00  0.00    -0.149 NA
HETATM    9  N   UNL     1      18.074  48.113  50.841  1.00  0.00    -0.279 N 
HETATM   10  H   UNL     1      17.388  47.561  51.347  1.00  0.00     0.189 HD
HETATM   11  C   UNL     1      20.021  49.252  47.985  1.00  0.00     0.074 C 
ENDROOT
BRANCH  11  12
HETATM   12  C   UNL     1      21.534  49.348  48.143  1.00  0.00    -0.048 A 
HETATM   13  C   UNL     1      22.338  48.320  48.660  1.00  0.00     0.009 A 
HETATM   14  C   UNL     1      23.725  48.477  48.765  1.00  0.00     0.024 A 
HETATM   15  C   UNL     1      24.324  49.661  48.348  1.00  0.00     0.034 A 
HETATM   16 CL   UNL     1      26.028  49.854  48.482  1.00  0.00    -0.084 Cl
HETATM   17  C   UNL     1      23.552  50.690  47.824  1.00  0.00     0.024 A 
HETATM   18  C   UNL     1      22.167  50.532  47.718  1.00  0.00     0.009 A 
ENDBRANCH  11  12
BRANCH   1  19
HETATM   19  C   UNL     1      18.673  48.920  45.899  1.00  0.00     0.267 C 
HETATM   20  O   UNL     1      18.543  48.530  44.744  1.00  0.00    -0.265 OA
BRANCH  19  21
HETATM   21  O   UNL     1      18.039  49.995  46.435  1.00  0.00    -0.321 OA
BRANCH  21  22
HETATM   22  C   UNL     1      16.604  49.945  46.438  1.00  0.00     0.174 C 
HETATM   23  C   UNL     1      16.082  50.318  47.811  1.00  0.00     0.034 C 
ENDBRANCH  21  22
ENDBRANCH  19  21
ENDBRANCH   1  19
BRANCH   2  24
HETATM   24  O   UNL     1      18.225  46.251  46.296  1.00  0.00    -0.389 OA
HETATM   25  H   UNL     1      17.480  45.737  46.658  1.00  0.00     0.210 HD
ENDBRANCH   2  24
BRANCH   7  26
HETATM   26  O   UNL     1      20.290  50.628  50.967  1.00  0.00    -0.343 OA
HETATM   27  H   UNL     1      20.836  50.353  51.719  1.00  0.00     0.219 HD
ENDBRANCH   7  26
TORSDOF 6
ENDMDL
MODEL 6
REMARK VINA RESULT:      -6.6     12.215     14.238
REMARK  6 active torsions:
REMARK  status: ('A' for Active; 'I' for Inactive)
REMARK    1  A    between atoms: C_2  and  O_3 
REMARK    2  A    between atoms: O_3  and  C_4 
REMARK    3  A    between atoms: C_4  and  C_5 
REMARK    4  A    between atoms: C_6  and  O_7 
REMARK    5  A    between atoms: C_12  and  O_13 
REMARK    6  A    between atoms: C_17  and  C_18 
ROOT
HETATM    1  C   UNL     1      26.083  43.993  51.712  1.00  0.00     0.133 C 
HETATM    2  C   UNL     1      25.992  45.458  51.169  1.00  0.00     0.073 C 
HETATM    3  C   UNL     1      26.811  45.622  49.876  1.00  0.00     0.047 C 
HETATM    4  C   UNL     1      24.535  45.935  50.927  1.00  0.00     0.097 C 
HETATM    5  C   UNL     1      23.765  44.868  50.251  1.00  0.00     0.042 A 
HETATM    6  C   UNL     1      24.026  43.514  50.282  1.00  0.00     0.030 A 
HETATM    7  C   UNL     1      22.978  42.972  49.520  1.00  0.00     0.190 A 
HETATM    8  N   UNL     1      22.149  43.883  49.026  1.00  0.00    -0.149 NA
HETATM    9  N   UNL     1      22.645  45.042  49.493  1.00  0.00    -0.279 N 
HETATM   10  H   UNL     1      22.160  45.903  49.258  1.00  0.00     0.189 HD
HETATM   11  C   UNL     1      25.151  42.922  51.063  1.00  0.00     0.074 C 
ENDROOT
BRANCH  11  12
HETATM   12  C   UNL     1      25.900  41.929  50.182  1.00  0.00    -0.048 A 
HETATM   13  C   UNL     1      26.466  42.250  48.938  1.00  0.00     0.009 A 
HETATM   14  C   UNL     1      27.151  41.286  48.190  1.00  0.00     0.024 A 
HETATM   15  C   UNL     1      27.283  39.990  48.679  1.00  0.00     0.034 A 
HETATM   16 CL   UNL     1      28.121  38.805  47.756  1.00  0.00    -0.084 Cl
HETATM   17  C   UNL     1      26.741  39.649  49.913  1.00  0.00     0.024 A 
HETATM   18  C   UNL     1      26.059  40.613  50.660  1.00  0.00     0.009 A 
ENDBRANCH  11  12
BRANCH   1  19
HETATM   19  C   UNL     1      25.877  43.980  53.215  1.00  0.00     0.267 C 
HETATM   20  O   UNL     1      24.777  44.143  53.730  1.00  0.00    -0.265 OA
BRANCH  19  21
HETATM   21  O   UNL     1      27.033  43.767  53.895  1.00  0.00    -0.321 OA
BRANCH  21  22
HETATM   22  C   UNL     1      28.086  43.120  53.164  1.00  0.00     0.174 C 
HETATM   23  C   UNL     1      28.182  41.667  53.583  1.00  0.00     0.034 C 
ENDBRANCH  21  22
ENDBRANCH  19  21
ENDBRANCH   1  19
BRANCH   2  24
HETATM   24  O   UNL     1      26.588  46.376  52.104  1.00  0.00    -0.389 OA
HETATM   25  H   UNL     1      27.449  46.671  51.753  1.00  0.00     0.210 HD
ENDBRANCH   2  24
BRANCH   7  26
HETATM   26  O   UNL     1      22.710  41.700  49.216  1.00  0.00    -0.343 OA
HETATM   27  H   UNL     1      22.083  41.335  49.858  1.00  0.00     0.219 HD
ENDBRANCH   7  26
TORSDOF 6
ENDMDL
MODEL 7
REMARK VINA RESULT:      -6.5     13.341     15.563
REMARK  6 active torsions:
REMARK  status: ('A' for Active; 'I' for Inactive)
REMARK    1  A    between atoms: C_2  and  O_3 
REMARK    2  A    between atoms: O_3  and  C_4 
REMARK    3  A    between atoms: C_4  and  C_5 
REMARK    4  A    between atoms: C_6  and  O_7 
REMARK    5  A    between atoms: C_12  and  O_13 
REMARK    6  A    between atoms: C_17  and  C_18 
ROOT
HETATM    1  C   UNL     1      17.363  51.908  48.655  1.00  0.00     0.133 C 
HETATM    2  C   UNL     1      16.518  51.567  47.383  1.00  0.00     0.073 C 
HETATM    3  C   UNL     1      17.418  51.412  46.144  1.00  0.00     0.047 C 
HETATM    4  C   UNL     1      15.639  50.298  47.552  1.00  0.00     0.097 C 
HETATM    5  C   UNL     1      16.426  49.227  48.201  1.00  0.00     0.042 A 
HETATM    6  C   UNL     1      17.525  49.390  49.019  1.00  0.00     0.030 A 
HETATM    7  C   UNL     1      17.844  48.072  49.385  1.00  0.00     0.190 A 
HETATM    8  N   UNL     1      17.053  47.158  48.837  1.00  0.00    -0.149 NA
HETATM    9  N   UNL     1      16.182  47.888  48.119  1.00  0.00    -0.279 N 
HETATM   10  H   UNL     1      15.450  47.402  47.610  1.00  0.00     0.189 HD
HETATM   11  C   UNL     1      18.067  50.727  49.395  1.00  0.00     0.074 C 
ENDROOT
BRANCH  11  12
HETATM   12  C   UNL     1      19.580  50.721  49.212  1.00  0.00    -0.048 A 
HETATM   13  C   UNL     1      20.501  50.943  50.248  1.00  0.00     0.009 A 
HETATM   14  C   UNL     1      21.878  50.912  50.005  1.00  0.00     0.024 A 
HETATM   15  C   UNL     1      22.352  50.651  48.724  1.00  0.00     0.034 A 
HETATM   16 CL   UNL     1      24.046  50.617  48.425  1.00  0.00    -0.084 Cl
HETATM   17  C   UNL     1      21.462  50.418  47.681  1.00  0.00     0.024 A 
HETATM   18  C   UNL     1      20.087  50.448  47.926  1.00  0.00     0.009 A 
ENDBRANCH  11  12
BRANCH   1  19
HETATM   19  C   UNL     1      16.519  52.681  49.651  1.00  0.00     0.267 C 
HETATM   20  O   UNL     1      16.940  53.666  50.245  1.00  0.00    -0.265 OA
BRANCH  19  21
HETATM   21  O   UNL     1      15.274  52.158  49.793  1.00  0.00    -0.321 OA
BRANCH  21  22
HETATM   22  C   UNL     1      14.352  52.928  50.581  1.00  0.00     0.174 C 
HETATM   23  C   UNL     1      13.619  53.913  49.693  1.00  0.00     0.034 C 
ENDBRANCH  21  22
ENDBRANCH  19  21
ENDBRANCH   1  19
BRANCH   2  24
HETATM   24  O   UNL     1      15.632  52.655  47.064  1.00  0.00    -0.389 OA
HETATM   25  H   UNL     1      14.892  52.658  47.700  1.00  0.00     0.210 HD
ENDBRANCH   2  24
BRANCH   7  26
HETATM   26  O   UNL     1      18.817  47.615  50.177  1.00  0.00    -0.343 OA
HETATM   27  H   UNL     1      18.460  46.950  50.784  1.00  0.00     0.219 HD
ENDBRANCH   7  26
TORSDOF 6
ENDMDL
MODEL 8
REMARK VINA RESULT:      -6.5     13.158     14.686
REMARK  6 active torsions:
REMARK  status: ('A' for Active; 'I' for Inactive)
REMARK    1  A    between atoms: C_2  and  O_3 
REMARK    2  A    between atoms: O_3  and  C_4 
REMARK    3  A    between atoms: C_4  and  C_5 
REMARK    4  A    between atoms: C_6  and  O_7 
REMARK    5  A    between atoms: C_12  and  O_13 
REMARK    6  A    between atoms: C_17  and  C_18 
ROOT
HETATM    1  C   UNL     1      26.970  44.043  52.986  1.00  0.00     0.133 C 
HETATM    2  C   UNL     1      25.500  44.159  53.509  1.00  0.00     0.073 C 
HETATM    3  C   UNL     1      25.378  43.617  54.944  1.00  0.00     0.047 C 
HETATM    4  C   UNL     1      24.939  45.606  53.447  1.00  0.00     0.097 C 
HETATM    5  C   UNL     1      25.957  46.558  53.943  1.00  0.00     0.042 A 
HETATM    6  C   UNL     1      27.324  46.374  53.955  1.00  0.00     0.030 A 
HETATM    7  C   UNL     1      27.801  47.586  54.481  1.00  0.00     0.190 A 
HETATM    8  N   UNL     1      26.842  48.446  54.799  1.00  0.00    -0.149 NA
HETATM    9  N   UNL     1      25.715  47.799  54.454  1.00  0.00    -0.279 N 
HETATM   10  H   UNL     1      24.826  48.272  54.589  1.00  0.00     0.189 HD
HETATM   11  C   UNL     1      27.984  45.148  53.420  1.00  0.00     0.074 C 
ENDROOT
BRANCH  11  12
HETATM   12  C   UNL     1      29.014  44.655  54.429  1.00  0.00    -0.048 A 
HETATM   13  C   UNL     1      29.257  45.265  55.670  1.00  0.00     0.009 A 
HETATM   14  C   UNL     1      30.213  44.747  56.551  1.00  0.00     0.024 A 
HETATM   15  C   UNL     1      30.933  43.609  56.204  1.00  0.00     0.034 A 
HETATM   16 CL   UNL     1      32.112  42.976  57.285  1.00  0.00    -0.084 Cl
HETATM   17  C   UNL     1      30.705  42.980  54.986  1.00  0.00     0.024 A 
HETATM   18  C   UNL     1      29.749  43.497  54.108  1.00  0.00     0.009 A 
ENDBRANCH  11  12
BRANCH   1  19
HETATM   19  C   UNL     1      26.979  43.933  51.472  1.00  0.00     0.267 C 
HETATM   20  O   UNL     1      26.632  42.915  50.885  1.00  0.00    -0.265 OA
BRANCH  19  21
HETATM   21  O   UNL     1      27.404  45.073  50.871  1.00  0.00    -0.321 OA
BRANCH  21  22
HETATM   22  C   UNL     1      26.527  45.630  49.879  1.00  0.00     0.174 C 
HETATM   23  C   UNL     1      26.218  47.073  50.221  1.00  0.00     0.034 C 
ENDBRANCH  21  22
ENDBRANCH  19  21
ENDBRANCH   1  19
BRANCH   2  24
HETATM   24  O   UNL     1      24.622  43.332  52.724  1.00  0.00    -0.389 OA
HETATM   25  H   UNL     1      24.565  43.698  51.822  1.00  0.00     0.210 HD
ENDBRANCH   2  24
BRANCH   7  26
HETATM   26  O   UNL     1      29.054  47.983  54.714  1.00  0.00    -0.343 OA
HETATM   27  H   UNL     1      29.301  48.674  54.081  1.00  0.00     0.219 HD
ENDBRANCH   7  26
TORSDOF 6
ENDMDL
MODEL 9
REMARK VINA RESULT:      -6.4     12.665     14.746
REMARK  6 active torsions:
REMARK  status: ('A' for Active; 'I' for Inactive)
REMARK    1  A    between atoms: C_2  and  O_3 
REMARK    2  A    between atoms: O_3  and  C_4 
REMARK    3  A    between atoms: C_4  and  C_5 
REMARK    4  A    between atoms: C_6  and  O_7 
REMARK    5  A    between atoms: C_12  and  O_13 
REMARK    6  A    between atoms: C_17  and  C_18 
ROOT
HETATM    1  C   UNL     1      20.434  50.423  48.058  1.00  0.00     0.133 C 
HETATM    2  C   UNL     1      20.105  50.479  49.587  1.00  0.00     0.073 C 
HETATM    3  C   UNL     1      19.079  51.586  49.892  1.00  0.00     0.047 C 
HETATM    4  C   UNL     1      19.597  49.126  50.156  1.00  0.00     0.097 C 
HETATM    5  C   UNL     1      18.610  48.532  49.228  1.00  0.00     0.042 A 
HETATM    6  C   UNL     1      18.505  48.765  47.873  1.00  0.00     0.030 A 
HETATM    7  C   UNL     1      17.447  47.926  47.489  1.00  0.00     0.190 A 
HETATM    8  N   UNL     1      16.909  47.248  48.495  1.00  0.00    -0.149 NA
HETATM    9  N   UNL     1      17.643  47.628  49.555  1.00  0.00    -0.279 N 
HETATM   10  H   UNL     1      17.429  47.221  50.461  1.00  0.00     0.189 HD
HETATM   11  C   UNL     1      19.434  49.664  47.129  1.00  0.00     0.074 C 
ENDROOT
BRANCH  11  12
HETATM   12  C   UNL     1      18.621  50.594  46.236  1.00  0.00    -0.048 A 
HETATM   13  C   UNL     1      17.822  51.646  46.714  1.00  0.00     0.009 A 
HETATM   14  C   UNL     1      17.111  52.466  45.831  1.00  0.00     0.024 A 
HETATM   15  C   UNL     1      17.194  52.248  44.460  1.00  0.00     0.034 A 
HETATM   16 CL   UNL     1      16.315  53.254  43.376  1.00  0.00    -0.084 Cl
HETATM   17  C   UNL     1      17.985  51.220  43.960  1.00  0.00     0.024 A 
HETATM   18  C   UNL     1      18.696  50.403  44.843  1.00  0.00     0.009 A 
ENDBRANCH  11  12
BRANCH   1  19
HETATM   19  C   UNL     1      21.828  49.863  47.844  1.00  0.00     0.267 C 
HETATM   20  O   UNL     1      22.840  50.509  48.087  1.00  0.00    -0.265 OA
BRANCH  19  21
HETATM   21  O   UNL     1      21.810  48.592  47.367  1.00  0.00    -0.321 OA
BRANCH  21  22
HETATM   22  C   UNL     1      22.378  47.588  48.222  1.00  0.00     0.174 C 
HETATM   23  C   UNL     1      21.489  46.361  48.231  1.00  0.00     0.034 C 
ENDBRANCH  21  22
ENDBRANCH  19  21
ENDBRANCH   1  19
BRANCH   2  24
HETATM   24  O   UNL     1      21.277  50.841  50.338  1.00  0.00    -0.389 OA
HETATM   25  H   UNL     1      21.367  50.234  51.096  1.00  0.00     0.210 HD
ENDBRANCH   2  24
BRANCH   7  26
HETATM   26  O   UNL     1      16.905  47.727  46.285  1.00  0.00    -0.343 OA
HETATM   27  H   UNL     1      17.403  48.222  45.617  1.00  0.00     0.219 HD
ENDBRANCH   7  26
TORSDOF 6
ENDMDL
MODEL 10
REMARK VINA RESULT:      -6.3     12.185     13.837
REMARK  6 active torsions:
REMARK  status: ('A' for Active; 'I' for Inactive)
REMARK    1  A    between atoms: C_2  and  O_3 
REMARK    2  A    between atoms: O_3  and  C_4 
REMARK    3  A    between atoms: C_4  and  C_5 
REMARK    4  A    between atoms: C_6  and  O_7 
REMARK    5  A    between atoms: C_12  and  O_13 
REMARK    6  A    between atoms: C_17  and  C_18 
ROOT
HETATM    1  C   UNL     1      26.298  46.001  51.993  1.00  0.00     0.133 C 
HETATM    2  C   UNL     1      26.144  46.864  50.697  1.00  0.00     0.073 C 
HETATM    3  C   UNL     1      27.068  46.352  49.578  1.00  0.00     0.047 C 
HETATM    4  C   UNL     1      24.683  46.936  50.176  1.00  0.00     0.097 C 
HETATM    5  C   UNL     1      24.069  45.590  50.222  1.00  0.00     0.042 A 
HETATM    6  C   UNL     1      24.433  44.544  51.044  1.00  0.00     0.030 A 
HETATM    7  C   UNL     1      23.510  43.541  50.705  1.00  0.00     0.190 A 
HETATM    8  N   UNL     1      22.663  43.895  49.747  1.00  0.00    -0.149 NA
HETATM    9  N   UNL     1      23.017  45.161  49.468  1.00  0.00    -0.279 N 
HETATM   10  H   UNL     1      22.490  45.665  48.761  1.00  0.00     0.189 HD
HETATM   11  C   UNL     1      25.521  44.648  52.059  1.00  0.00     0.074 C 
ENDROOT
BRANCH  11  12
HETATM   12  C   UNL     1      26.428  43.429  51.945  1.00  0.00    -0.048 A 
HETATM   13  C   UNL     1      26.736  42.786  50.735  1.00  0.00     0.009 A 
HETATM   14  C   UNL     1      27.587  41.676  50.707  1.00  0.00     0.024 A 
HETATM   15  C   UNL     1      28.147  41.199  51.888  1.00  0.00     0.034 A 
HETATM   16 CL   UNL     1      29.189  39.832  51.854  1.00  0.00    -0.084 Cl
HETATM   17  C   UNL     1      27.866  41.823  53.098  1.00  0.00     0.024 A 
HETATM   18  C   UNL     1      27.017  42.933  53.125  1.00  0.00     0.009 A 
ENDBRANCH  11  12
BRANCH   1  19
HETATM   19  C   UNL     1      25.950  46.829  53.217  1.00  0.00     0.267 C 
HETATM   20  O   UNL     1      25.240  47.826  53.156  1.00  0.00    -0.265 OA
BRANCH  19  21
HETATM   21  O   UNL     1      26.507  46.336  54.353  1.00  0.00    -0.321 OA
BRANCH  21  22
HETATM   22  C   UNL     1      27.808  46.844  54.689  1.00  0.00     0.174 C 
HETATM   23  C   UNL     1      28.721  45.696  55.072  1.00  0.00     0.034 C 
ENDBRANCH  21  22
ENDBRANCH  19  21
ENDBRANCH   1  19
BRANCH   2  24
HETATM   24  O   UNL     1      26.572  48.216  50.943  1.00  0.00    -0.389 OA
HETATM   25  H   UNL     1      27.290  48.439  50.321  1.00  0.00     0.210 HD
ENDBRANCH   2  24
BRANCH   7  26
HETATM   26  O   UNL     1      23.374  42.304  51.189  1.00  0.00    -0.343 OA
HETATM   27  H   UNL     1      23.667  42.280  52.112  1.00  0.00     0.219 HD
ENDBRANCH   7  26
TORSDOF 6
ENDMDL
