MODEL 1
REMARK VINA RESULT:      -7.9      0.000      0.000
REMARK  4 active torsions:
REMARK  status: ('A' for Active; 'I' for Inactive)
REMARK    1  A    between atoms: C_5  and  N_6 
REMARK       I    between atoms: N_6  and  C_7 
REMARK    2  A    between atoms: C_7  and  C_8 
REMARK    3  A    between atoms: C_12  and  O_13 
REMARK    4  A    between atoms: C_19  and  C_20 
ROOT
HETATM    1  C   UNL     1      25.597  46.883  50.171  1.00  0.00     0.015 C 
HETATM    2  C   UNL     1      25.763  45.423  50.632  1.00  0.00    -0.040 C 
HETATM    3  C   UNL     1      24.371  44.886  51.021  1.00  0.00     0.015 C 
HETATM    4  C   UNL     1      26.737  45.378  51.828  1.00  0.00     0.039 C 
HETATM    5  C   UNL     1      27.015  43.949  52.329  1.00  0.00     0.122 C 
HETATM    6  C   UNL     1      27.227  42.971  51.206  1.00  0.00     0.007 A 
HETATM    7  C   UNL     1      26.896  43.247  49.891  1.00  0.00     0.047 A 
HETATM    8  N   UNL     1      27.063  42.349  48.895  1.00  0.00    -0.237 NA
HETATM    9  C   UNL     1      27.527  41.124  49.218  1.00  0.00     0.133 A 
HETATM   10  N   UNL     1      27.859  40.765  50.471  1.00  0.00    -0.244 NA
HETATM   11  C   UNL     1      27.683  41.688  51.434  1.00  0.00     0.130 A 
HETATM   12  C   UNL     1      26.366  44.596  49.475  1.00  0.00     0.069 C 
ENDROOT
BRANCH   5  13
HETATM   13  N   UNL     1      28.157  43.962  53.231  1.00  0.00    -0.347 N 
HETATM   14  C   UNL     1      28.030  44.283  54.561  1.00  0.00     0.270 C 
HETATM   15  O   UNL     1      26.949  44.547  55.076  1.00  0.00    -0.266 OA
HETATM   16  H   UNL     1      29.083  43.889  52.831  1.00  0.00     0.163 HD
BRANCH  14  17
HETATM   17  C   UNL     1      29.254  44.281  55.314  1.00  0.00     0.122 A 
HETATM   18  N   UNL     1      29.606  45.349  56.106  1.00  0.00    -0.270 N 
HETATM   19  H   UNL     1      29.078  46.207  56.238  1.00  0.00     0.189 HD
HETATM   20  N   UNL     1      30.774  45.186  56.760  1.00  0.00    -0.149 NA
HETATM   21  C   UNL     1      31.150  43.983  56.361  1.00  0.00     0.183 A 
HETATM   22  C   UNL     1      30.275  43.360  55.472  1.00  0.00     0.096 A 
BRANCH  21  23
HETATM   23  O   UNL     1      32.296  43.543  56.867  1.00  0.00    -0.344 OA
HETATM   24  H   UNL     1      32.080  43.284  57.779  1.00  0.00     0.219 HD
ENDBRANCH  21  23
ENDBRANCH  14  17
ENDBRANCH   5  13
BRANCH   9  25
HETATM   25  C   UNL     1      27.763  40.124  48.090  1.00  0.00     0.011 C 
HETATM   26  C   UNL     1      28.892  39.171  48.513  1.00  0.00     0.023 C 
HETATM   27  C   UNL     1      26.493  39.303  47.795  1.00  0.00     0.023 C 
HETATM   28  C   UNL     1      28.168  40.852  46.793  1.00  0.00     0.023 C 
ENDBRANCH   9  25
TORSDOF 4
ENDMDL
MODEL 2
REMARK VINA RESULT:      -7.8      7.764      9.589
REMARK  4 active torsions:
REMARK  status: ('A' for Active; 'I' for Inactive)
REMARK    1  A    between atoms: C_5  and  N_6 
REMARK       I    between atoms: N_6  and  C_7 
REMARK    2  A    between atoms: C_7  and  C_8 
REMARK    3  A    between atoms: C_12  and  O_13 
REMARK    4  A    between atoms: C_19  and  C_20 
ROOT
HETATM    1  C   UNL     1      19.092  52.490  48.407  1.00  0.00     0.015 C 
HETATM    2  C   UNL     1      19.397  51.011  48.711  1.00  0.00    -0.040 C 
HETATM    3  C   UNL     1      18.444  50.550  49.831  1.00  0.00     0.015 C 
HETATM    4  C   UNL     1      20.873  50.877  49.139  1.00  0.00     0.039 C 
HETATM    5  C   UNL     1      21.295  49.422  49.412  1.00  0.00     0.122 C 
HETATM    6  C   UNL     1      20.768  48.462  48.382  1.00  0.00     0.007 A 
HETATM    7  C   UNL     1      19.765  48.791  47.486  1.00  0.00     0.047 A 
HETATM    8  N   UNL     1      19.278  47.910  46.584  1.00  0.00    -0.237 NA
HETATM    9  C   UNL     1      19.763  46.652  46.602  1.00  0.00     0.133 A 
HETATM   10  N   UNL     1      20.725  46.241  47.447  1.00  0.00    -0.244 NA
HETATM   11  C   UNL     1      21.189  47.148  48.326  1.00  0.00     0.130 A 
HETATM   12  C   UNL     1      19.180  50.179  47.428  1.00  0.00     0.069 C 
ENDROOT
BRANCH   5  13
HETATM   13  N   UNL     1      22.746  49.343  49.502  1.00  0.00    -0.347 N 
HETATM   14  C   UNL     1      23.557  49.628  48.431  1.00  0.00     0.270 C 
HETATM   15  O   UNL     1      23.115  49.993  47.347  1.00  0.00    -0.266 OA
HETATM   16  H   UNL     1      23.152  48.917  50.324  1.00  0.00     0.163 HD
BRANCH  14  17
HETATM   17  C   UNL     1      24.966  49.477  48.668  1.00  0.00     0.122 A 
HETATM   18  N   UNL     1      25.453  48.438  49.428  1.00  0.00    -0.270 N 
HETATM   19  H   UNL     1      24.910  47.710  49.882  1.00  0.00     0.189 HD
HETATM   20  N   UNL     1      26.797  48.426  49.543  1.00  0.00    -0.149 NA
HETATM   21  C   UNL     1      27.146  49.486  48.832  1.00  0.00     0.183 A 
HETATM   22  C   UNL     1      26.084  50.186  48.264  1.00  0.00     0.096 A 
BRANCH  21  23
HETATM   23  O   UNL     1      28.451  49.723  48.758  1.00  0.00    -0.344 OA
HETATM   24  H   UNL     1      28.733  49.293  47.933  1.00  0.00     0.219 HD
ENDBRANCH  21  23
ENDBRANCH  14  17
ENDBRANCH   5  13
BRANCH   9  25
HETATM   25  C   UNL     1      19.250  45.668  45.553  1.00  0.00     0.011 C 
HETATM   26  C   UNL     1      18.835  46.463  44.304  1.00  0.00     0.023 C 
HETATM   27  C   UNL     1      20.337  44.648  45.164  1.00  0.00     0.023 C 
HETATM   28  C   UNL     1      18.035  44.887  46.089  1.00  0.00     0.023 C 
ENDBRANCH   9  25
TORSDOF 4
ENDMDL
MODEL 3
REMARK VINA RESULT:      -7.6     12.027     15.068
REMARK  4 active torsions:
REMARK  status: ('A' for Active; 'I' for Inactive)
REMARK    1  A    between atoms: C_5  and  N_6 
REMARK       I    between atoms: N_6  and  C_7 
REMARK    2  A    between atoms: C_7  and  C_8 
REMARK    3  A    between atoms: C_12  and  O_13 
REMARK    4  A    between atoms: C_19  and  C_20 
ROOT
HETATM    1  C   UNL     1      15.420  51.851  45.036  1.00  0.00     0.015 C 
HETATM    2  C   UNL     1      15.968  51.443  46.417  1.00  0.00    -0.040 C 
HETATM    3  C   UNL     1      15.333  50.092  46.801  1.00  0.00     0.015 C 
HETATM    4  C   UNL     1      15.617  52.541  47.443  1.00  0.00     0.039 C 
HETATM    5  C   UNL     1      16.173  52.254  48.850  1.00  0.00     0.122 C 
HETATM    6  C   UNL     1      17.585  51.737  48.822  1.00  0.00     0.007 A 
HETATM    7  C   UNL     1      18.196  51.270  47.671  1.00  0.00     0.047 A 
HETATM    8  N   UNL     1      19.455  50.779  47.665  1.00  0.00    -0.237 NA
HETATM    9  C   UNL     1      20.112  50.703  48.840  1.00  0.00     0.133 A 
HETATM   10  N   UNL     1      19.589  51.118  50.008  1.00  0.00    -0.244 NA
HETATM   11  C   UNL     1      18.336  51.605  49.973  1.00  0.00     0.130 A 
HETATM   12  C   UNL     1      17.506  51.323  46.332  1.00  0.00     0.069 C 
ENDROOT
BRANCH   5  13
HETATM   13  N   UNL     1      16.074  53.454  49.667  1.00  0.00    -0.347 N 
HETATM   14  C   UNL     1      15.043  53.647  50.554  1.00  0.00     0.270 C 
HETATM   15  O   UNL     1      14.163  52.813  50.736  1.00  0.00    -0.266 OA
HETATM   16  H   UNL     1      16.692  54.227  49.458  1.00  0.00     0.163 HD
BRANCH  14  17
HETATM   17  C   UNL     1      15.070  54.896  51.266  1.00  0.00     0.122 A 
HETATM   18  N   UNL     1      15.020  54.934  52.641  1.00  0.00    -0.270 N 
HETATM   19  H   UNL     1      14.958  54.138  53.269  1.00  0.00     0.189 HD
HETATM   20  N   UNL     1      15.071  56.179  53.156  1.00  0.00    -0.149 NA
HETATM   21  C   UNL     1      15.157  56.927  52.069  1.00  0.00     0.183 A 
HETATM   22  C   UNL     1      15.160  56.218  50.870  1.00  0.00     0.096 A 
BRANCH  21  23
HETATM   23  O   UNL     1      15.233  58.236  52.278  1.00  0.00    -0.344 OA
HETATM   24  H   UNL     1      15.077  58.343  53.232  1.00  0.00     0.219 HD
ENDBRANCH  21  23
ENDBRANCH  14  17
ENDBRANCH   5  13
BRANCH   9  25
HETATM   25  C   UNL     1      21.551  50.194  48.828  1.00  0.00     0.011 C 
HETATM   26  C   UNL     1      21.530  48.672  49.037  1.00  0.00     0.023 C 
HETATM   27  C   UNL     1      22.244  50.511  47.489  1.00  0.00     0.023 C 
HETATM   28  C   UNL     1      22.370  50.854  49.954  1.00  0.00     0.023 C 
ENDBRANCH   9  25
TORSDOF 4
ENDMDL
MODEL 4
REMARK VINA RESULT:      -7.5      3.197      7.678
REMARK  4 active torsions:
REMARK  status: ('A' for Active; 'I' for Inactive)
REMARK    1  A    between atoms: C_5  and  N_6 
REMARK       I    between atoms: N_6  and  C_7 
REMARK    2  A    between atoms: C_7  and  C_8 
REMARK    3  A    between atoms: C_12  and  O_13 
REMARK    4  A    between atoms: C_19  and  C_20 
ROOT
HETATM    1  C   UNL     1      28.927  40.623  51.314  1.00  0.00     0.015 C 
HETATM    2  C   UNL     1      28.288  41.533  52.380  1.00  0.00    -0.040 C 
HETATM    3  C   UNL     1      27.433  40.648  53.310  1.00  0.00     0.015 C 
HETATM    4  C   UNL     1      27.429  42.605  51.679  1.00  0.00     0.039 C 
HETATM    5  C   UNL     1      26.789  43.605  52.660  1.00  0.00     0.122 C 
HETATM    6  C   UNL     1      27.740  44.052  53.736  1.00  0.00     0.007 A 
HETATM    7  C   UNL     1      28.934  43.406  54.005  1.00  0.00     0.047 A 
HETATM    8  N   UNL     1      29.766  43.799  54.995  1.00  0.00    -0.237 NA
HETATM    9  C   UNL     1      29.382  44.832  55.773  1.00  0.00     0.133 A 
HETATM   10  N   UNL     1      28.232  45.506  55.593  1.00  0.00    -0.244 NA
HETATM   11  C   UNL     1      27.434  45.089  54.595  1.00  0.00     0.130 A 
HETATM   12  C   UNL     1      29.408  42.241  53.174  1.00  0.00     0.069 C 
ENDROOT
BRANCH   5  13
HETATM   13  N   UNL     1      26.265  44.745  51.922  1.00  0.00    -0.347 N 
HETATM   14  C   UNL     1      24.960  44.797  51.495  1.00  0.00     0.270 C 
HETATM   15  O   UNL     1      24.151  43.906  51.733  1.00  0.00    -0.266 OA
HETATM   16  H   UNL     1      26.920  45.436  51.582  1.00  0.00     0.163 HD
BRANCH  14  17
HETATM   17  C   UNL     1      24.602  45.975  50.753  1.00  0.00     0.122 A 
HETATM   18  N   UNL     1      23.556  45.964  49.860  1.00  0.00    -0.270 N 
HETATM   19  H   UNL     1      22.959  45.174  49.633  1.00  0.00     0.189 HD
HETATM   20  N   UNL     1      23.337  47.151  49.258  1.00  0.00    -0.149 NA
HETATM   21  C   UNL     1      24.273  47.913  49.798  1.00  0.00     0.183 A 
HETATM   22  C   UNL     1      25.092  47.268  50.723  1.00  0.00     0.096 A 
BRANCH  21  23
HETATM   23  O   UNL     1      24.292  49.176  49.387  1.00  0.00    -0.344 OA
HETATM   24  H   UNL     1      24.887  49.175  48.617  1.00  0.00     0.219 HD
ENDBRANCH  21  23
ENDBRANCH  14  17
ENDBRANCH   5  13
BRANCH   9  25
HETATM   25  C   UNL     1      30.341  45.309  56.860  1.00  0.00     0.011 C 
HETATM   26  C   UNL     1      31.209  46.438  56.281  1.00  0.00     0.023 C 
HETATM   27  C   UNL     1      29.576  45.839  58.088  1.00  0.00     0.023 C 
HETATM   28  C   UNL     1      31.249  44.155  57.328  1.00  0.00     0.023 C 
ENDBRANCH   9  25
TORSDOF 4
ENDMDL
MODEL 5
REMARK VINA RESULT:      -7.4      3.136      5.966
REMARK  4 active torsions:
REMARK  status: ('A' for Active; 'I' for Inactive)
REMARK    1  A    between atoms: C_5  and  N_6 
REMARK       I    between atoms: N_6  and  C_7 
REMARK    2  A    between atoms: C_7  and  C_8 
REMARK    3  A    between atoms: C_12  and  O_13 
REMARK    4  A    between atoms: C_19  and  C_20 
ROOT
HETATM    1  C   UNL     1      23.180  42.355  50.315  1.00  0.00     0.015 C 
HETATM    2  C   UNL     1      24.059  43.583  50.014  1.00  0.00    -0.040 C 
HETATM    3  C   UNL     1      24.908  43.266  48.767  1.00  0.00     0.015 C 
HETATM    4  C   UNL     1      24.950  43.879  51.239  1.00  0.00     0.039 C 
HETATM    5  C   UNL     1      25.831  45.129  51.059  1.00  0.00     0.122 C 
HETATM    6  C   UNL     1      25.089  46.275  50.430  1.00  0.00     0.007 A 
HETATM    7  C   UNL     1      23.868  46.129  49.796  1.00  0.00     0.047 A 
HETATM    8  N   UNL     1      23.225  47.162  49.207  1.00  0.00    -0.237 NA
HETATM    9  C   UNL     1      23.832  48.366  49.204  1.00  0.00     0.133 A 
HETATM   10  N   UNL     1      25.025  48.596  49.781  1.00  0.00    -0.244 NA
HETATM   11  C   UNL     1      25.630  47.544  50.362  1.00  0.00     0.130 A 
HETATM   12  C   UNL     1      23.148  44.804  49.762  1.00  0.00     0.069 C 
ENDROOT
BRANCH   5  13
HETATM   13  N   UNL     1      26.395  45.516  52.344  1.00  0.00    -0.347 N 
HETATM   14  C   UNL     1      27.494  44.886  52.875  1.00  0.00     0.270 C 
HETATM   15  O   UNL     1      28.085  43.984  52.291  1.00  0.00    -0.266 OA
HETATM   16  H   UNL     1      25.868  46.154  52.925  1.00  0.00     0.163 HD
BRANCH  14  17
HETATM   17  C   UNL     1      27.914  45.363  54.164  1.00  0.00     0.122 A 
HETATM   18  N   UNL     1      27.359  46.492  54.722  1.00  0.00    -0.270 N 
HETATM   19  H   UNL     1      26.641  47.082  54.312  1.00  0.00     0.189 HD
HETATM   20  N   UNL     1      27.848  46.797  55.942  1.00  0.00    -0.149 NA
HETATM   21  C   UNL     1      28.725  45.828  56.140  1.00  0.00     0.183 A 
HETATM   22  C   UNL     1      28.828  44.908  55.099  1.00  0.00     0.096 A 
BRANCH  21  23
HETATM   23  O   UNL     1      29.371  45.868  57.300  1.00  0.00    -0.344 OA
HETATM   24  H   UNL     1      28.682  46.058  57.959  1.00  0.00     0.219 HD
ENDBRANCH  21  23
ENDBRANCH  14  17
ENDBRANCH   5  13
BRANCH   9  25
HETATM   25  C   UNL     1      23.087  49.545  48.583  1.00  0.00     0.011 C 
HETATM   26  C   UNL     1      21.952  48.994  47.705  1.00  0.00     0.023 C 
HETATM   27  C   UNL     1      22.488  50.462  49.667  1.00  0.00     0.023 C 
HETATM   28  C   UNL     1      24.038  50.394  47.716  1.00  0.00     0.023 C 
ENDBRANCH   9  25
TORSDOF 4
ENDMDL
MODEL 6
REMARK VINA RESULT:      -7.1     13.052     15.491
REMARK  4 active torsions:
REMARK  status: ('A' for Active; 'I' for Inactive)
REMARK    1  A    between atoms: C_5  and  N_6 
REMARK       I    between atoms: N_6  and  C_7 
REMARK    2  A    between atoms: C_7  and  C_8 
REMARK    3  A    between atoms: C_12  and  O_13 
REMARK    4  A    between atoms: C_19  and  C_20 
ROOT
HETATM    1  C   UNL     1      28.782  46.208  37.600  1.00  0.00     0.015 C 
HETATM    2  C   UNL     1      28.507  47.086  38.835  1.00  0.00    -0.040 C 
HETATM    3  C   UNL     1      28.709  46.217  40.092  1.00  0.00     0.015 C 
HETATM    4  C   UNL     1      27.067  47.633  38.755  1.00  0.00     0.039 C 
HETATM    5  C   UNL     1      26.710  48.573  39.921  1.00  0.00     0.122 C 
HETATM    6  C   UNL     1      27.816  49.539  40.245  1.00  0.00     0.007 A 
HETATM    7  C   UNL     1      29.111  49.391  39.777  1.00  0.00     0.047 A 
HETATM    8  N   UNL     1      30.103  50.249  40.101  1.00  0.00    -0.237 NA
HETATM    9  C   UNL     1      29.818  51.256  40.952  1.00  0.00     0.133 A 
HETATM   10  N   UNL     1      28.594  51.465  41.468  1.00  0.00    -0.244 NA
HETATM   11  C   UNL     1      27.631  50.593  41.118  1.00  0.00     0.130 A 
HETATM   12  C   UNL     1      29.487  48.281  38.830  1.00  0.00     0.069 C 
ENDROOT
BRANCH   5  13
HETATM   13  N   UNL     1      25.475  49.280  39.617  1.00  0.00    -0.347 N 
HETATM   14  C   UNL     1      24.242  48.707  39.816  1.00  0.00     0.270 C 
HETATM   15  O   UNL     1      24.104  47.584  40.288  1.00  0.00    -0.266 OA
HETATM   16  H   UNL     1      25.535  50.148  39.101  1.00  0.00     0.163 HD
BRANCH  14  17
HETATM   17  C   UNL     1      23.118  49.521  39.440  1.00  0.00     0.122 A 
HETATM   18  N   UNL     1      23.023  50.834  39.839  1.00  0.00    -0.270 N 
HETATM   19  H   UNL     1      23.689  51.345  40.412  1.00  0.00     0.189 HD
HETATM   20  N   UNL     1      21.918  51.465  39.391  1.00  0.00    -0.149 NA
HETATM   21  C   UNL     1      21.319  50.514  38.694  1.00  0.00     0.183 A 
HETATM   22  C   UNL     1      21.988  49.291  38.675  1.00  0.00     0.096 A 
BRANCH  21  23
HETATM   23  O   UNL     1      20.177  50.862  38.112  1.00  0.00    -0.344 OA
HETATM   24  H   UNL     1      20.155  51.832  38.175  1.00  0.00     0.219 HD
ENDBRANCH  21  23
ENDBRANCH  14  17
ENDBRANCH   5  13
BRANCH   9  25
HETATM   25  C   UNL     1      30.925  52.254  41.281  1.00  0.00     0.011 C 
HETATM   26  C   UNL     1      32.235  51.752  40.653  1.00  0.00     0.023 C 
HETATM   27  C   UNL     1      30.600  53.653  40.722  1.00  0.00     0.023 C 
HETATM   28  C   UNL     1      31.106  52.383  42.806  1.00  0.00     0.023 C 
ENDBRANCH   9  25
TORSDOF 4
ENDMDL
MODEL 7
REMARK VINA RESULT:      -7.0     15.796     17.053
REMARK  4 active torsions:
REMARK  status: ('A' for Active; 'I' for Inactive)
REMARK    1  A    between atoms: C_5  and  N_6 
REMARK       I    between atoms: N_6  and  C_7 
REMARK    2  A    between atoms: C_7  and  C_8 
REMARK    3  A    between atoms: C_12  and  O_13 
REMARK    4  A    between atoms: C_19  and  C_20 
ROOT
HETATM    1  C   UNL     1      37.763  47.553  65.995  1.00  0.00     0.015 C 
HETATM    2  C   UNL     1      37.194  46.227  65.455  1.00  0.00    -0.040 C 
HETATM    3  C   UNL     1      36.660  46.484  64.031  1.00  0.00     0.015 C 
HETATM    4  C   UNL     1      36.073  45.739  66.396  1.00  0.00     0.039 C 
HETATM    5  C   UNL     1      35.473  44.385  65.972  1.00  0.00     0.122 C 
HETATM    6  C   UNL     1      36.521  43.395  65.547  1.00  0.00     0.007 A 
HETATM    7  C   UNL     1      37.828  43.752  65.261  1.00  0.00     0.047 A 
HETATM    8  N   UNL     1      38.753  42.857  64.850  1.00  0.00    -0.237 NA
HETATM    9  C   UNL     1      38.362  41.579  64.670  1.00  0.00     0.133 A 
HETATM   10  N   UNL     1      37.111  41.147  64.907  1.00  0.00    -0.244 NA
HETATM   11  C   UNL     1      36.220  42.067  65.320  1.00  0.00     0.130 A 
HETATM   12  C   UNL     1      38.317  45.168  65.437  1.00  0.00     0.069 C 
ENDROOT
BRANCH   5  13
HETATM   13  N   UNL     1      34.661  43.851  67.056  1.00  0.00    -0.347 N 
HETATM   14  C   UNL     1      33.473  43.202  66.822  1.00  0.00     0.270 C 
HETATM   15  O   UNL     1      33.039  43.006  65.693  1.00  0.00    -0.266 OA
HETATM   16  H   UNL     1      34.903  44.106  68.004  1.00  0.00     0.163 HD
BRANCH  14  17
HETATM   17  C   UNL     1      32.774  42.759  67.997  1.00  0.00     0.122 A 
HETATM   18  N   UNL     1      31.750  43.501  68.540  1.00  0.00    -0.270 N 
HETATM   19  H   UNL     1      31.398  44.391  68.199  1.00  0.00     0.189 HD
HETATM   20  N   UNL     1      31.185  42.942  69.629  1.00  0.00    -0.149 NA
HETATM   21  C   UNL     1      31.879  41.823  69.758  1.00  0.00     0.183 A 
HETATM   22  C   UNL     1      32.872  41.636  68.799  1.00  0.00     0.096 A 
BRANCH  21  23
HETATM   23  O   UNL     1      31.525  41.042  70.773  1.00  0.00    -0.344 OA
HETATM   24  H   UNL     1      31.207  41.657  71.457  1.00  0.00     0.219 HD
ENDBRANCH  21  23
ENDBRANCH  14  17
ENDBRANCH   5  13
BRANCH   9  25
HETATM   25  C   UNL     1      39.416  40.557  64.253  1.00  0.00     0.011 C 
HETATM   26  C   UNL     1      40.797  41.082  64.678  1.00  0.00     0.023 C 
HETATM   27  C   UNL     1      39.167  39.192  64.922  1.00  0.00     0.023 C 
HETATM   28  C   UNL     1      39.396  40.348  62.726  1.00  0.00     0.023 C 
ENDBRANCH   9  25
TORSDOF 4
ENDMDL
MODEL 8
REMARK VINA RESULT:      -6.8     10.142     13.234
REMARK  4 active torsions:
REMARK  status: ('A' for Active; 'I' for Inactive)
REMARK    1  A    between atoms: C_5  and  N_6 
REMARK       I    between atoms: N_6  and  C_7 
REMARK    2  A    between atoms: C_7  and  C_8 
REMARK    3  A    between atoms: C_12  and  O_13 
REMARK    4  A    between atoms: C_19  and  C_20 
ROOT
HETATM    1  C   UNL     1      16.130  52.346  49.747  1.00  0.00     0.015 C 
HETATM    2  C   UNL     1      16.615  51.511  48.547  1.00  0.00    -0.040 C 
HETATM    3  C   UNL     1      15.714  50.265  48.439  1.00  0.00     0.015 C 
HETATM    4  C   UNL     1      18.091  51.119  48.769  1.00  0.00     0.039 C 
HETATM    5  C   UNL     1      18.690  50.326  47.593  1.00  0.00     0.122 C 
HETATM    6  C   UNL     1      18.301  50.890  46.254  1.00  0.00     0.007 A 
HETATM    7  C   UNL     1      17.276  51.806  46.089  1.00  0.00     0.047 A 
HETATM    8  N   UNL     1      16.915  52.282  44.877  1.00  0.00    -0.237 NA
HETATM    9  C   UNL     1      17.556  51.803  43.791  1.00  0.00     0.133 A 
HETATM   10  N   UNL     1      18.552  50.901  43.857  1.00  0.00    -0.244 NA
HETATM   11  C   UNL     1      18.885  50.455  45.081  1.00  0.00     0.130 A 
HETATM   12  C   UNL     1      16.521  52.369  47.266  1.00  0.00     0.069 C 
ENDROOT
BRANCH   5  13
HETATM   13  N   UNL     1      20.138  50.267  47.732  1.00  0.00    -0.347 N 
HETATM   14  C   UNL     1      20.751  49.371  48.574  1.00  0.00     0.270 C 
HETATM   15  O   UNL     1      20.125  48.550  49.234  1.00  0.00    -0.266 OA
HETATM   16  H   UNL     1      20.688  51.008  47.319  1.00  0.00     0.163 HD
BRANCH  14  17
HETATM   17  C   UNL     1      22.185  49.456  48.623  1.00  0.00     0.122 A 
HETATM   18  N   UNL     1      22.900  48.864  49.638  1.00  0.00    -0.270 N 
HETATM   19  H   UNL     1      22.522  48.337  50.420  1.00  0.00     0.189 HD
HETATM   20  N   UNL     1      24.235  49.020  49.532  1.00  0.00    -0.149 NA
HETATM   21  C   UNL     1      24.345  49.727  48.420  1.00  0.00     0.183 A 
HETATM   22  C   UNL     1      23.136  50.038  47.802  1.00  0.00     0.096 A 
BRANCH  21  23
HETATM   23  O   UNL     1      25.585  50.030  48.053  1.00  0.00    -0.344 OA
HETATM   24  H   UNL     1      25.526  50.940  47.715  1.00  0.00     0.219 HD
ENDBRANCH  21  23
ENDBRANCH  14  17
ENDBRANCH   5  13
BRANCH   9  25
HETATM   25  C   UNL     1      17.184  52.375  42.426  1.00  0.00     0.011 C 
HETATM   26  C   UNL     1      18.362  52.144  41.465  1.00  0.00     0.023 C 
HETATM   27  C   UNL     1      15.927  51.691  41.856  1.00  0.00     0.023 C 
HETATM   28  C   UNL     1      16.897  53.886  42.529  1.00  0.00     0.023 C 
ENDBRANCH   9  25
TORSDOF 4
ENDMDL
MODEL 9
REMARK VINA RESULT:      -6.8      5.789      8.999
REMARK  4 active torsions:
REMARK  status: ('A' for Active; 'I' for Inactive)
REMARK    1  A    between atoms: C_5  and  N_6 
REMARK       I    between atoms: N_6  and  C_7 
REMARK    2  A    between atoms: C_7  and  C_8 
REMARK    3  A    between atoms: C_12  and  O_13 
REMARK    4  A    between atoms: C_19  and  C_20 
ROOT
HETATM    1  C   UNL     1      20.265  43.795  46.351  1.00  0.00     0.015 C 
HETATM    2  C   UNL     1      20.949  45.120  46.738  1.00  0.00    -0.040 C 
HETATM    3  C   UNL     1      21.758  45.609  45.520  1.00  0.00     0.015 C 
HETATM    4  C   UNL     1      21.860  44.880  47.959  1.00  0.00     0.039 C 
HETATM    5  C   UNL     1      22.550  46.163  48.461  1.00  0.00     0.122 C 
HETATM    6  C   UNL     1      21.622  47.346  48.491  1.00  0.00     0.007 A 
HETATM    7  C   UNL     1      20.398  47.363  47.847  1.00  0.00     0.047 A 
HETATM    8  N   UNL     1      19.587  48.444  47.856  1.00  0.00    -0.237 NA
HETATM    9  C   UNL     1      20.021  49.557  48.480  1.00  0.00     0.133 A 
HETATM   10  N   UNL     1      21.203  49.635  49.117  1.00  0.00    -0.244 NA
HETATM   11  C   UNL     1      21.980  48.537  49.091  1.00  0.00     0.130 A 
HETATM   12  C   UNL     1      19.865  46.150  47.127  1.00  0.00     0.069 C 
ENDROOT
BRANCH   5  13
HETATM   13  N   UNL     1      23.130  45.922  49.774  1.00  0.00    -0.347 N 
HETATM   14  C   UNL     1      24.486  45.965  49.988  1.00  0.00     0.270 C 
HETATM   15  O   UNL     1      25.287  46.236  49.101  1.00  0.00    -0.266 OA
HETATM   16  H   UNL     1      22.529  45.561  50.503  1.00  0.00     0.163 HD
BRANCH  14  17
HETATM   17  C   UNL     1      24.906  45.676  51.333  1.00  0.00     0.122 A 
HETATM   18  N   UNL     1      24.567  44.493  51.947  1.00  0.00    -0.270 N 
HETATM   19  H   UNL     1      24.015  43.738  51.550  1.00  0.00     0.189 HD
HETATM   20  N   UNL     1      25.051  44.367  53.199  1.00  0.00    -0.149 NA
HETATM   21  C   UNL     1      25.707  45.504  53.359  1.00  0.00     0.183 A 
HETATM   22  C   UNL     1      25.666  46.363  52.263  1.00  0.00     0.096 A 
BRANCH  21  23
HETATM   23  O   UNL     1      26.311  45.658  54.532  1.00  0.00    -0.344 OA
HETATM   24  H   UNL     1      26.043  46.543  54.833  1.00  0.00     0.219 HD
ENDBRANCH  21  23
ENDBRANCH  14  17
ENDBRANCH   5  13
BRANCH   9  25
HETATM   25  C   UNL     1      19.087  50.763  48.534  1.00  0.00     0.011 C 
HETATM   26  C   UNL     1      19.938  52.041  48.445  1.00  0.00     0.023 C 
HETATM   27  C   UNL     1      18.082  50.744  47.365  1.00  0.00     0.023 C 
HETATM   28  C   UNL     1      18.285  50.772  49.849  1.00  0.00     0.023 C 
ENDBRANCH   9  25
TORSDOF 4
ENDMDL
MODEL 10
REMARK VINA RESULT:      -6.7     16.094     18.953
REMARK  4 active torsions:
REMARK  status: ('A' for Active; 'I' for Inactive)
REMARK    1  A    between atoms: C_5  and  N_6 
REMARK       I    between atoms: N_6  and  C_7 
REMARK    2  A    between atoms: C_7  and  C_8 
REMARK    3  A    between atoms: C_12  and  O_13 
REMARK    4  A    between atoms: C_19  and  C_20 
ROOT
HETATM    1  C   UNL     1      44.303  46.600  64.943  1.00  0.00     0.015 C 
HETATM    2  C   UNL     1      42.941  46.119  65.479  1.00  0.00    -0.040 C 
HETATM    3  C   UNL     1      43.053  45.984  67.011  1.00  0.00     0.015 C 
HETATM    4  C   UNL     1      42.587  44.769  64.821  1.00  0.00     0.039 C 
HETATM    5  C   UNL     1      41.211  44.228  65.250  1.00  0.00     0.122 C 
HETATM    6  C   UNL     1      40.154  45.297  65.286  1.00  0.00     0.007 A 
HETATM    7  C   UNL     1      40.444  46.650  65.253  1.00  0.00     0.047 A 
HETATM    8  N   UNL     1      39.486  47.601  65.317  1.00  0.00    -0.237 NA
HETATM    9  C   UNL     1      38.207  47.203  65.465  1.00  0.00     0.133 A 
HETATM   10  N   UNL     1      37.835  45.912  65.522  1.00  0.00    -0.244 NA
HETATM   11  C   UNL     1      38.816  44.994  65.450  1.00  0.00     0.130 A 
HETATM   12  C   UNL     1      41.857  47.152  65.097  1.00  0.00     0.069 C 
ENDROOT
BRANCH   5  13
HETATM   13  N   UNL     1      40.819  43.138  64.369  1.00  0.00    -0.347 N 
HETATM   14  C   UNL     1      40.434  41.913  64.856  1.00  0.00     0.270 C 
HETATM   15  O   UNL     1      40.366  41.670  66.056  1.00  0.00    -0.266 OA
HETATM   16  H   UNL     1      40.989  43.240  63.378  1.00  0.00     0.163 HD
BRANCH  14  17
HETATM   17  C   UNL     1      40.106  40.930  63.860  1.00  0.00     0.122 A 
HETATM   18  N   UNL     1      39.394  41.269  62.732  1.00  0.00    -0.270 N 
HETATM   19  H   UNL     1      39.039  42.189  62.491  1.00  0.00     0.189 HD
HETATM   20  N   UNL     1      39.183  40.239  61.888  1.00  0.00    -0.149 NA
HETATM   21  C   UNL     1      39.782  39.239  62.513  1.00  0.00     0.183 A 
HETATM   22  C   UNL     1      40.371  39.578  63.729  1.00  0.00     0.096 A 
BRANCH  21  23
HETATM   23  O   UNL     1      39.741  38.067  61.891  1.00  0.00    -0.344 OA
HETATM   24  H   UNL     1      39.908  37.411  62.590  1.00  0.00     0.219 HD
ENDBRANCH  21  23
ENDBRANCH  14  17
ENDBRANCH   5  13
BRANCH   9  25
HETATM   25  C   UNL     1      37.118  48.273  65.489  1.00  0.00     0.011 C 
HETATM   26  C   UNL     1      36.682  48.553  64.042  1.00  0.00     0.023 C 
HETATM   27  C   UNL     1      35.896  47.810  66.304  1.00  0.00     0.023 C 
HETATM   28  C   UNL     1      37.648  49.573  66.125  1.00  0.00     0.023 C 
ENDBRANCH   9  25
TORSDOF 4
ENDMDL
