MODEL 1
REMARK VINA RESULT:      -8.8      0.000      0.000
REMARK  4 active torsions:
REMARK  status: ('A' for Active; 'I' for Inactive)
REMARK    1  A    between atoms: C_4  and  N_5 
REMARK    2  A    between atoms: N_5  and  N_6 
REMARK       I    between atoms: N_6  and  C_7 
REMARK    3  A    between atoms: C_7  and  C_8 
REMARK    4  A    between atoms: C_9  and  C_10 
ROOT
HETATM    1  C   UNL     1      26.078  46.428  52.876  1.00  0.00     0.081 A 
HETATM    2  C   UNL     1      26.360  45.178  52.243  1.00  0.00     0.106 A 
HETATM    3  N   UNL     1      25.795  45.111  51.026  1.00  0.00    -0.173 NA
HETATM    4  N   UNL     1      25.165  46.283  50.881  1.00  0.00    -0.288 N 
HETATM    5  H   UNL     1      24.658  46.453  50.018  1.00  0.00     0.188 HD
HETATM    6  C   UNL     1      25.322  47.114  51.944  1.00  0.00     0.128 A 
ENDROOT
BRANCH   1   7
HETATM    7  C   UNL     1      26.481  46.972  54.163  1.00  0.00     0.270 C 
HETATM    8  N   UNL     1      27.684  46.495  54.653  1.00  0.00    -0.283 N 
HETATM    9  H   UNL     1      28.229  45.775  54.192  1.00  0.00     0.184 HD
HETATM   10  O   UNL     1      25.781  47.785  54.762  1.00  0.00    -0.266 OA
BRANCH   8  11
HETATM   11  N   UNL     1      28.085  46.911  55.933  1.00  0.00    -0.203 NA
HETATM   12  H   UNL     1      28.252  47.917  55.973  1.00  0.00     0.153 HD
BRANCH  11  13
HETATM   13  C   UNL     1      29.100  46.135  56.533  1.00  0.00     0.028 A 
HETATM   14  C   UNL     1      29.780  45.127  55.835  1.00  0.00     0.032 A 
HETATM   15  C   UNL     1      30.735  44.316  56.470  1.00  0.00    -0.060 A 
HETATM   16  C   UNL     1      31.417  43.210  55.720  1.00  0.00     0.048 C 
HETATM   17  C   UNL     1      30.983  44.497  57.834  1.00  0.00     0.007 A 
HETATM   18  C   UNL     1      30.294  45.476  58.548  1.00  0.00     0.002 A 
HETATM   19  C   UNL     1      29.352  46.279  57.903  1.00  0.00     0.025 A 
ENDBRANCH  11  13
ENDBRANCH   8  11
ENDBRANCH   1   7
BRANCH   2  20
HETATM   20  C   UNL     1      27.216  44.091  52.708  1.00  0.00     0.017 A 
HETATM   21  C   UNL     1      26.903  43.307  53.828  1.00  0.00     0.046 A 
HETATM   22 CL   UNL     1      25.522  43.613  54.824  1.00  0.00    -0.083 Cl
HETATM   23  C   UNL     1      27.749  42.260  54.212  1.00  0.00     0.025 A 
HETATM   24  C   UNL     1      28.914  41.994  53.489  1.00  0.00     0.002 A 
HETATM   25  C   UNL     1      29.237  42.773  52.381  1.00  0.00     0.001 A 
HETATM   26  C   UNL     1      28.393  43.814  51.989  1.00  0.00     0.016 A 
ENDBRANCH   2  20
TORSDOF 4
ENDMDL
MODEL 2
REMARK VINA RESULT:      -8.7      2.760      4.439
REMARK  4 active torsions:
REMARK  status: ('A' for Active; 'I' for Inactive)
REMARK    1  A    between atoms: C_4  and  N_5 
REMARK    2  A    between atoms: N_5  and  N_6 
REMARK       I    between atoms: N_6  and  C_7 
REMARK    3  A    between atoms: C_7  and  C_8 
REMARK    4  A    between atoms: C_9  and  C_10 
ROOT
HETATM    1  C   UNL     1      25.155  46.009  51.633  1.00  0.00     0.081 A 
HETATM    2  C   UNL     1      25.158  46.384  50.254  1.00  0.00     0.106 A 
HETATM    3  N   UNL     1      24.519  45.473  49.501  1.00  0.00    -0.173 NA
HETATM    4  N   UNL     1      24.118  44.538  50.370  1.00  0.00    -0.288 N 
HETATM    5  H   UNL     1      23.606  43.737  50.014  1.00  0.00     0.188 HD
HETATM    6  C   UNL     1      24.449  44.820  51.657  1.00  0.00     0.128 A 
ENDROOT
BRANCH   1   7
HETATM    7  C   UNL     1      25.687  46.668  52.815  1.00  0.00     0.270 C 
HETATM    8  N   UNL     1      26.577  45.913  53.559  1.00  0.00    -0.283 N 
HETATM    9  H   UNL     1      26.806  44.949  53.345  1.00  0.00     0.184 HD
HETATM   10  O   UNL     1      25.348  47.809  53.121  1.00  0.00    -0.266 OA
BRANCH   8  11
HETATM   11  N   UNL     1      27.056  46.457  54.762  1.00  0.00    -0.203 NA
HETATM   12  H   UNL     1      27.080  47.477  54.738  1.00  0.00     0.153 HD
BRANCH  11  13
HETATM   13  C   UNL     1      28.235  45.867  55.267  1.00  0.00     0.028 A 
HETATM   14  C   UNL     1      28.843  44.764  54.649  1.00  0.00     0.032 A 
HETATM   15  C   UNL     1      29.972  44.145  55.207  1.00  0.00    -0.060 A 
HETATM   16  C   UNL     1      30.580  42.937  54.558  1.00  0.00     0.048 C 
HETATM   17  C   UNL     1      30.476  44.617  56.423  1.00  0.00     0.007 A 
HETATM   18  C   UNL     1      29.866  45.693  57.064  1.00  0.00     0.002 A 
HETATM   19  C   UNL     1      28.748  46.304  56.495  1.00  0.00     0.025 A 
ENDBRANCH  11  13
ENDBRANCH   8  11
ENDBRANCH   1   7
BRANCH   2  20
HETATM   20  C   UNL     1      25.661  47.610  49.641  1.00  0.00     0.017 A 
HETATM   21  C   UNL     1      24.814  48.626  49.175  1.00  0.00     0.046 A 
HETATM   22 CL   UNL     1      23.090  48.485  49.196  1.00  0.00    -0.083 Cl
HETATM   23  C   UNL     1      25.354  49.792  48.621  1.00  0.00     0.025 A 
HETATM   24  C   UNL     1      26.738  49.948  48.518  1.00  0.00     0.002 A 
HETATM   25  C   UNL     1      27.586  48.940  48.968  1.00  0.00     0.001 A 
HETATM   26  C   UNL     1      27.053  47.777  49.530  1.00  0.00     0.016 A 
ENDBRANCH   2  20
TORSDOF 4
ENDMDL
MODEL 3
REMARK VINA RESULT:      -8.5      2.887      4.375
REMARK  4 active torsions:
REMARK  status: ('A' for Active; 'I' for Inactive)
REMARK    1  A    between atoms: C_4  and  N_5 
REMARK    2  A    between atoms: N_5  and  N_6 
REMARK       I    between atoms: N_6  and  C_7 
REMARK    3  A    between atoms: C_7  and  C_8 
REMARK    4  A    between atoms: C_9  and  C_10 
ROOT
HETATM    1  C   UNL     1      27.181  41.788  51.784  1.00  0.00     0.081 A 
HETATM    2  C   UNL     1      26.259  42.831  51.462  1.00  0.00     0.106 A 
HETATM    3  N   UNL     1      25.387  42.435  50.521  1.00  0.00    -0.173 NA
HETATM    4  N   UNL     1      25.739  41.174  50.242  1.00  0.00    -0.288 N 
HETATM    5  H   UNL     1      25.206  40.669  49.541  1.00  0.00     0.188 HD
HETATM    6  C   UNL     1      26.787  40.731  50.984  1.00  0.00     0.128 A 
ENDROOT
BRANCH   1   7
HETATM    7  C   UNL     1      28.275  41.725  52.740  1.00  0.00     0.270 C 
HETATM    8  N   UNL     1      29.145  42.801  52.709  1.00  0.00    -0.283 N 
HETATM    9  H   UNL     1      29.077  43.556  52.036  1.00  0.00     0.184 HD
HETATM   10  O   UNL     1      28.407  40.771  53.502  1.00  0.00    -0.266 OA
BRANCH   8  11
HETATM   11  N   UNL     1      30.274  42.759  53.544  1.00  0.00    -0.203 NA
HETATM   12  H   UNL     1      30.592  41.803  53.707  1.00  0.00     0.153 HD
BRANCH  11  13
HETATM   13  C   UNL     1      30.194  43.546  54.712  1.00  0.00     0.028 A 
HETATM   14  C   UNL     1      29.280  44.602  54.841  1.00  0.00     0.032 A 
HETATM   15  C   UNL     1      29.265  45.421  55.981  1.00  0.00    -0.060 A 
HETATM   16  C   UNL     1      28.312  46.575  56.081  1.00  0.00     0.048 C 
HETATM   17  C   UNL     1      30.207  45.199  56.990  1.00  0.00     0.007 A 
HETATM   18  C   UNL     1      31.142  44.173  56.865  1.00  0.00     0.002 A 
HETATM   19  C   UNL     1      31.141  43.362  55.729  1.00  0.00     0.025 A 
ENDBRANCH  11  13
ENDBRANCH   8  11
ENDBRANCH   1   7
BRANCH   2  20
HETATM   20  C   UNL     1      26.117  44.147  52.077  1.00  0.00     0.017 A 
HETATM   21  C   UNL     1      26.364  45.339  51.378  1.00  0.00     0.046 A 
HETATM   22 CL   UNL     1      26.949  45.362  49.751  1.00  0.00    -0.083 Cl
HETATM   23  C   UNL     1      26.186  46.574  52.012  1.00  0.00     0.025 A 
HETATM   24  C   UNL     1      25.772  46.629  53.345  1.00  0.00     0.002 A 
HETATM   25  C   UNL     1      25.535  45.451  54.048  1.00  0.00     0.001 A 
HETATM   26  C   UNL     1      25.703  44.216  53.418  1.00  0.00     0.016 A 
ENDBRANCH   2  20
TORSDOF 4
ENDMDL
MODEL 4
REMARK VINA RESULT:      -8.3      2.765      3.944
REMARK  4 active torsions:
REMARK  status: ('A' for Active; 'I' for Inactive)
REMARK    1  A    between atoms: C_4  and  N_5 
REMARK    2  A    between atoms: N_5  and  N_6 
REMARK       I    between atoms: N_6  and  C_7 
REMARK    3  A    between atoms: C_7  and  C_8 
REMARK    4  A    between atoms: C_9  and  C_10 
ROOT
HETATM    1  C   UNL     1      28.112  42.281  52.812  1.00  0.00     0.081 A 
HETATM    2  C   UNL     1      27.763  42.184  51.429  1.00  0.00     0.106 A 
HETATM    3  N   UNL     1      28.231  41.048  50.888  1.00  0.00    -0.173 NA
HETATM    4  N   UNL     1      28.866  40.432  51.892  1.00  0.00    -0.288 N 
HETATM    5  H   UNL     1      29.308  39.537  51.705  1.00  0.00     0.188 HD
HETATM    6  C   UNL     1      28.805  41.112  53.066  1.00  0.00     0.128 A 
ENDROOT
BRANCH   1   7
HETATM    7  C   UNL     1      27.819  43.292  53.814  1.00  0.00     0.270 C 
HETATM    8  N   UNL     1      28.649  44.400  53.794  1.00  0.00    -0.283 N 
HETATM    9  H   UNL     1      29.446  44.489  53.173  1.00  0.00     0.184 HD
HETATM   10  O   UNL     1      26.904  43.149  54.621  1.00  0.00    -0.266 OA
BRANCH   8  11
HETATM   11  N   UNL     1      28.477  45.370  54.795  1.00  0.00    -0.203 NA
HETATM   12  H   UNL     1      28.414  46.312  54.407  1.00  0.00     0.153 HD
BRANCH  11  13
HETATM   13  C   UNL     1      29.347  45.260  55.901  1.00  0.00     0.028 A 
HETATM   14  C   UNL     1      30.360  44.292  55.962  1.00  0.00     0.032 A 
HETATM   15  C   UNL     1      31.167  44.151  57.102  1.00  0.00    -0.060 A 
HETATM   16  C   UNL     1      32.214  43.079  57.169  1.00  0.00     0.048 C 
HETATM   17  C   UNL     1      30.928  44.969  58.210  1.00  0.00     0.007 A 
HETATM   18  C   UNL     1      29.907  45.916  58.177  1.00  0.00     0.002 A 
HETATM   19  C   UNL     1      29.116  46.051  57.034  1.00  0.00     0.025 A 
ENDBRANCH  11  13
ENDBRANCH   8  11
ENDBRANCH   1   7
BRANCH   2  20
HETATM   20  C   UNL     1      26.928  43.079  50.633  1.00  0.00     0.017 A 
HETATM   21  C   UNL     1      25.735  42.661  50.025  1.00  0.00     0.046 A 
HETATM   22 CL   UNL     1      25.185  41.022  50.081  1.00  0.00    -0.083 Cl
HETATM   23  C   UNL     1      24.962  43.571  49.296  1.00  0.00     0.025 A 
HETATM   24  C   UNL     1      25.376  44.897  49.159  1.00  0.00     0.002 A 
HETATM   25  C   UNL     1      26.564  45.319  49.750  1.00  0.00     0.001 A 
HETATM   26  C   UNL     1      27.336  44.417  50.486  1.00  0.00     0.016 A 
ENDBRANCH   2  20
TORSDOF 4
ENDMDL
MODEL 5
REMARK VINA RESULT:      -8.1      3.648      6.335
REMARK  4 active torsions:
REMARK  status: ('A' for Active; 'I' for Inactive)
REMARK    1  A    between atoms: C_4  and  N_5 
REMARK    2  A    between atoms: N_5  and  N_6 
REMARK       I    between atoms: N_6  and  C_7 
REMARK    3  A    between atoms: C_7  and  C_8 
REMARK    4  A    between atoms: C_9  and  C_10 
ROOT
HETATM    1  C   UNL     1      25.922  48.278  49.688  1.00  0.00     0.081 A 
HETATM    2  C   UNL     1      25.056  49.140  48.945  1.00  0.00     0.106 A 
HETATM    3  N   UNL     1      25.735  49.817  48.005  1.00  0.00    -0.173 NA
HETATM    4  N   UNL     1      27.002  49.406  48.140  1.00  0.00    -0.288 N 
HETATM    5  H   UNL     1      27.704  49.797  47.520  1.00  0.00     0.188 HD
HETATM    6  C   UNL     1      27.164  48.471  49.112  1.00  0.00     0.128 A 
ENDROOT
BRANCH   1   7
HETATM    7  C   UNL     1      25.659  47.344  50.771  1.00  0.00     0.270 C 
HETATM    8  N   UNL     1      26.264  46.106  50.641  1.00  0.00    -0.283 N 
HETATM    9  H   UNL     1      26.804  45.831  49.828  1.00  0.00     0.184 HD
HETATM   10  O   UNL     1      24.937  47.647  51.719  1.00  0.00    -0.266 OA
BRANCH   8  11
HETATM   11  N   UNL     1      25.976  45.128  51.606  1.00  0.00    -0.203 NA
HETATM   12  H   UNL     1      25.046  45.249  52.008  1.00  0.00     0.153 HD
BRANCH  11  13
HETATM   13  C   UNL     1      26.990  44.901  52.561  1.00  0.00     0.028 A 
HETATM   14  C   UNL     1      28.021  43.974  52.351  1.00  0.00     0.032 A 
HETATM   15  C   UNL     1      28.978  43.709  53.343  1.00  0.00    -0.060 A 
HETATM   16  C   UNL     1      30.046  42.679  53.119  1.00  0.00     0.048 C 
HETATM   17  C   UNL     1      28.877  44.358  54.577  1.00  0.00     0.007 A 
HETATM   18  C   UNL     1      27.842  45.260  54.813  1.00  0.00     0.002 A 
HETATM   19  C   UNL     1      26.900  45.520  53.815  1.00  0.00     0.025 A 
ENDBRANCH  11  13
ENDBRANCH   8  11
ENDBRANCH   1   7
BRANCH   2  20
HETATM   20  C   UNL     1      23.605  49.273  49.033  1.00  0.00     0.017 A 
HETATM   21  C   UNL     1      22.734  48.185  48.878  1.00  0.00     0.046 A 
HETATM   22 CL   UNL     1      23.288  46.596  48.476  1.00  0.00    -0.083 Cl
HETATM   23  C   UNL     1      21.352  48.369  48.999  1.00  0.00     0.025 A 
HETATM   24  C   UNL     1      20.830  49.637  49.264  1.00  0.00     0.002 A 
HETATM   25  C   UNL     1      21.687  50.724  49.409  1.00  0.00     0.001 A 
HETATM   26  C   UNL     1      23.068  50.545  49.297  1.00  0.00     0.016 A 
ENDBRANCH   2  20
TORSDOF 4
ENDMDL
MODEL 6
REMARK VINA RESULT:      -8.1      2.917      6.615
REMARK  4 active torsions:
REMARK  status: ('A' for Active; 'I' for Inactive)
REMARK    1  A    between atoms: C_4  and  N_5 
REMARK    2  A    between atoms: N_5  and  N_6 
REMARK       I    between atoms: N_6  and  C_7 
REMARK    3  A    between atoms: C_7  and  C_8 
REMARK    4  A    between atoms: C_9  and  C_10 
ROOT
HETATM    1  C   UNL     1      26.370  44.443  53.068  1.00  0.00     0.081 A 
HETATM    2  C   UNL     1      26.913  44.153  54.358  1.00  0.00     0.106 A 
HETATM    3  N   UNL     1      25.956  43.743  55.207  1.00  0.00    -0.173 NA
HETATM    4  N   UNL     1      24.829  43.771  54.486  1.00  0.00    -0.288 N 
HETATM    5  H   UNL     1      23.962  43.497  54.937  1.00  0.00     0.188 HD
HETATM    6  C   UNL     1      25.023  44.157  53.198  1.00  0.00     0.128 A 
ENDROOT
BRANCH   1   7
HETATM    7  C   UNL     1      26.997  44.885  51.833  1.00  0.00     0.270 C 
HETATM    8  N   UNL     1      26.438  46.016  51.262  1.00  0.00    -0.283 N 
HETATM    9  H   UNL     1      25.614  46.478  51.630  1.00  0.00     0.184 HD
HETATM   10  O   UNL     1      27.945  44.278  51.341  1.00  0.00    -0.266 OA
BRANCH   8  11
HETATM   11  N   UNL     1      26.938  46.441  50.021  1.00  0.00    -0.203 NA
HETATM   12  H   UNL     1      27.955  46.377  49.976  1.00  0.00     0.153 HD
BRANCH  11  13
HETATM   13  C   UNL     1      26.417  47.664  49.544  1.00  0.00     0.028 A 
HETATM   14  C   UNL     1      25.038  47.906  49.460  1.00  0.00     0.032 A 
HETATM   15  C   UNL     1      24.538  49.099  48.914  1.00  0.00    -0.060 A 
HETATM   16  C   UNL     1      23.060  49.321  48.788  1.00  0.00     0.048 C 
HETATM   17  C   UNL     1      25.435  50.047  48.413  1.00  0.00     0.007 A 
HETATM   18  C   UNL     1      26.807  49.809  48.463  1.00  0.00     0.002 A 
HETATM   19  C   UNL     1      27.291  48.621  49.014  1.00  0.00     0.025 A 
ENDBRANCH  11  13
ENDBRANCH   8  11
ENDBRANCH   1   7
BRANCH   2  20
HETATM   20  C   UNL     1      28.309  44.161  54.785  1.00  0.00     0.017 A 
HETATM   21  C   UNL     1      29.198  43.119  54.486  1.00  0.00     0.046 A 
HETATM   22 CL   UNL     1      28.705  41.679  53.664  1.00  0.00    -0.083 Cl
HETATM   23  C   UNL     1      30.533  43.195  54.899  1.00  0.00     0.025 A 
HETATM   24  C   UNL     1      30.987  44.302  55.619  1.00  0.00     0.002 A 
HETATM   25  C   UNL     1      30.108  45.336  55.930  1.00  0.00     0.001 A 
HETATM   26  C   UNL     1      28.777  45.270  55.513  1.00  0.00     0.016 A 
ENDBRANCH   2  20
TORSDOF 4
ENDMDL
MODEL 7
REMARK VINA RESULT:      -8.0      3.862      5.432
REMARK  4 active torsions:
REMARK  status: ('A' for Active; 'I' for Inactive)
REMARK    1  A    between atoms: C_4  and  N_5 
REMARK    2  A    between atoms: N_5  and  N_6 
REMARK       I    between atoms: N_6  and  C_7 
REMARK    3  A    between atoms: C_7  and  C_8 
REMARK    4  A    between atoms: C_9  and  C_10 
ROOT
HETATM    1  C   UNL     1      26.487  40.674  49.798  1.00  0.00     0.081 A 
HETATM    2  C   UNL     1      25.730  41.756  49.251  1.00  0.00     0.106 A 
HETATM    3  N   UNL     1      24.989  41.352  48.207  1.00  0.00    -0.173 NA
HETATM    4  N   UNL     1      25.263  40.048  48.083  1.00  0.00    -0.288 N 
HETATM    5  H   UNL     1      24.806  39.528  47.340  1.00  0.00     0.188 HD
HETATM    6  C   UNL     1      26.131  39.587  49.021  1.00  0.00     0.128 A 
ENDROOT
BRANCH   1   7
HETATM    7  C   UNL     1      27.400  40.607  50.928  1.00  0.00     0.270 C 
HETATM    8  N   UNL     1      26.829  40.868  52.162  1.00  0.00    -0.283 N 
HETATM    9  H   UNL     1      25.862  41.147  52.282  1.00  0.00     0.184 HD
HETATM   10  O   UNL     1      28.592  40.350  50.775  1.00  0.00    -0.266 OA
BRANCH   8  11
HETATM   11  N   UNL     1      27.675  40.910  53.282  1.00  0.00    -0.203 NA
HETATM   12  H   UNL     1      27.329  40.327  54.045  1.00  0.00     0.153 HD
BRANCH  11  13
HETATM   13  C   UNL     1      28.086  42.199  53.684  1.00  0.00     0.028 A 
HETATM   14  C   UNL     1      29.275  42.417  54.396  1.00  0.00     0.032 A 
HETATM   15  C   UNL     1      29.629  43.697  54.851  1.00  0.00    -0.060 A 
HETATM   16  C   UNL     1      30.881  43.903  55.652  1.00  0.00     0.048 C 
HETATM   17  C   UNL     1      28.759  44.767  54.620  1.00  0.00     0.007 A 
HETATM   18  C   UNL     1      27.560  44.561  53.941  1.00  0.00     0.002 A 
HETATM   19  C   UNL     1      27.223  43.285  53.487  1.00  0.00     0.025 A 
ENDBRANCH  11  13
ENDBRANCH   8  11
ENDBRANCH   1   7
BRANCH   2  20
HETATM   20  C   UNL     1      25.614  43.128  49.737  1.00  0.00     0.017 A 
HETATM   21  C   UNL     1      24.416  43.653  50.243  1.00  0.00     0.046 A 
HETATM   22 CL   UNL     1      22.936  42.757  50.254  1.00  0.00    -0.083 Cl
HETATM   23  C   UNL     1      24.372  44.968  50.720  1.00  0.00     0.025 A 
HETATM   24  C   UNL     1      25.515  45.769  50.687  1.00  0.00     0.002 A 
HETATM   25  C   UNL     1      26.706  45.259  50.176  1.00  0.00     0.001 A 
HETATM   26  C   UNL     1      26.758  43.945  49.707  1.00  0.00     0.016 A 
ENDBRANCH   2  20
TORSDOF 4
ENDMDL
MODEL 8
REMARK VINA RESULT:      -8.0     13.859     15.169
REMARK  4 active torsions:
REMARK  status: ('A' for Active; 'I' for Inactive)
REMARK    1  A    between atoms: C_4  and  N_5 
REMARK    2  A    between atoms: N_5  and  N_6 
REMARK       I    between atoms: N_6  and  C_7 
REMARK    3  A    between atoms: C_7  and  C_8 
REMARK    4  A    between atoms: C_9  and  C_10 
ROOT
HETATM    1  C   UNL     1      30.424  47.955  39.359  1.00  0.00     0.081 A 
HETATM    2  C   UNL     1      29.359  48.885  39.152  1.00  0.00     0.106 A 
HETATM    3  N   UNL     1      28.392  48.355  38.386  1.00  0.00    -0.173 NA
HETATM    4  N   UNL     1      28.823  47.120  38.105  1.00  0.00    -0.288 N 
HETATM    5  H   UNL     1      28.239  46.526  37.524  1.00  0.00     0.188 HD
HETATM    6  C   UNL     1      30.017  46.821  38.680  1.00  0.00     0.128 A 
ENDROOT
BRANCH   1   7
HETATM    7  C   UNL     1      31.658  48.052  40.121  1.00  0.00     0.270 C 
HETATM    8  N   UNL     1      32.193  49.325  40.215  1.00  0.00    -0.283 N 
HETATM    9  H   UNL     1      31.802  50.132  39.743  1.00  0.00     0.184 HD
HETATM   10  O   UNL     1      32.180  47.061  40.627  1.00  0.00    -0.266 OA
BRANCH   8  11
HETATM   11  N   UNL     1      33.432  49.472  40.860  1.00  0.00    -0.203 NA
HETATM   12  H   UNL     1      33.876  48.573  41.045  1.00  0.00     0.153 HD
BRANCH  11  13
HETATM   13  C   UNL     1      33.442  50.355  41.962  1.00  0.00     0.028 A 
HETATM   14  C   UNL     1      34.608  51.008  42.386  1.00  0.00     0.032 A 
HETATM   15  C   UNL     1      34.614  51.825  43.528  1.00  0.00    -0.060 A 
HETATM   16  C   UNL     1      35.881  52.477  43.996  1.00  0.00     0.048 C 
HETATM   17  C   UNL     1      33.439  51.958  44.275  1.00  0.00     0.007 A 
HETATM   18  C   UNL     1      32.279  51.292  43.883  1.00  0.00     0.002 A 
HETATM   19  C   UNL     1      32.286  50.489  42.742  1.00  0.00     0.025 A 
ENDBRANCH  11  13
ENDBRANCH   8  11
ENDBRANCH   1   7
BRANCH   2  20
HETATM   20  C   UNL     1      29.184  50.216  39.727  1.00  0.00     0.017 A 
HETATM   21  C   UNL     1      28.894  50.423  41.083  1.00  0.00     0.046 A 
HETATM   22 CL   UNL     1      28.622  49.119  42.188  1.00  0.00    -0.083 Cl
HETATM   23  C   UNL     1      28.763  51.723  41.584  1.00  0.00     0.025 A 
HETATM   24  C   UNL     1      28.911  52.822  40.736  1.00  0.00     0.002 A 
HETATM   25  C   UNL     1      29.189  52.627  39.386  1.00  0.00     0.001 A 
HETATM   26  C   UNL     1      29.329  51.331  38.883  1.00  0.00     0.016 A 
ENDBRANCH   2  20
TORSDOF 4
ENDMDL
MODEL 9
REMARK VINA RESULT:      -7.9      5.454      9.630
REMARK  4 active torsions:
REMARK  status: ('A' for Active; 'I' for Inactive)
REMARK    1  A    between atoms: C_4  and  N_5 
REMARK    2  A    between atoms: N_5  and  N_6 
REMARK       I    between atoms: N_6  and  C_7 
REMARK    3  A    between atoms: C_7  and  C_8 
REMARK    4  A    between atoms: C_9  and  C_10 
ROOT
HETATM    1  C   UNL     1      24.538  48.490  49.204  1.00  0.00     0.081 A 
HETATM    2  C   UNL     1      25.605  47.860  49.914  1.00  0.00     0.106 A 
HETATM    3  N   UNL     1      26.790  48.409  49.600  1.00  0.00    -0.173 NA
HETATM    4  N   UNL     1      26.494  49.364  48.711  1.00  0.00    -0.288 N 
HETATM    5  H   UNL     1      27.254  49.918  48.327  1.00  0.00     0.188 HD
HETATM    6  C   UNL     1      25.164  49.472  48.457  1.00  0.00     0.128 A 
ENDROOT
BRANCH   1   7
HETATM    7  C   UNL     1      23.101  48.270  49.224  1.00  0.00     0.270 C 
HETATM    8  N   UNL     1      22.354  49.305  49.760  1.00  0.00    -0.283 N 
HETATM    9  H   UNL     1      22.765  50.137  50.169  1.00  0.00     0.184 HD
HETATM   10  O   UNL     1      22.606  47.228  48.802  1.00  0.00    -0.266 OA
BRANCH   8  11
HETATM   11  N   UNL     1      20.969  49.117  49.892  1.00  0.00    -0.203 NA
HETATM   12  H   UNL     1      20.703  48.139  49.776  1.00  0.00     0.153 HD
BRANCH  11  13
HETATM   13  C   UNL     1      20.162  50.022  49.170  1.00  0.00     0.028 A 
HETATM   14  C   UNL     1      19.802  49.799  47.832  1.00  0.00     0.032 A 
HETATM   15  C   UNL     1      19.061  50.746  47.107  1.00  0.00    -0.060 A 
HETATM   16  C   UNL     1      18.727  50.513  45.664  1.00  0.00     0.048 C 
HETATM   17  C   UNL     1      18.708  51.950  47.724  1.00  0.00     0.007 A 
HETATM   18  C   UNL     1      19.082  52.200  49.043  1.00  0.00     0.002 A 
HETATM   19  C   UNL     1      19.813  51.247  49.754  1.00  0.00     0.025 A 
ENDBRANCH  11  13
ENDBRANCH   8  11
ENDBRANCH   1   7
BRANCH   2  20
HETATM   20  C   UNL     1      25.534  46.825  50.942  1.00  0.00     0.017 A 
HETATM   21  C   UNL     1      25.295  45.476  50.642  1.00  0.00     0.046 A 
HETATM   22 CL   UNL     1      24.970  44.921  49.036  1.00  0.00    -0.083 Cl
HETATM   23  C   UNL     1      25.264  44.523  51.667  1.00  0.00     0.025 A 
HETATM   24  C   UNL     1      25.460  44.910  52.994  1.00  0.00     0.002 A 
HETATM   25  C   UNL     1      25.686  46.248  53.302  1.00  0.00     0.001 A 
HETATM   26  C   UNL     1      25.727  47.202  52.282  1.00  0.00     0.016 A 
ENDBRANCH   2  20
TORSDOF 4
ENDMDL
MODEL 10
REMARK VINA RESULT:      -7.9      5.426      8.568
REMARK  4 active torsions:
REMARK  status: ('A' for Active; 'I' for Inactive)
REMARK    1  A    between atoms: C_4  and  N_5 
REMARK    2  A    between atoms: N_5  and  N_6 
REMARK       I    between atoms: N_6  and  C_7 
REMARK    3  A    between atoms: C_7  and  C_8 
REMARK    4  A    between atoms: C_9  and  C_10 
ROOT
HETATM    1  C   UNL     1      22.054  48.065  48.336  1.00  0.00     0.081 A 
HETATM    2  C   UNL     1      20.784  48.609  47.969  1.00  0.00     0.106 A 
HETATM    3  N   UNL     1      20.187  47.858  47.029  1.00  0.00    -0.173 NA
HETATM    4  N   UNL     1      21.048  46.861  46.795  1.00  0.00    -0.288 N 
HETATM    5  H   UNL     1      20.798  46.161  46.103  1.00  0.00     0.188 HD
HETATM    6  C   UNL     1      22.166  46.923  47.564  1.00  0.00     0.128 A 
ENDROOT
BRANCH   1   7
HETATM    7  C   UNL     1      23.045  48.496  49.308  1.00  0.00     0.270 C 
HETATM    8  N   UNL     1      23.673  47.474  50.000  1.00  0.00    -0.283 N 
HETATM    9  H   UNL     1      23.429  46.496  49.895  1.00  0.00     0.184 HD
HETATM   10  O   UNL     1      23.285  49.686  49.496  1.00  0.00    -0.266 OA
BRANCH   8  11
HETATM   11  N   UNL     1      24.574  47.826  51.018  1.00  0.00    -0.203 NA
HETATM   12  H   UNL     1      25.262  48.509  50.701  1.00  0.00     0.153 HD
BRANCH  11  13
HETATM   13  C   UNL     1      25.127  46.746  51.739  1.00  0.00     0.028 A 
HETATM   14  C   UNL     1      25.964  46.938  52.848  1.00  0.00     0.032 A 
HETATM   15  C   UNL     1      26.564  45.853  53.507  1.00  0.00    -0.060 A 
HETATM   16  C   UNL     1      27.495  46.079  54.661  1.00  0.00     0.048 C 
HETATM   17  C   UNL     1      26.348  44.559  53.022  1.00  0.00     0.007 A 
HETATM   18  C   UNL     1      25.543  44.354  51.904  1.00  0.00     0.002 A 
HETATM   19  C   UNL     1      24.947  45.441  51.262  1.00  0.00     0.025 A 
ENDBRANCH  11  13
ENDBRANCH   8  11
ENDBRANCH   1   7
BRANCH   2  20
HETATM   20  C   UNL     1      20.081  49.754  48.540  1.00  0.00     0.017 A 
HETATM   21  C   UNL     1      19.188  49.635  49.615  1.00  0.00     0.046 A 
HETATM   22 CL   UNL     1      18.761  48.109  50.308  1.00  0.00    -0.083 Cl
HETATM   23  C   UNL     1      18.564  50.773  50.138  1.00  0.00     0.025 A 
HETATM   24  C   UNL     1      18.816  52.031  49.589  1.00  0.00     0.002 A 
HETATM   25  C   UNL     1      19.693  52.157  48.514  1.00  0.00     0.001 A 
HETATM   26  C   UNL     1      20.325  51.026  47.993  1.00  0.00     0.016 A 
ENDBRANCH   2  20
TORSDOF 4
ENDMDL
