MODEL 1
REMARK VINA RESULT:      -8.2      0.000      0.000
REMARK  8 active torsions:
REMARK  status: ('A' for Active; 'I' for Inactive)
REMARK    1  A    between atoms: N_4  and  C_6 
REMARK    2  A    between atoms: C_6  and  C_7 
REMARK       I    between atoms: C_7  and  N_8 
REMARK    3  A    between atoms: N_8  and  C_9 
REMARK    4  A    between atoms: C_15  and  C_16 
REMARK    5  A    between atoms: C_21  and  C_22 
REMARK       I    between atoms: C_22  and  N_23 
REMARK    6  A    between atoms: N_23  and  C_24 
REMARK    7  A    between atoms: C_25  and  O_26 
REMARK    8  A    between atoms: C_29  and  O_30 
ROOT
HETATM    1  C   UNL     1      25.318  46.828  51.423  1.00  0.00     0.093 C 
HETATM    2  S   UNL     1      26.240  47.292  52.768  1.00  0.00    -0.075 SA
HETATM    3  C   UNL     1      26.386  45.690  53.295  1.00  0.00    -0.008 C 
HETATM    4  C   UNL     1      25.644  44.804  52.531  1.00  0.00    -0.026 C 
HETATM    5  C   UNL     1      25.541  43.361  52.937  1.00  0.00     0.041 C 
HETATM    6  C   UNL     1      26.119  43.092  54.331  1.00  0.00     0.010 C 
HETATM    7  C   UNL     1      27.453  43.817  54.628  1.00  0.00    -0.002 C 
HETATM    8  C   UNL     1      27.223  45.347  54.494  1.00  0.00     0.052 C 
HETATM    9  C   UNL     1      25.114  45.452  51.340  1.00  0.00     0.073 C 
ENDROOT
BRANCH   9  10
HETATM   10  C   UNL     1      24.490  44.872  50.133  1.00  0.00     0.259 C 
HETATM   11  N   UNL     1      25.335  44.333  49.203  1.00  0.00    -0.320 N 
HETATM   12  H   UNL     1      25.220  44.716  48.268  1.00  0.00     0.169 HD
HETATM   13  O   UNL     1      23.302  45.079  49.871  1.00  0.00    -0.267 OA
BRANCH  11  14
HETATM   14  C   UNL     1      25.689  42.963  49.115  1.00  0.00     0.068 A 
HETATM   15  C   UNL     1      24.942  42.172  48.217  1.00  0.00     0.097 A 
HETATM   16  C   UNL     1      25.287  40.832  48.013  1.00  0.00     0.075 A 
HETATM   17  C   UNL     1      26.373  40.280  48.696  1.00  0.00     0.070 A 
HETATM   18  C   UNL     1      27.082  41.061  49.613  1.00  0.00     0.039 A 
HETATM   19  C   UNL     1      26.745  42.399  49.830  1.00  0.00     0.035 A 
BRANCH  15  20
HETATM   20  O   UNL     1      23.900  42.820  47.594  1.00  0.00    -0.354 OA
HETATM   21  C   UNL     1      22.623  42.194  47.656  1.00  0.00     0.210 C 
ENDBRANCH  15  20
BRANCH  17  22
HETATM   22  O   UNL     1      26.831  38.998  48.563  1.00  0.00    -0.356 OA
HETATM   23  C   UNL     1      28.196  38.836  48.194  1.00  0.00     0.210 C 
ENDBRANCH  17  22
ENDBRANCH  11  14
ENDBRANCH   9  10
BRANCH   1  24
HETATM   24  N   UNL     1      24.979  47.777  50.466  1.00  0.00    -0.319 N 
HETATM   25  C   UNL     1      25.859  48.350  49.576  1.00  0.00     0.248 C 
HETATM   26  O   UNL     1      27.089  48.348  49.629  1.00  0.00    -0.271 OA
HETATM   27  H   UNL     1      24.065  48.210  50.623  1.00  0.00     0.169 HD
BRANCH  25  28
HETATM   28  C   UNL     1      25.176  49.078  48.414  1.00  0.00     0.337 C 
BRANCH  28  29
HETATM   29  N   UNL     1      23.683  49.298  48.700  1.00  0.00    -0.062 N 
HETATM   30  C   UNL     1      23.214  50.690  48.327  1.00  0.00     0.239 C 
HETATM   31  C   UNL     1      21.785  50.915  48.833  1.00  0.00     0.007 C 
HETATM   32  C   UNL     1      21.724  51.031  50.361  1.00  0.00     0.011 C 
HETATM   33  C   UNL     1      20.849  49.818  48.311  1.00  0.00     0.007 C 
HETATM   34  C   UNL     1      21.377  48.412  48.588  1.00  0.00     0.028 C 
HETATM   35  C   UNL     1      22.811  48.228  48.111  1.00  0.00     0.235 C 
HETATM   36  H   UNL     1      23.632  49.252  49.730  1.00  0.00     0.280 HD
ENDBRANCH  28  29
ENDBRANCH  25  28
ENDBRANCH   1  24
BRANCH   7  37
HETATM   37  C   UNL     1      28.734  43.248  53.900  1.00  0.00    -0.047 C 
HETATM   38  C   UNL     1      28.993  43.816  52.494  1.00  0.00     0.015 C 
HETATM   39  C   UNL     1      29.986  43.564  54.755  1.00  0.00     0.015 C 
HETATM   40  C   UNL     1      28.644  41.709  53.785  1.00  0.00     0.015 C 
ENDBRANCH   7  37
TORSDOF 8
ENDMDL
MODEL 2
REMARK VINA RESULT:      -8.0      3.804      9.294
REMARK  8 active torsions:
REMARK  status: ('A' for Active; 'I' for Inactive)
REMARK    1  A    between atoms: N_4  and  C_6 
REMARK    2  A    between atoms: C_6  and  C_7 
REMARK       I    between atoms: C_7  and  N_8 
REMARK    3  A    between atoms: N_8  and  C_9 
REMARK    4  A    between atoms: C_15  and  C_16 
REMARK    5  A    between atoms: C_21  and  C_22 
REMARK       I    between atoms: C_22  and  N_23 
REMARK    6  A    between atoms: N_23  and  C_24 
REMARK    7  A    between atoms: C_25  and  O_26 
REMARK    8  A    between atoms: C_29  and  O_30 
ROOT
HETATM    1  C   UNL     1      22.656  49.304  48.698  1.00  0.00     0.093 C 
HETATM    2  S   UNL     1      22.372  50.896  49.204  1.00  0.00    -0.075 SA
HETATM    3  C   UNL     1      20.874  50.942  48.417  1.00  0.00    -0.008 C 
HETATM    4  C   UNL     1      20.626  49.803  47.670  1.00  0.00    -0.026 C 
HETATM    5  C   UNL     1      19.408  49.727  46.792  1.00  0.00     0.041 C 
HETATM    6  C   UNL     1      18.681  51.070  46.665  1.00  0.00     0.010 C 
HETATM    7  C   UNL     1      18.551  51.862  47.989  1.00  0.00    -0.002 C 
HETATM    8  C   UNL     1      19.976  52.141  48.538  1.00  0.00     0.052 C 
HETATM    9  C   UNL     1      21.618  48.771  47.937  1.00  0.00     0.073 C 
ENDROOT
BRANCH   9  10
HETATM   10  C   UNL     1      21.629  47.339  47.576  1.00  0.00     0.259 C 
HETATM   11  N   UNL     1      20.448  46.662  47.712  1.00  0.00    -0.320 N 
HETATM   12  H   UNL     1      20.511  45.833  48.298  1.00  0.00     0.169 HD
HETATM   13  O   UNL     1      22.691  46.738  47.397  1.00  0.00    -0.267 OA
BRANCH  11  14
HETATM   14  C   UNL     1      19.507  46.441  46.675  1.00  0.00     0.068 A 
HETATM   15  C   UNL     1      18.152  46.362  47.054  1.00  0.00     0.097 A 
HETATM   16  C   UNL     1      17.160  46.230  46.079  1.00  0.00     0.075 A 
HETATM   17  C   UNL     1      17.512  46.182  44.728  1.00  0.00     0.070 A 
HETATM   18  C   UNL     1      18.861  46.222  44.364  1.00  0.00     0.039 A 
HETATM   19  C   UNL     1      19.862  46.348  45.329  1.00  0.00     0.035 A 
BRANCH  15  20
HETATM   20  O   UNL     1      17.919  46.427  48.409  1.00  0.00    -0.354 OA
HETATM   21  C   UNL     1      16.700  47.033  48.825  1.00  0.00     0.210 C 
ENDBRANCH  15  20
BRANCH  17  22
HETATM   22  O   UNL     1      16.640  46.088  43.678  1.00  0.00    -0.356 OA
HETATM   23  C   UNL     1      16.016  44.826  43.467  1.00  0.00     0.210 C 
ENDBRANCH  17  22
ENDBRANCH  11  14
ENDBRANCH   9  10
BRANCH   1  24
HETATM   24  N   UNL     1      23.768  48.622  49.179  1.00  0.00    -0.319 N 
HETATM   25  C   UNL     1      25.076  48.952  48.904  1.00  0.00     0.248 C 
HETATM   26  O   UNL     1      25.492  49.693  48.013  1.00  0.00    -0.271 OA
HETATM   27  H   UNL     1      23.550  47.699  49.563  1.00  0.00     0.169 HD
BRANCH  25  28
HETATM   28  C   UNL     1      26.092  48.277  49.831  1.00  0.00     0.337 C 
BRANCH  28  29
HETATM   29  N   UNL     1      25.646  46.853  50.196  1.00  0.00    -0.062 N 
HETATM   30  C   UNL     1      26.552  45.789  49.611  1.00  0.00     0.239 C 
HETATM   31  C   UNL     1      25.938  44.401  49.825  1.00  0.00     0.007 C 
HETATM   32  C   UNL     1      24.695  44.178  48.955  1.00  0.00     0.011 C 
HETATM   33  C   UNL     1      25.638  44.169  51.311  1.00  0.00     0.007 C 
HETATM   34  C   UNL     1      24.817  45.298  51.930  1.00  0.00     0.028 C 
HETATM   35  C   UNL     1      25.429  46.667  51.669  1.00  0.00     0.235 C 
HETATM   36  H   UNL     1      24.745  46.756  49.702  1.00  0.00     0.280 HD
ENDBRANCH  28  29
ENDBRANCH  25  28
ENDBRANCH   1  24
BRANCH   7  37
HETATM   37  C   UNL     1      17.507  51.305  49.036  1.00  0.00    -0.047 C 
HETATM   38  C   UNL     1      18.070  50.282  50.038  1.00  0.00     0.015 C 
HETATM   39  C   UNL     1      16.938  52.484  49.862  1.00  0.00     0.015 C 
HETATM   40  C   UNL     1      16.314  50.650  48.305  1.00  0.00     0.015 C 
ENDBRANCH   7  37
TORSDOF 8
ENDMDL
MODEL 3
REMARK VINA RESULT:      -7.7      5.504      9.864
REMARK  8 active torsions:
REMARK  status: ('A' for Active; 'I' for Inactive)
REMARK    1  A    between atoms: N_4  and  C_6 
REMARK    2  A    between atoms: C_6  and  C_7 
REMARK       I    between atoms: C_7  and  N_8 
REMARK    3  A    between atoms: N_8  and  C_9 
REMARK    4  A    between atoms: C_15  and  C_16 
REMARK    5  A    between atoms: C_21  and  C_22 
REMARK       I    between atoms: C_22  and  N_23 
REMARK    6  A    between atoms: N_23  and  C_24 
REMARK    7  A    between atoms: C_25  and  O_26 
REMARK    8  A    between atoms: C_29  and  O_30 
ROOT
HETATM    1  C   UNL     1      17.421  46.342  47.273  1.00  0.00     0.093 C 
HETATM    2  S   UNL     1      16.371  47.669  47.167  1.00  0.00    -0.075 SA
HETATM    3  C   UNL     1      17.282  48.555  48.286  1.00  0.00    -0.008 C 
HETATM    4  C   UNL     1      18.316  47.818  48.838  1.00  0.00    -0.026 C 
HETATM    5  C   UNL     1      19.142  48.396  49.953  1.00  0.00     0.041 C 
HETATM    6  C   UNL     1      18.563  49.702  50.507  1.00  0.00     0.010 C 
HETATM    7  C   UNL     1      18.039  50.684  49.432  1.00  0.00    -0.002 C 
HETATM    8  C   UNL     1      16.923  49.976  48.618  1.00  0.00     0.052 C 
HETATM    9  C   UNL     1      18.487  46.549  48.146  1.00  0.00     0.073 C 
ENDROOT
BRANCH   9  10
HETATM   10  C   UNL     1      19.586  45.564  48.212  1.00  0.00     0.259 C 
HETATM   11  N   UNL     1      20.786  45.946  47.676  1.00  0.00    -0.320 N 
HETATM   12  H   UNL     1      21.146  45.308  46.971  1.00  0.00     0.169 HD
HETATM   13  O   UNL     1      19.367  44.387  48.511  1.00  0.00    -0.267 OA
BRANCH  11  14
HETATM   14  C   UNL     1      21.865  46.508  48.404  1.00  0.00     0.068 A 
HETATM   15  C   UNL     1      22.835  45.610  48.894  1.00  0.00     0.097 A 
HETATM   16  C   UNL     1      23.971  46.097  49.547  1.00  0.00     0.075 A 
HETATM   17  C   UNL     1      24.146  47.472  49.709  1.00  0.00     0.070 A 
HETATM   18  C   UNL     1      23.160  48.353  49.253  1.00  0.00     0.039 A 
HETATM   19  C   UNL     1      22.018  47.879  48.604  1.00  0.00     0.035 A 
BRANCH  15  20
HETATM   20  O   UNL     1      22.565  44.278  48.673  1.00  0.00    -0.354 OA
HETATM   21  C   UNL     1      22.730  43.395  49.776  1.00  0.00     0.210 C 
ENDBRANCH  15  20
BRANCH  17  22
HETATM   22  O   UNL     1      25.223  48.077  50.298  1.00  0.00    -0.356 OA
HETATM   23  C   UNL     1      26.430  48.123  49.545  1.00  0.00     0.210 C 
ENDBRANCH  17  22
ENDBRANCH  11  14
ENDBRANCH   9  10
BRANCH   1  24
HETATM   24  N   UNL     1      17.246  45.262  46.416  1.00  0.00    -0.319 N 
HETATM   25  C   UNL     1      17.803  45.151  45.162  1.00  0.00     0.248 C 
HETATM   26  O   UNL     1      18.302  46.045  44.480  1.00  0.00    -0.271 OA
HETATM   27  H   UNL     1      16.471  44.649  46.682  1.00  0.00     0.169 HD
BRANCH  25  28
HETATM   28  C   UNL     1      17.751  43.732  44.587  1.00  0.00     0.337 C 
BRANCH  28  29
HETATM   29  N   UNL     1      16.885  43.680  43.319  1.00  0.00    -0.062 N 
HETATM   30  C   UNL     1      16.833  42.297  42.702  1.00  0.00     0.239 C 
HETATM   31  C   UNL     1      16.141  42.358  41.336  1.00  0.00     0.007 C 
HETATM   32  C   UNL     1      16.999  43.069  40.284  1.00  0.00     0.011 C 
HETATM   33  C   UNL     1      14.754  43.000  41.464  1.00  0.00     0.007 C 
HETATM   34  C   UNL     1      14.790  44.344  42.186  1.00  0.00     0.028 C 
HETATM   35  C   UNL     1      15.518  44.264  43.521  1.00  0.00     0.235 C 
HETATM   36  H   UNL     1      17.412  44.265  42.651  1.00  0.00     0.280 HD
ENDBRANCH  28  29
ENDBRANCH  25  28
ENDBRANCH   1  24
BRANCH   7  37
HETATM   37  C   UNL     1      19.137  51.438  48.582  1.00  0.00    -0.047 C 
HETATM   38  C   UNL     1      20.554  51.423  49.184  1.00  0.00     0.015 C 
HETATM   39  C   UNL     1      19.233  50.785  47.181  1.00  0.00     0.015 C 
HETATM   40  C   UNL     1      18.727  52.912  48.364  1.00  0.00     0.015 C 
ENDBRANCH   7  37
TORSDOF 8
ENDMDL
MODEL 4
REMARK VINA RESULT:      -7.6      2.537      7.963
REMARK  8 active torsions:
REMARK  status: ('A' for Active; 'I' for Inactive)
REMARK    1  A    between atoms: N_4  and  C_6 
REMARK    2  A    between atoms: C_6  and  C_7 
REMARK       I    between atoms: C_7  and  N_8 
REMARK    3  A    between atoms: N_8  and  C_9 
REMARK    4  A    between atoms: C_15  and  C_16 
REMARK    5  A    between atoms: C_21  and  C_22 
REMARK       I    between atoms: C_22  and  N_23 
REMARK    6  A    between atoms: N_23  and  C_24 
REMARK    7  A    between atoms: C_25  and  O_26 
REMARK    8  A    between atoms: C_29  and  O_30 
ROOT
HETATM    1  C   UNL     1      26.624  42.672  50.619  1.00  0.00     0.093 C 
HETATM    2  S   UNL     1      26.961  41.419  49.528  1.00  0.00    -0.075 SA
HETATM    3  C   UNL     1      25.373  41.423  48.941  1.00  0.00    -0.008 C 
HETATM    4  C   UNL     1      24.545  42.284  49.641  1.00  0.00    -0.026 C 
HETATM    5  C   UNL     1      23.070  42.314  49.351  1.00  0.00     0.041 C 
HETATM    6  C   UNL     1      22.622  41.177  48.427  1.00  0.00     0.010 C 
HETATM    7  C   UNL     1      23.572  40.898  47.237  1.00  0.00    -0.002 C 
HETATM    8  C   UNL     1      24.972  40.533  47.799  1.00  0.00     0.052 C 
HETATM    9  C   UNL     1      25.308  43.126  50.551  1.00  0.00     0.073 C 
ENDROOT
BRANCH   9  10
HETATM   10  C   UNL     1      24.906  44.331  51.303  1.00  0.00     0.259 C 
HETATM   11  N   UNL     1      25.199  45.539  50.732  1.00  0.00    -0.320 N 
HETATM   12  H   UNL     1      25.741  46.159  51.328  1.00  0.00     0.169 HD
HETATM   13  O   UNL     1      24.547  44.254  52.481  1.00  0.00    -0.267 OA
BRANCH  11  14
HETATM   14  C   UNL     1      24.311  46.304  49.934  1.00  0.00     0.068 A 
HETATM   15  C   UNL     1      24.652  47.657  49.725  1.00  0.00     0.097 A 
HETATM   16  C   UNL     1      23.870  48.451  48.882  1.00  0.00     0.075 A 
HETATM   17  C   UNL     1      22.756  47.904  48.242  1.00  0.00     0.070 A 
HETATM   18  C   UNL     1      22.404  46.572  48.485  1.00  0.00     0.039 A 
HETATM   19  C   UNL     1      23.173  45.770  49.331  1.00  0.00     0.035 A 
BRANCH  15  20
HETATM   20  O   UNL     1      25.772  48.088  50.398  1.00  0.00    -0.354 OA
HETATM   21  C   UNL     1      26.895  48.462  49.608  1.00  0.00     0.210 C 
ENDBRANCH  15  20
BRANCH  17  22
HETATM   22  O   UNL     1      21.932  48.561  47.371  1.00  0.00    -0.356 OA
HETATM   23  C   UNL     1      20.594  48.794  47.797  1.00  0.00     0.210 C 
ENDBRANCH  17  22
ENDBRANCH  11  14
ENDBRANCH   9  10
BRANCH   1  24
HETATM   24  N   UNL     1      27.660  43.235  51.355  1.00  0.00    -0.319 N 
HETATM   25  C   UNL     1      28.105  42.773  52.573  1.00  0.00     0.248 C 
HETATM   26  O   UNL     1      27.532  41.995  53.336  1.00  0.00    -0.271 OA
HETATM   27  H   UNL     1      27.920  44.175  51.045  1.00  0.00     0.169 HD
BRANCH  25  28
HETATM   28  C   UNL     1      29.467  43.339  52.988  1.00  0.00     0.337 C 
BRANCH  28  29
HETATM   29  N   UNL     1      29.311  44.422  54.067  1.00  0.00    -0.062 N 
HETATM   30  C   UNL     1      27.861  44.754  54.356  1.00  0.00     0.239 C 
HETATM   31  C   UNL     1      27.777  45.981  55.271  1.00  0.00     0.007 C 
HETATM   32  C   UNL     1      28.191  47.270  54.550  1.00  0.00     0.011 C 
HETATM   33  C   UNL     1      28.597  45.758  56.548  1.00  0.00     0.007 C 
HETATM   34  C   UNL     1      30.029  45.313  56.259  1.00  0.00     0.028 C 
HETATM   35  C   UNL     1      30.084  44.118  55.317  1.00  0.00     0.235 C 
HETATM   36  H   UNL     1      29.706  45.261  53.615  1.00  0.00     0.280 HD
ENDBRANCH  28  29
ENDBRANCH  25  28
ENDBRANCH   1  24
BRANCH   7  37
HETATM   37  C   UNL     1      23.556  41.961  46.068  1.00  0.00    -0.047 C 
HETATM   38  C   UNL     1      23.569  43.432  46.522  1.00  0.00     0.015 C 
HETATM   39  C   UNL     1      24.802  41.752  45.174  1.00  0.00     0.015 C 
HETATM   40  C   UNL     1      22.316  41.750  45.170  1.00  0.00     0.015 C 
ENDBRANCH   7  37
TORSDOF 8
ENDMDL
MODEL 5
REMARK VINA RESULT:      -7.6      2.172      7.357
REMARK  8 active torsions:
REMARK  status: ('A' for Active; 'I' for Inactive)
REMARK    1  A    between atoms: N_4  and  C_6 
REMARK    2  A    between atoms: C_6  and  C_7 
REMARK       I    between atoms: C_7  and  N_8 
REMARK    3  A    between atoms: N_8  and  C_9 
REMARK    4  A    between atoms: C_15  and  C_16 
REMARK    5  A    between atoms: C_21  and  C_22 
REMARK       I    between atoms: C_22  and  N_23 
REMARK    6  A    between atoms: N_23  and  C_24 
REMARK    7  A    between atoms: C_25  and  O_26 
REMARK    8  A    between atoms: C_29  and  O_30 
ROOT
HETATM    1  C   UNL     1      24.004  45.640  50.018  1.00  0.00     0.093 C 
HETATM    2  S   UNL     1      23.913  47.284  49.615  1.00  0.00    -0.075 SA
HETATM    3  C   UNL     1      22.705  46.996  48.465  1.00  0.00    -0.008 C 
HETATM    4  C   UNL     1      22.442  45.649  48.289  1.00  0.00    -0.026 C 
HETATM    5  C   UNL     1      21.500  45.198  47.208  1.00  0.00     0.041 C 
HETATM    6  C   UNL     1      21.103  46.330  46.255  1.00  0.00     0.010 C 
HETATM    7  C   UNL     1      20.794  47.680  46.948  1.00  0.00    -0.002 C 
HETATM    8  C   UNL     1      22.056  48.134  47.729  1.00  0.00     0.052 C 
HETATM    9  C   UNL     1      23.113  44.844  49.301  1.00  0.00     0.073 C 
ENDROOT
BRANCH   9  10
HETATM   10  C   UNL     1      22.939  43.423  49.663  1.00  0.00     0.259 C 
HETATM   11  N   UNL     1      22.994  42.516  48.641  1.00  0.00    -0.320 N 
HETATM   12  H   UNL     1      22.179  41.912  48.578  1.00  0.00     0.169 HD
HETATM   13  O   UNL     1      22.528  43.099  50.781  1.00  0.00    -0.267 OA
BRANCH  11  14
HETATM   14  C   UNL     1      24.151  41.795  48.248  1.00  0.00     0.068 A 
HETATM   15  C   UNL     1      24.300  41.539  46.869  1.00  0.00     0.097 A 
HETATM   16  C   UNL     1      25.454  40.909  46.397  1.00  0.00     0.075 A 
HETATM   17  C   UNL     1      26.462  40.538  47.290  1.00  0.00     0.070 A 
HETATM   18  C   UNL     1      26.287  40.761  48.660  1.00  0.00     0.039 A 
HETATM   19  C   UNL     1      25.136  41.385  49.145  1.00  0.00     0.035 A 
BRANCH  15  20
HETATM   20  O   UNL     1      23.251  41.954  46.080  1.00  0.00    -0.354 OA
HETATM   21  C   UNL     1      23.538  42.937  45.091  1.00  0.00     0.210 C 
ENDBRANCH  15  20
BRANCH  17  22
HETATM   22  O   UNL     1      27.649  39.946  46.956  1.00  0.00    -0.356 OA
HETATM   23  C   UNL     1      28.356  39.282  47.997  1.00  0.00     0.210 C 
ENDBRANCH  17  22
ENDBRANCH  11  14
ENDBRANCH   9  10
BRANCH   1  24
HETATM   24  N   UNL     1      24.802  45.240  51.084  1.00  0.00    -0.319 N 
HETATM   25  C   UNL     1      26.178  45.260  51.090  1.00  0.00     0.248 C 
HETATM   26  O   UNL     1      26.933  45.360  50.122  1.00  0.00    -0.271 OA
HETATM   27  H   UNL     1      24.301  44.695  51.791  1.00  0.00     0.169 HD
BRANCH  25  28
HETATM   28  C   UNL     1      26.792  45.117  52.486  1.00  0.00     0.337 C 
BRANCH  28  29
HETATM   29  N   UNL     1      27.609  43.820  52.601  1.00  0.00    -0.062 N 
HETATM   30  C   UNL     1      28.149  43.591  53.998  1.00  0.00     0.239 C 
HETATM   31  C   UNL     1      29.126  42.410  53.995  1.00  0.00     0.007 C 
HETATM   32  C   UNL     1      30.436  42.745  53.273  1.00  0.00     0.011 C 
HETATM   33  C   UNL     1      28.459  41.160  53.407  1.00  0.00     0.007 C 
HETATM   34  C   UNL     1      27.817  41.420  52.046  1.00  0.00     0.028 C 
HETATM   35  C   UNL     1      26.882  42.621  52.068  1.00  0.00     0.235 C 
HETATM   36  H   UNL     1      28.435  44.011  52.010  1.00  0.00     0.280 HD
ENDBRANCH  28  29
ENDBRANCH  25  28
ENDBRANCH   1  24
BRANCH   7  37
HETATM   37  C   UNL     1      19.428  47.761  47.739  1.00  0.00    -0.047 C 
HETATM   38  C   UNL     1      19.551  47.634  49.268  1.00  0.00     0.015 C 
HETATM   39  C   UNL     1      18.754  49.124  47.450  1.00  0.00     0.015 C 
HETATM   40  C   UNL     1      18.458  46.665  47.245  1.00  0.00     0.015 C 
ENDBRANCH   7  37
TORSDOF 8
ENDMDL
MODEL 6
REMARK VINA RESULT:      -7.6      4.580      9.179
REMARK  8 active torsions:
REMARK  status: ('A' for Active; 'I' for Inactive)
REMARK    1  A    between atoms: N_4  and  C_6 
REMARK    2  A    between atoms: C_6  and  C_7 
REMARK       I    between atoms: C_7  and  N_8 
REMARK    3  A    between atoms: N_8  and  C_9 
REMARK    4  A    between atoms: C_15  and  C_16 
REMARK    5  A    between atoms: C_21  and  C_22 
REMARK       I    between atoms: C_22  and  N_23 
REMARK    6  A    between atoms: N_23  and  C_24 
REMARK    7  A    between atoms: C_25  and  O_26 
REMARK    8  A    between atoms: C_29  and  O_30 
ROOT
HETATM    1  C   UNL     1      17.811  46.315  46.842  1.00  0.00     0.093 C 
HETATM    2  S   UNL     1      16.791  47.650  46.621  1.00  0.00    -0.075 SA
HETATM    3  C   UNL     1      17.464  48.458  47.948  1.00  0.00    -0.008 C 
HETATM    4  C   UNL     1      18.379  47.684  48.640  1.00  0.00    -0.026 C 
HETATM    5  C   UNL     1      18.973  48.185  49.926  1.00  0.00     0.041 C 
HETATM    6  C   UNL     1      18.289  49.456  50.442  1.00  0.00     0.010 C 
HETATM    7  C   UNL     1      17.972  50.507  49.350  1.00  0.00    -0.002 C 
HETATM    8  C   UNL     1      17.038  49.857  48.295  1.00  0.00     0.052 C 
HETATM    9  C   UNL     1      18.689  46.460  47.914  1.00  0.00     0.073 C 
ENDROOT
BRANCH   9  10
HETATM   10  C   UNL     1      19.763  45.469  48.125  1.00  0.00     0.259 C 
HETATM   11  N   UNL     1      21.005  45.797  47.653  1.00  0.00    -0.320 N 
HETATM   12  H   UNL     1      21.403  45.108  47.021  1.00  0.00     0.169 HD
HETATM   13  O   UNL     1      19.503  44.318  48.486  1.00  0.00    -0.267 OA
BRANCH  11  14
HETATM   14  C   UNL     1      22.039  46.394  48.418  1.00  0.00     0.068 A 
HETATM   15  C   UNL     1      23.027  45.530  48.933  1.00  0.00     0.097 A 
HETATM   16  C   UNL     1      24.122  46.054  49.624  1.00  0.00     0.075 A 
HETATM   17  C   UNL     1      24.240  47.434  49.799  1.00  0.00     0.070 A 
HETATM   18  C   UNL     1      23.236  48.281  49.319  1.00  0.00     0.039 A 
HETATM   19  C   UNL     1      22.133  47.769  48.632  1.00  0.00     0.035 A 
BRANCH  15  20
HETATM   20  O   UNL     1      22.814  44.191  48.695  1.00  0.00    -0.354 OA
HETATM   21  C   UNL     1      22.763  43.334  49.831  1.00  0.00     0.210 C 
ENDBRANCH  15  20
BRANCH  17  22
HETATM   22  O   UNL     1      25.274  48.075  50.425  1.00  0.00    -0.356 OA
HETATM   23  C   UNL     1      26.547  48.022  49.790  1.00  0.00     0.210 C 
ENDBRANCH  17  22
ENDBRANCH  11  14
ENDBRANCH   9  10
BRANCH   1  24
HETATM   24  N   UNL     1      17.811  45.292  45.901  1.00  0.00    -0.319 N 
HETATM   25  C   UNL     1      18.583  45.268  44.761  1.00  0.00     0.248 C 
HETATM   26  O   UNL     1      19.177  46.210  44.236  1.00  0.00    -0.271 OA
HETATM   27  H   UNL     1      17.013  44.657  45.984  1.00  0.00     0.169 HD
BRANCH  25  28
HETATM   28  C   UNL     1      18.661  43.890  44.096  1.00  0.00     0.337 C 
BRANCH  28  29
HETATM   29  N   UNL     1      20.109  43.376  44.058  1.00  0.00    -0.062 N 
HETATM   30  C   UNL     1      20.618  42.960  45.423  1.00  0.00     0.239 C 
HETATM   31  C   UNL     1      22.121  42.667  45.355  1.00  0.00     0.007 C 
HETATM   32  C   UNL     1      22.950  43.941  45.156  1.00  0.00     0.011 C 
HETATM   33  C   UNL     1      22.417  41.623  44.271  1.00  0.00     0.007 C 
HETATM   34  C   UNL     1      21.809  41.987  42.919  1.00  0.00     0.028 C 
HETATM   35  C   UNL     1      20.325  42.312  43.022  1.00  0.00     0.235 C 
HETATM   36  H   UNL     1      20.650  44.218  43.802  1.00  0.00     0.280 HD
ENDBRANCH  28  29
ENDBRANCH  25  28
ENDBRANCH   1  24
BRANCH   7  37
HETATM   37  C   UNL     1      19.206  51.309  48.775  1.00  0.00    -0.047 C 
HETATM   38  C   UNL     1      19.812  50.736  47.481  1.00  0.00     0.015 C 
HETATM   39  C   UNL     1      18.769  52.762  48.467  1.00  0.00     0.015 C 
HETATM   40  C   UNL     1      20.330  51.392  49.832  1.00  0.00     0.015 C 
ENDBRANCH   7  37
TORSDOF 8
ENDMDL
MODEL 7
REMARK VINA RESULT:      -7.5      2.455      7.550
REMARK  8 active torsions:
REMARK  status: ('A' for Active; 'I' for Inactive)
REMARK    1  A    between atoms: N_4  and  C_6 
REMARK    2  A    between atoms: C_6  and  C_7 
REMARK       I    between atoms: C_7  and  N_8 
REMARK    3  A    between atoms: N_8  and  C_9 
REMARK    4  A    between atoms: C_15  and  C_16 
REMARK    5  A    between atoms: C_21  and  C_22 
REMARK       I    between atoms: C_22  and  N_23 
REMARK    6  A    between atoms: N_23  and  C_24 
REMARK    7  A    between atoms: C_25  and  O_26 
REMARK    8  A    between atoms: C_29  and  O_30 
ROOT
HETATM    1  C   UNL     1      24.284  46.365  49.435  1.00  0.00     0.093 C 
HETATM    2  S   UNL     1      24.821  47.962  49.627  1.00  0.00    -0.075 SA
HETATM    3  C   UNL     1      23.433  48.581  48.881  1.00  0.00    -0.008 C 
HETATM    4  C   UNL     1      22.609  47.590  48.375  1.00  0.00    -0.026 C 
HETATM    5  C   UNL     1      21.403  47.956  47.557  1.00  0.00     0.041 C 
HETATM    6  C   UNL     1      21.363  49.443  47.188  1.00  0.00     0.010 C 
HETATM    7  C   UNL     1      21.760  50.404  48.335  1.00  0.00    -0.002 C 
HETATM    8  C   UNL     1      23.205  50.063  48.786  1.00  0.00     0.052 C 
HETATM    9  C   UNL     1      23.040  46.270  48.815  1.00  0.00     0.073 C 
ENDROOT
BRANCH   9  10
HETATM   10  C   UNL     1      22.352  44.965  48.741  1.00  0.00     0.259 C 
HETATM   11  N   UNL     1      21.869  44.594  47.516  1.00  0.00    -0.320 N 
HETATM   12  H   UNL     1      20.878  44.367  47.513  1.00  0.00     0.169 HD
HETATM   13  O   UNL     1      22.022  44.363  49.766  1.00  0.00    -0.267 OA
BRANCH  11  14
HETATM   14  C   UNL     1      22.548  43.768  46.585  1.00  0.00     0.068 A 
HETATM   15  C   UNL     1      22.834  44.334  45.325  1.00  0.00     0.097 A 
HETATM   16  C   UNL     1      23.574  43.611  44.386  1.00  0.00     0.075 A 
HETATM   17  C   UNL     1      24.036  42.331  44.698  1.00  0.00     0.070 A 
HETATM   18  C   UNL     1      23.715  41.762  45.935  1.00  0.00     0.039 A 
HETATM   19  C   UNL     1      22.971  42.472  46.880  1.00  0.00     0.035 A 
BRANCH  15  20
HETATM   20  O   UNL     1      22.337  45.603  45.129  1.00  0.00    -0.354 OA
HETATM   21  C   UNL     1      21.311  45.749  44.154  1.00  0.00     0.210 C 
ENDBRANCH  15  20
BRANCH  17  22
HETATM   22  O   UNL     1      24.795  41.535  43.885  1.00  0.00    -0.356 OA
HETATM   23  C   UNL     1      24.708  40.129  44.092  1.00  0.00     0.210 C 
ENDBRANCH  17  22
ENDBRANCH  11  14
ENDBRANCH   9  10
BRANCH   1  24
HETATM   24  N   UNL     1      25.006  45.327  50.013  1.00  0.00    -0.319 N 
HETATM   25  C   UNL     1      25.175  45.142  51.367  1.00  0.00     0.248 C 
HETATM   26  O   UNL     1      24.975  45.957  52.268  1.00  0.00    -0.271 OA
HETATM   27  H   UNL     1      25.615  44.834  49.355  1.00  0.00     0.169 HD
BRANCH  25  28
HETATM   28  C   UNL     1      25.694  43.750  51.740  1.00  0.00     0.337 C 
BRANCH  28  29
HETATM   29  N   UNL     1      27.026  43.841  52.500  1.00  0.00    -0.062 N 
HETATM   30  C   UNL     1      26.868  43.604  53.988  1.00  0.00     0.239 C 
HETATM   31  C   UNL     1      28.181  43.921  54.712  1.00  0.00     0.007 C 
HETATM   32  C   UNL     1      28.484  45.423  54.728  1.00  0.00     0.011 C 
HETATM   33  C   UNL     1      29.338  43.116  54.105  1.00  0.00     0.007 C 
HETATM   34  C   UNL     1      29.429  43.267  52.589  1.00  0.00     0.028 C 
HETATM   35  C   UNL     1      28.102  42.985  51.899  1.00  0.00     0.235 C 
HETATM   36  H   UNL     1      27.285  44.836  52.400  1.00  0.00     0.280 HD
ENDBRANCH  28  29
ENDBRANCH  25  28
ENDBRANCH   1  24
BRANCH   7  37
HETATM   37  C   UNL     1      20.701  50.582  49.494  1.00  0.00    -0.047 C 
HETATM   38  C   UNL     1      19.875  49.326  49.823  1.00  0.00     0.015 C 
HETATM   39  C   UNL     1      21.434  50.996  50.793  1.00  0.00     0.015 C 
HETATM   40  C   UNL     1      19.717  51.723  49.149  1.00  0.00     0.015 C 
ENDBRANCH   7  37
TORSDOF 8
ENDMDL
MODEL 8
REMARK VINA RESULT:      -7.4      2.833      7.668
REMARK  8 active torsions:
REMARK  status: ('A' for Active; 'I' for Inactive)
REMARK    1  A    between atoms: N_4  and  C_6 
REMARK    2  A    between atoms: C_6  and  C_7 
REMARK       I    between atoms: C_7  and  N_8 
REMARK    3  A    between atoms: N_8  and  C_9 
REMARK    4  A    between atoms: C_15  and  C_16 
REMARK    5  A    between atoms: C_21  and  C_22 
REMARK       I    between atoms: C_22  and  N_23 
REMARK    6  A    between atoms: N_23  and  C_24 
REMARK    7  A    between atoms: C_25  and  O_26 
REMARK    8  A    between atoms: C_29  and  O_30 
ROOT
HETATM    1  C   UNL     1      24.108  46.180  49.569  1.00  0.00     0.093 C 
HETATM    2  S   UNL     1      24.732  47.750  49.703  1.00  0.00    -0.075 SA
HETATM    3  C   UNL     1      23.382  48.417  48.930  1.00  0.00    -0.008 C 
HETATM    4  C   UNL     1      22.505  47.456  48.459  1.00  0.00    -0.026 C 
HETATM    5  C   UNL     1      21.322  47.858  47.623  1.00  0.00     0.041 C 
HETATM    6  C   UNL     1      21.365  49.330  47.199  1.00  0.00     0.010 C 
HETATM    7  C   UNL     1      21.813  50.309  48.310  1.00  0.00    -0.002 C 
HETATM    8  C   UNL     1      23.237  49.905  48.780  1.00  0.00     0.052 C 
HETATM    9  C   UNL     1      22.861  46.132  48.949  1.00  0.00     0.073 C 
ENDROOT
BRANCH   9  10
HETATM   10  C   UNL     1      22.102  44.865  48.920  1.00  0.00     0.259 C 
HETATM   11  N   UNL     1      21.054  44.795  48.045  1.00  0.00    -0.320 N 
HETATM   12  H   UNL     1      20.169  44.544  48.477  1.00  0.00     0.169 HD
HETATM   13  O   UNL     1      22.254  44.014  49.802  1.00  0.00    -0.267 OA
BRANCH  11  14
HETATM   14  C   UNL     1      21.115  44.251  46.737  1.00  0.00     0.068 A 
HETATM   15  C   UNL     1      19.894  43.834  46.166  1.00  0.00     0.097 A 
HETATM   16  C   UNL     1      19.862  43.366  44.850  1.00  0.00     0.075 A 
HETATM   17  C   UNL     1      21.039  43.317  44.098  1.00  0.00     0.070 A 
HETATM   18  C   UNL     1      22.250  43.696  44.685  1.00  0.00     0.039 A 
HETATM   19  C   UNL     1      22.296  44.160  46.002  1.00  0.00     0.035 A 
BRANCH  15  20
HETATM   20  O   UNL     1      18.798  43.933  46.993  1.00  0.00    -0.354 OA
HETATM   21  C   UNL     1      17.742  44.786  46.564  1.00  0.00     0.210 C 
ENDBRANCH  15  20
BRANCH  17  22
HETATM   22  O   UNL     1      21.138  42.913  42.796  1.00  0.00    -0.356 OA
HETATM   23  C   UNL     1      22.287  43.339  42.073  1.00  0.00     0.210 C 
ENDBRANCH  17  22
ENDBRANCH  11  14
ENDBRANCH   9  10
BRANCH   1  24
HETATM   24  N   UNL     1      24.770  45.126  50.188  1.00  0.00    -0.319 N 
HETATM   25  C   UNL     1      26.119  44.873  50.087  1.00  0.00     0.248 C 
HETATM   26  O   UNL     1      26.909  45.330  49.261  1.00  0.00    -0.271 OA
HETATM   27  H   UNL     1      24.143  44.396  50.537  1.00  0.00     0.169 HD
BRANCH  25  28
HETATM   28  C   UNL     1      26.643  43.888  51.137  1.00  0.00     0.337 C 
BRANCH  28  29
HETATM   29  N   UNL     1      27.087  44.622  52.412  1.00  0.00    -0.062 N 
HETATM   30  C   UNL     1      25.926  44.968  53.322  1.00  0.00     0.239 C 
HETATM   31  C   UNL     1      26.403  45.881  54.457  1.00  0.00     0.007 C 
HETATM   32  C   UNL     1      26.758  47.287  53.958  1.00  0.00     0.011 C 
HETATM   33  C   UNL     1      27.573  45.236  55.211  1.00  0.00     0.007 C 
HETATM   34  C   UNL     1      28.697  44.785  54.281  1.00  0.00     0.028 C 
HETATM   35  C   UNL     1      28.190  43.913  53.141  1.00  0.00     0.235 C 
HETATM   36  H   UNL     1      27.439  45.524  52.052  1.00  0.00     0.280 HD
ENDBRANCH  28  29
ENDBRANCH  25  28
ENDBRANCH   1  24
BRANCH   7  37
HETATM   37  C   UNL     1      20.764  50.589  49.458  1.00  0.00    -0.047 C 
HETATM   38  C   UNL     1      19.887  49.386  49.849  1.00  0.00     0.015 C 
HETATM   39  C   UNL     1      21.516  51.035  50.736  1.00  0.00     0.015 C 
HETATM   40  C   UNL     1      19.829  51.751  49.056  1.00  0.00     0.015 C 
ENDBRANCH   7  37
TORSDOF 8
ENDMDL
MODEL 9
REMARK VINA RESULT:      -7.3      2.929      9.276
REMARK  8 active torsions:
REMARK  status: ('A' for Active; 'I' for Inactive)
REMARK    1  A    between atoms: N_4  and  C_6 
REMARK    2  A    between atoms: C_6  and  C_7 
REMARK       I    between atoms: C_7  and  N_8 
REMARK    3  A    between atoms: N_8  and  C_9 
REMARK    4  A    between atoms: C_15  and  C_16 
REMARK    5  A    between atoms: C_21  and  C_22 
REMARK       I    between atoms: C_22  and  N_23 
REMARK    6  A    between atoms: N_23  and  C_24 
REMARK    7  A    between atoms: C_25  and  O_26 
REMARK    8  A    between atoms: C_29  and  O_30 
ROOT
HETATM    1  C   UNL     1      24.086  43.596  48.471  1.00  0.00     0.093 C 
HETATM    2  S   UNL     1      23.368  42.625  47.281  1.00  0.00    -0.075 SA
HETATM    3  C   UNL     1      21.967  43.576  47.267  1.00  0.00    -0.008 C 
HETATM    4  C   UNL     1      21.977  44.561  48.239  1.00  0.00    -0.026 C 
HETATM    5  C   UNL     1      20.758  45.409  48.467  1.00  0.00     0.041 C 
HETATM    6  C   UNL     1      19.529  44.902  47.704  1.00  0.00     0.010 C 
HETATM    7  C   UNL     1      19.813  44.445  46.253  1.00  0.00    -0.002 C 
HETATM    8  C   UNL     1      20.857  43.297  46.293  1.00  0.00     0.052 C 
HETATM    9  C   UNL     1      23.286  44.665  48.870  1.00  0.00     0.073 C 
ENDROOT
BRANCH   9  10
HETATM   10  C   UNL     1      23.838  45.705  49.761  1.00  0.00     0.259 C 
HETATM   11  N   UNL     1      24.225  46.877  49.172  1.00  0.00    -0.320 N 
HETATM   12  H   UNL     1      25.188  47.140  49.366  1.00  0.00     0.169 HD
HETATM   13  O   UNL     1      24.154  45.442  50.925  1.00  0.00    -0.267 OA
BRANCH  11  14
HETATM   14  C   UNL     1      23.427  48.044  49.068  1.00  0.00     0.068 A 
HETATM   15  C   UNL     1      24.109  49.277  49.022  1.00  0.00     0.097 A 
HETATM   16  C   UNL     1      23.395  50.464  48.835  1.00  0.00     0.075 A 
HETATM   17  C   UNL     1      22.007  50.427  48.689  1.00  0.00     0.070 A 
HETATM   18  C   UNL     1      21.335  49.203  48.775  1.00  0.00     0.039 A 
HETATM   19  C   UNL     1      22.036  48.011  48.967  1.00  0.00     0.035 A 
BRANCH  15  20
HETATM   20  O   UNL     1      25.475  49.196  49.169  1.00  0.00    -0.354 OA
HETATM   21  C   UNL     1      26.270  49.809  48.159  1.00  0.00     0.210 C 
ENDBRANCH  15  20
BRANCH  17  22
HETATM   22  O   UNL     1      21.197  51.507  48.469  1.00  0.00    -0.356 OA
HETATM   23  C   UNL     1      19.923  51.499  49.102  1.00  0.00     0.210 C 
ENDBRANCH  17  22
ENDBRANCH  11  14
ENDBRANCH   9  10
BRANCH   1  24
HETATM   24  N   UNL     1      25.407  43.367  48.835  1.00  0.00    -0.319 N 
HETATM   25  C   UNL     1      25.822  42.432  49.756  1.00  0.00     0.248 C 
HETATM   26  O   UNL     1      25.134  41.846  50.593  1.00  0.00    -0.271 OA
HETATM   27  H   UNL     1      26.048  44.112  48.547  1.00  0.00     0.169 HD
BRANCH  25  28
HETATM   28  C   UNL     1      27.324  42.137  49.705  1.00  0.00     0.337 C 
BRANCH  28  29
HETATM   29  N   UNL     1      27.929  42.100  51.117  1.00  0.00    -0.062 N 
HETATM   30  C   UNL     1      27.897  43.450  51.803  1.00  0.00     0.239 C 
HETATM   31  C   UNL     1      28.703  43.396  53.106  1.00  0.00     0.007 C 
HETATM   32  C   UNL     1      30.210  43.281  52.849  1.00  0.00     0.011 C 
HETATM   33  C   UNL     1      28.194  42.264  54.007  1.00  0.00     0.007 C 
HETATM   34  C   UNL     1      28.120  40.922  53.283  1.00  0.00     0.028 C 
HETATM   35  C   UNL     1      27.348  41.013  51.974  1.00  0.00     0.235 C 
HETATM   36  H   UNL     1      28.926  41.899  50.940  1.00  0.00     0.280 HD
ENDBRANCH  28  29
ENDBRANCH  25  28
ENDBRANCH   1  24
BRANCH   7  37
HETATM   37  C   UNL     1      20.090  45.591  45.202  1.00  0.00    -0.047 C 
HETATM   38  C   UNL     1      21.555  45.721  44.749  1.00  0.00     0.015 C 
HETATM   39  C   UNL     1      19.244  45.332  43.932  1.00  0.00     0.015 C 
HETATM   40  C   UNL     1      19.644  46.957  45.770  1.00  0.00     0.015 C 
ENDBRANCH   7  37
TORSDOF 8
ENDMDL
MODEL 10
REMARK VINA RESULT:      -7.3      2.693      8.329
REMARK  8 active torsions:
REMARK  status: ('A' for Active; 'I' for Inactive)
REMARK    1  A    between atoms: N_4  and  C_6 
REMARK    2  A    between atoms: C_6  and  C_7 
REMARK       I    between atoms: C_7  and  N_8 
REMARK    3  A    between atoms: N_8  and  C_9 
REMARK    4  A    between atoms: C_15  and  C_16 
REMARK    5  A    between atoms: C_21  and  C_22 
REMARK       I    between atoms: C_22  and  N_23 
REMARK    6  A    between atoms: N_23  and  C_24 
REMARK    7  A    between atoms: C_25  and  O_26 
REMARK    8  A    between atoms: C_29  and  O_30 
ROOT
HETATM    1  C   UNL     1      24.705  42.324  48.888  1.00  0.00     0.093 C 
HETATM    2  S   UNL     1      24.654  41.405  47.465  1.00  0.00    -0.075 SA
HETATM    3  C   UNL     1      23.310  42.260  46.891  1.00  0.00    -0.008 C 
HETATM    4  C   UNL     1      22.815  43.164  47.814  1.00  0.00    -0.026 C 
HETATM    5  C   UNL     1      21.541  43.910  47.532  1.00  0.00     0.041 C 
HETATM    6  C   UNL     1      20.805  43.385  46.295  1.00  0.00     0.010 C 
HETATM    7  C   UNL     1      21.719  43.062  45.088  1.00  0.00    -0.002 C 
HETATM    8  C   UNL     1      22.750  41.986  45.523  1.00  0.00     0.052 C 
HETATM    9  C   UNL     1      23.715  43.303  48.950  1.00  0.00     0.073 C 
ENDROOT
BRANCH   9  10
HETATM   10  C   UNL     1      23.738  44.304  50.036  1.00  0.00     0.259 C 
HETATM   11  N   UNL     1      24.404  45.472  49.783  1.00  0.00    -0.320 N 
HETATM   12  H   UNL     1      25.125  45.693  50.464  1.00  0.00     0.169 HD
HETATM   13  O   UNL     1      23.387  44.007  51.181  1.00  0.00    -0.267 OA
BRANCH  11  14
HETATM   14  C   UNL     1      23.806  46.670  49.316  1.00  0.00     0.068 A 
HETATM   15  C   UNL     1      24.627  47.816  49.284  1.00  0.00     0.097 A 
HETATM   16  C   UNL     1      24.133  49.014  48.758  1.00  0.00     0.075 A 
HETATM   17  C   UNL     1      22.830  49.072  48.260  1.00  0.00     0.070 A 
HETATM   18  C   UNL     1      22.011  47.940  48.332  1.00  0.00     0.039 A 
HETATM   19  C   UNL     1      22.490  46.740  48.860  1.00  0.00     0.035 A 
BRANCH  15  20
HETATM   20  O   UNL     1      25.894  47.644  49.793  1.00  0.00    -0.354 OA
HETATM   21  C   UNL     1      26.896  48.551  49.348  1.00  0.00     0.210 C 
ENDBRANCH  15  20
BRANCH  17  22
HETATM   22  O   UNL     1      22.240  50.167  47.692  1.00  0.00    -0.356 OA
HETATM   23  C   UNL     1      21.629  51.102  48.573  1.00  0.00     0.210 C 
ENDBRANCH  17  22
ENDBRANCH  11  14
ENDBRANCH   9  10
BRANCH   1  24
HETATM   24  N   UNL     1      25.762  42.154  49.774  1.00  0.00    -0.319 N 
HETATM   25  C   UNL     1      26.744  43.087  50.020  1.00  0.00     0.248 C 
HETATM   26  O   UNL     1      27.025  44.078  49.346  1.00  0.00    -0.271 OA
HETATM   27  H   UNL     1      25.904  41.182  50.062  1.00  0.00     0.169 HD
BRANCH  25  28
HETATM   28  C   UNL     1      27.566  42.801  51.281  1.00  0.00     0.337 C 
BRANCH  28  29
HETATM   29  N   UNL     1      27.398  43.923  52.317  1.00  0.00    -0.062 N 
HETATM   30  C   UNL     1      26.027  43.923  52.963  1.00  0.00     0.239 C 
HETATM   31  C   UNL     1      25.849  45.184  53.816  1.00  0.00     0.007 C 
HETATM   32  C   UNL     1      25.722  46.449  52.959  1.00  0.00     0.011 C 
HETATM   33  C   UNL     1      26.984  45.305  54.841  1.00  0.00     0.007 C 
HETATM   34  C   UNL     1      28.367  45.194  54.204  1.00  0.00     0.028 C 
HETATM   35  C   UNL     1      28.503  43.954  53.331  1.00  0.00     0.235 C 
HETATM   36  H   UNL     1      27.437  44.780  51.743  1.00  0.00     0.280 HD
ENDBRANCH  28  29
ENDBRANCH  25  28
ENDBRANCH   1  24
BRANCH   7  37
HETATM   37  C   UNL     1      22.310  44.304  44.309  1.00  0.00    -0.047 C 
HETATM   38  C   UNL     1      23.845  44.342  44.208  1.00  0.00     0.015 C 
HETATM   39  C   UNL     1      21.760  44.302  42.861  1.00  0.00     0.015 C 
HETATM   40  C   UNL     1      21.841  45.621  44.967  1.00  0.00     0.015 C 
ENDBRANCH   7  37
TORSDOF 8
ENDMDL
