MODEL 1
REMARK VINA RESULT:      -9.1      0.000      0.000
REMARK  5 active torsions:
REMARK  status: ('A' for Active; 'I' for Inactive)
REMARK    1  A    between atoms: C_2  and  N_3 
REMARK       I    between atoms: N_3  and  C_4 
REMARK       I    between atoms: C_4  and  N_5 
REMARK    2  A    between atoms: C_7  and  C_8 
REMARK    3  A    between atoms: C_13  and  N_14 
REMARK       I    between atoms: N_14  and  C_15 
REMARK    4  A    between atoms: C_15  and  C_16 
REMARK    5  A    between atoms: C_19  and  O_20 
ROOT
HETATM    1  C   UNL     1      25.698  43.384  49.685  1.00  0.00     0.088 A 
HETATM    2  N   UNL     1      24.876  42.625  48.934  1.00  0.00    -0.177 NA
HETATM    3  N   UNL     1      25.006  41.388  49.430  1.00  0.00    -0.287 N 
HETATM    4  H   UNL     1      24.477  40.641  48.995  1.00  0.00     0.188 HD
HETATM    5  C   UNL     1      25.832  41.316  50.509  1.00  0.00     0.141 A 
HETATM    6  C   UNL     1      26.370  42.572  50.651  1.00  0.00     0.079 A 
ENDROOT
BRANCH   1   7
HETATM    7  C   UNL     1      25.634  44.897  49.563  1.00  0.00     0.060 C 
HETATM    8  C   UNL     1      24.639  45.572  50.517  1.00  0.00     0.138 C 
HETATM    9  N   UNL     1      24.620  47.028  50.339  1.00  0.00    -0.334 N 
HETATM   10  C   UNL     1      23.632  47.568  49.524  1.00  0.00     0.318 C 
HETATM   11  C   UNL     1      25.908  47.673  50.579  1.00  0.00     0.127 C 
HETATM   12  N   UNL     1      23.599  48.942  49.523  1.00  0.00    -0.339 N 
HETATM   13  O   UNL     1      22.839  46.887  48.879  1.00  0.00    -0.247 OA
HETATM   14  H   UNL     1      23.899  49.345  50.398  1.00  0.00     0.164 HD
HETATM   15  C   UNL     1      26.949  47.098  49.623  1.00  0.00     0.021 C 
HETATM   16  C   UNL     1      27.022  45.572  49.733  1.00  0.00     0.014 C 
BRANCH  12  17
HETATM   17  C   UNL     1      22.555  49.669  48.814  1.00  0.00     0.078 C 
HETATM   18  C   UNL     1      23.162  50.428  47.638  1.00  0.00     0.032 C 
HETATM   19  C   UNL     1      21.824  50.629  49.753  1.00  0.00     0.032 C 
ENDBRANCH  12  17
ENDBRANCH   1   7
BRANCH   6  20
HETATM   20  N   UNL     1      27.304  42.890  51.621  1.00  0.00    -0.320 N 
HETATM   21  C   UNL     1      26.881  43.425  52.828  1.00  0.00     0.256 C 
HETATM   22  O   UNL     1      25.723  43.692  53.129  1.00  0.00    -0.267 OA
HETATM   23  H   UNL     1      28.161  43.312  51.282  1.00  0.00     0.169 HD
BRANCH  21  24
HETATM   24  C   UNL     1      27.974  43.748  53.779  1.00  0.00     0.032 A 
HETATM   25  C   UNL     1      29.031  42.847  53.929  1.00  0.00     0.020 A 
HETATM   26  C   UNL     1      30.080  43.151  54.798  1.00  0.00     0.038 A 
HETATM   27  C   UNL     1      30.097  44.364  55.494  1.00  0.00     0.068 A 
HETATM   28  C   UNL     1      29.039  45.262  55.341  1.00  0.00     0.038 A 
HETATM   29  C   UNL     1      27.978  44.958  54.482  1.00  0.00     0.020 A 
BRANCH  27  30
HETATM   30  O   UNL     1      31.190  44.553  56.295  1.00  0.00    -0.356 OA
HETATM   31  C   UNL     1      31.655  43.405  56.996  1.00  0.00     0.210 C 
ENDBRANCH  27  30
ENDBRANCH  21  24
ENDBRANCH   6  20
TORSDOF 5
ENDMDL
MODEL 2
REMARK VINA RESULT:      -8.4      2.070      3.413
REMARK  5 active torsions:
REMARK  status: ('A' for Active; 'I' for Inactive)
REMARK    1  A    between atoms: C_2  and  N_3 
REMARK       I    between atoms: N_3  and  C_4 
REMARK       I    between atoms: C_4  and  N_5 
REMARK    2  A    between atoms: C_7  and  C_8 
REMARK    3  A    between atoms: C_13  and  N_14 
REMARK       I    between atoms: N_14  and  C_15 
REMARK    4  A    between atoms: C_15  and  C_16 
REMARK    5  A    between atoms: C_19  and  O_20 
ROOT
HETATM    1  C   UNL     1      27.765  41.040  50.904  1.00  0.00     0.088 A 
HETATM    2  N   UNL     1      27.941  39.971  50.103  1.00  0.00    -0.177 NA
HETATM    3  N   UNL     1      28.812  39.194  50.759  1.00  0.00    -0.287 N 
HETATM    4  H   UNL     1      29.101  38.326  50.320  1.00  0.00     0.188 HD
HETATM    5  C   UNL     1      29.169  39.680  51.977  1.00  0.00     0.141 A 
HETATM    6  C   UNL     1      28.582  40.918  52.072  1.00  0.00     0.079 A 
ENDROOT
BRANCH   1   7
HETATM    7  C   UNL     1      26.656  42.030  50.594  1.00  0.00     0.060 C 
HETATM    8  C   UNL     1      27.011  43.071  49.524  1.00  0.00     0.138 C 
HETATM    9  N   UNL     1      25.902  44.001  49.282  1.00  0.00    -0.334 N 
HETATM   10  C   UNL     1      25.925  45.223  49.944  1.00  0.00     0.318 C 
HETATM   11  C   UNL     1      24.676  43.356  48.824  1.00  0.00     0.127 C 
HETATM   12  N   UNL     1      24.930  46.087  49.557  1.00  0.00    -0.339 N 
HETATM   13  O   UNL     1      26.771  45.522  50.784  1.00  0.00    -0.247 OA
HETATM   14  H   UNL     1      24.655  45.966  48.594  1.00  0.00     0.164 HD
HETATM   15  C   UNL     1      24.216  42.341  49.867  1.00  0.00     0.021 C 
HETATM   16  C   UNL     1      25.326  41.337  50.191  1.00  0.00     0.014 C 
BRANCH  12  17
HETATM   17  C   UNL     1      24.875  47.449  50.068  1.00  0.00     0.078 C 
HETATM   18  C   UNL     1      23.579  48.117  49.618  1.00  0.00     0.032 C 
HETATM   19  C   UNL     1      26.085  48.257  49.599  1.00  0.00     0.032 C 
ENDBRANCH  12  17
ENDBRANCH   1   7
BRANCH   6  20
HETATM   20  N   UNL     1      28.752  41.756  53.159  1.00  0.00    -0.320 N 
HETATM   21  C   UNL     1      29.295  43.018  52.972  1.00  0.00     0.256 C 
HETATM   22  O   UNL     1      29.693  43.478  51.906  1.00  0.00    -0.267 OA
HETATM   23  H   UNL     1      29.076  41.311  54.010  1.00  0.00     0.169 HD
BRANCH  21  24
HETATM   24  C   UNL     1      29.450  43.817  54.213  1.00  0.00     0.032 A 
HETATM   25  C   UNL     1      30.501  43.521  55.083  1.00  0.00     0.020 A 
HETATM   26  C   UNL     1      30.677  44.282  56.240  1.00  0.00     0.038 A 
HETATM   27  C   UNL     1      29.828  45.357  56.518  1.00  0.00     0.068 A 
HETATM   28  C   UNL     1      28.777  45.650  55.646  1.00  0.00     0.038 A 
HETATM   29  C   UNL     1      28.588  44.884  54.491  1.00  0.00     0.020 A 
BRANCH  27  30
HETATM   30  O   UNL     1      30.118  46.038  57.669  1.00  0.00    -0.356 OA
HETATM   31  C   UNL     1      30.985  45.376  58.583  1.00  0.00     0.210 C 
ENDBRANCH  27  30
ENDBRANCH  21  24
ENDBRANCH   6  20
TORSDOF 5
ENDMDL
MODEL 3
REMARK VINA RESULT:      -8.2      2.241      5.943
REMARK  5 active torsions:
REMARK  status: ('A' for Active; 'I' for Inactive)
REMARK    1  A    between atoms: C_2  and  N_3 
REMARK       I    between atoms: N_3  and  C_4 
REMARK       I    between atoms: C_4  and  N_5 
REMARK    2  A    between atoms: C_7  and  C_8 
REMARK    3  A    between atoms: C_13  and  N_14 
REMARK       I    between atoms: N_14  and  C_15 
REMARK    4  A    between atoms: C_15  and  C_16 
REMARK    5  A    between atoms: C_19  and  O_20 
ROOT
HETATM    1  C   UNL     1      24.591  45.212  50.011  1.00  0.00     0.088 A 
HETATM    2  N   UNL     1      23.627  46.053  49.589  1.00  0.00    -0.177 NA
HETATM    3  N   UNL     1      23.895  47.213  50.202  1.00  0.00    -0.287 N 
HETATM    4  H   UNL     1      23.273  47.996  50.034  1.00  0.00     0.188 HD
HETATM    5  C   UNL     1      25.025  47.183  50.959  1.00  0.00     0.141 A 
HETATM    6  C   UNL     1      25.456  45.879  50.934  1.00  0.00     0.079 A 
ENDROOT
BRANCH   1   7
HETATM    7  C   UNL     1      24.747  43.859  49.338  1.00  0.00     0.060 C 
HETATM    8  C   UNL     1      24.523  42.656  50.266  1.00  0.00     0.138 C 
HETATM    9  N   UNL     1      24.700  41.384  49.556  1.00  0.00    -0.334 N 
HETATM   10  C   UNL     1      25.936  40.754  49.654  1.00  0.00     0.318 C 
HETATM   11  C   UNL     1      23.790  41.199  48.431  1.00  0.00     0.127 C 
HETATM   12  N   UNL     1      25.974  39.507  49.081  1.00  0.00    -0.339 N 
HETATM   13  O   UNL     1      26.905  41.250  50.223  1.00  0.00    -0.247 OA
HETATM   14  H   UNL     1      25.086  39.028  49.117  1.00  0.00     0.164 HD
HETATM   15  C   UNL     1      23.991  42.328  47.424  1.00  0.00     0.021 C 
HETATM   16  C   UNL     1      23.838  43.699  48.090  1.00  0.00     0.014 C 
BRANCH  12  17
HETATM   17  C   UNL     1      27.155  38.662  49.192  1.00  0.00     0.078 C 
HETATM   18  C   UNL     1      27.965  38.735  47.901  1.00  0.00     0.032 C 
HETATM   19  C   UNL     1      26.766  37.217  49.499  1.00  0.00     0.032 C 
ENDBRANCH  12  17
ENDBRANCH   1   7
BRANCH   6  20
HETATM   20  N   UNL     1      26.563  45.434  51.634  1.00  0.00    -0.320 N 
HETATM   21  C   UNL     1      26.387  44.721  52.811  1.00  0.00     0.256 C 
HETATM   22  O   UNL     1      25.311  44.464  53.341  1.00  0.00    -0.267 OA
HETATM   23  H   UNL     1      27.344  46.079  51.678  1.00  0.00     0.169 HD
BRANCH  21  24
HETATM   24  C   UNL     1      27.647  44.317  53.484  1.00  0.00     0.032 A 
HETATM   25  C   UNL     1      28.087  45.044  54.591  1.00  0.00     0.020 A 
HETATM   26  C   UNL     1      29.255  44.658  55.253  1.00  0.00     0.038 A 
HETATM   27  C   UNL     1      29.967  43.530  54.834  1.00  0.00     0.068 A 
HETATM   28  C   UNL     1      29.524  42.805  53.726  1.00  0.00     0.038 A 
HETATM   29  C   UNL     1      28.362  43.195  53.051  1.00  0.00     0.020 A 
BRANCH  27  30
HETATM   30  O   UNL     1      31.080  43.244  55.577  1.00  0.00    -0.356 OA
HETATM   31  C   UNL     1      31.223  43.972  56.791  1.00  0.00     0.210 C 
ENDBRANCH  27  30
ENDBRANCH  21  24
ENDBRANCH   6  20
TORSDOF 5
ENDMDL
MODEL 4
REMARK VINA RESULT:      -8.1      2.647      3.261
REMARK  5 active torsions:
REMARK  status: ('A' for Active; 'I' for Inactive)
REMARK    1  A    between atoms: C_2  and  N_3 
REMARK       I    between atoms: N_3  and  C_4 
REMARK       I    between atoms: C_4  and  N_5 
REMARK    2  A    between atoms: C_7  and  C_8 
REMARK    3  A    between atoms: C_13  and  N_14 
REMARK       I    between atoms: N_14  and  C_15 
REMARK    4  A    between atoms: C_15  and  C_16 
REMARK    5  A    between atoms: C_19  and  O_20 
ROOT
HETATM    1  C   UNL     1      27.539  41.352  50.302  1.00  0.00     0.088 A 
HETATM    2  N   UNL     1      27.338  40.189  49.654  1.00  0.00    -0.177 NA
HETATM    3  N   UNL     1      28.124  39.307  50.284  1.00  0.00    -0.287 N 
HETATM    4  H   UNL     1      28.138  38.352  49.943  1.00  0.00     0.188 HD
HETATM    5  C   UNL     1      28.785  39.830  51.352  1.00  0.00     0.141 A 
HETATM    6  C   UNL     1      28.503  41.174  51.344  1.00  0.00     0.079 A 
ENDROOT
BRANCH   1   7
HETATM    7  C   UNL     1      26.631  42.535  50.012  1.00  0.00     0.060 C 
HETATM    8  C   UNL     1      25.249  42.456  50.676  1.00  0.00     0.138 C 
HETATM    9  N   UNL     1      24.420  43.621  50.345  1.00  0.00    -0.334 N 
HETATM   10  C   UNL     1      23.513  43.495  49.301  1.00  0.00     0.318 C 
HETATM   11  C   UNL     1      24.995  44.896  50.764  1.00  0.00     0.127 C 
HETATM   12  N   UNL     1      22.683  44.579  49.148  1.00  0.00    -0.339 N 
HETATM   13  O   UNL     1      23.435  42.498  48.587  1.00  0.00    -0.247 OA
HETATM   14  H   UNL     1      22.488  45.052  50.018  1.00  0.00     0.164 HD
HETATM   15  C   UNL     1      26.355  45.084  50.097  1.00  0.00     0.021 C 
HETATM   16  C   UNL     1      27.280  43.897  50.380  1.00  0.00     0.014 C 
BRANCH  12  17
HETATM   17  C   UNL     1      21.599  44.567  48.176  1.00  0.00     0.078 C 
HETATM   18  C   UNL     1      22.049  45.260  46.893  1.00  0.00     0.032 C 
HETATM   19  C   UNL     1      20.350  45.243  48.741  1.00  0.00     0.032 C 
ENDBRANCH  12  17
ENDBRANCH   1   7
BRANCH   6  20
HETATM   20  N   UNL     1      29.036  42.065  52.258  1.00  0.00    -0.320 N 
HETATM   21  C   UNL     1      28.382  42.284  53.461  1.00  0.00     0.256 C 
HETATM   22  O   UNL     1      27.318  41.779  53.803  1.00  0.00    -0.267 OA
HETATM   23  H   UNL     1      29.431  42.912  51.865  1.00  0.00     0.169 HD
BRANCH  21  24
HETATM   24  C   UNL     1      29.036  43.278  54.349  1.00  0.00     0.032 A 
HETATM   25  C   UNL     1      28.366  44.465  54.647  1.00  0.00     0.020 A 
HETATM   26  C   UNL     1      28.956  45.396  55.504  1.00  0.00     0.038 A 
HETATM   27  C   UNL     1      30.197  45.134  56.090  1.00  0.00     0.068 A 
HETATM   28  C   UNL     1      30.866  43.945  55.790  1.00  0.00     0.038 A 
HETATM   29  C   UNL     1      30.285  43.014  54.922  1.00  0.00     0.020 A 
BRANCH  27  30
HETATM   30  O   UNL     1      30.657  46.113  56.928  1.00  0.00    -0.356 OA
HETATM   31  C   UNL     1      30.512  45.861  58.321  1.00  0.00     0.210 C 
ENDBRANCH  27  30
ENDBRANCH  21  24
ENDBRANCH   6  20
TORSDOF 5
ENDMDL
MODEL 5
REMARK VINA RESULT:      -8.1      2.479      9.239
REMARK  5 active torsions:
REMARK  status: ('A' for Active; 'I' for Inactive)
REMARK    1  A    between atoms: C_2  and  N_3 
REMARK       I    between atoms: N_3  and  C_4 
REMARK       I    between atoms: C_4  and  N_5 
REMARK    2  A    between atoms: C_7  and  C_8 
REMARK    3  A    between atoms: C_13  and  N_14 
REMARK       I    between atoms: N_14  and  C_15 
REMARK    4  A    between atoms: C_15  and  C_16 
REMARK    5  A    between atoms: C_19  and  O_20 
ROOT
HETATM    1  C   UNL     1      26.360  47.594  49.340  1.00  0.00     0.088 A 
HETATM    2  N   UNL     1      27.627  47.833  48.949  1.00  0.00    -0.177 NA
HETATM    3  N   UNL     1      27.630  49.117  48.570  1.00  0.00    -0.287 N 
HETATM    4  H   UNL     1      28.497  49.509  48.219  1.00  0.00     0.188 HD
HETATM    5  C   UNL     1      26.436  49.743  48.752  1.00  0.00     0.141 A 
HETATM    6  C   UNL     1      25.562  48.768  49.165  1.00  0.00     0.079 A 
ENDROOT
BRANCH   1   7
HETATM    7  C   UNL     1      26.033  46.297  50.061  1.00  0.00     0.060 C 
HETATM    8  C   UNL     1      26.458  46.262  51.535  1.00  0.00     0.138 C 
HETATM    9  N   UNL     1      26.124  44.980  52.166  1.00  0.00    -0.334 N 
HETATM   10  C   UNL     1      27.123  44.017  52.242  1.00  0.00     0.318 C 
HETATM   11  C   UNL     1      24.700  44.664  52.150  1.00  0.00     0.127 C 
HETATM   12  N   UNL     1      26.772  42.904  52.968  1.00  0.00    -0.339 N 
HETATM   13  O   UNL     1      28.233  44.149  51.732  1.00  0.00    -0.247 OA
HETATM   14  H   UNL     1      26.118  43.107  53.709  1.00  0.00     0.164 HD
HETATM   15  C   UNL     1      24.205  44.618  50.707  1.00  0.00     0.021 C 
HETATM   16  C   UNL     1      24.530  45.920  49.968  1.00  0.00     0.014 C 
BRANCH  12  17
HETATM   17  C   UNL     1      27.737  41.849  53.244  1.00  0.00     0.078 C 
HETATM   18  C   UNL     1      28.948  42.433  53.964  1.00  0.00     0.032 C 
HETATM   19  C   UNL     1      28.165  41.150  51.953  1.00  0.00     0.032 C 
ENDBRANCH  12  17
ENDBRANCH   1   7
BRANCH   6  20
HETATM   20  N   UNL     1      24.221  49.007  49.410  1.00  0.00    -0.320 N 
HETATM   21  C   UNL     1      23.431  49.557  48.413  1.00  0.00     0.256 C 
HETATM   22  O   UNL     1      23.816  49.905  47.301  1.00  0.00    -0.267 OA
HETATM   23  H   UNL     1      24.001  49.368  50.331  1.00  0.00     0.169 HD
BRANCH  21  24
HETATM   24  C   UNL     1      22.017  49.789  48.800  1.00  0.00     0.032 A 
HETATM   25  C   UNL     1      21.217  48.694  49.132  1.00  0.00     0.020 A 
HETATM   26  C   UNL     1      19.894  48.899  49.526  1.00  0.00     0.038 A 
HETATM   27  C   UNL     1      19.374  50.193  49.621  1.00  0.00     0.068 A 
HETATM   28  C   UNL     1      20.176  51.286  49.287  1.00  0.00     0.038 A 
HETATM   29  C   UNL     1      21.500  51.087  48.880  1.00  0.00     0.020 A 
BRANCH  27  30
HETATM   30  O   UNL     1      18.073  50.262  50.039  1.00  0.00    -0.356 OA
HETATM   31  C   UNL     1      17.391  51.479  49.760  1.00  0.00     0.210 C 
ENDBRANCH  27  30
ENDBRANCH  21  24
ENDBRANCH   6  20
TORSDOF 5
ENDMDL
MODEL 6
REMARK VINA RESULT:      -7.9      3.109      5.830
REMARK  5 active torsions:
REMARK  status: ('A' for Active; 'I' for Inactive)
REMARK    1  A    between atoms: C_2  and  N_3 
REMARK       I    between atoms: N_3  and  C_4 
REMARK       I    between atoms: C_4  and  N_5 
REMARK    2  A    between atoms: C_7  and  C_8 
REMARK    3  A    between atoms: C_13  and  N_14 
REMARK       I    between atoms: N_14  and  C_15 
REMARK    4  A    between atoms: C_15  and  C_16 
REMARK    5  A    between atoms: C_19  and  O_20 
ROOT
HETATM    1  C   UNL     1      29.284  44.751  55.153  1.00  0.00     0.088 A 
HETATM    2  N   UNL     1      29.801  45.102  56.347  1.00  0.00    -0.177 NA
HETATM    3  N   UNL     1      30.744  44.183  56.592  1.00  0.00    -0.287 N 
HETATM    4  H   UNL     1      31.260  44.249  57.463  1.00  0.00     0.188 HD
HETATM    5  C   UNL     1      30.905  43.283  55.586  1.00  0.00     0.141 A 
HETATM    6  C   UNL     1      29.917  43.562  54.673  1.00  0.00     0.079 A 
ENDROOT
BRANCH   1   7
HETATM    7  C   UNL     1      28.343  45.706  54.439  1.00  0.00     0.060 C 
HETATM    8  C   UNL     1      26.956  45.124  54.132  1.00  0.00     0.138 C 
HETATM    9  N   UNL     1      26.103  46.092  53.433  1.00  0.00    -0.334 N 
HETATM   10  C   UNL     1      26.032  46.011  52.048  1.00  0.00     0.318 C 
HETATM   11  C   UNL     1      25.866  47.322  54.181  1.00  0.00     0.127 C 
HETATM   12  N   UNL     1      25.109  46.858  51.485  1.00  0.00    -0.339 N 
HETATM   13  O   UNL     1      26.712  45.236  51.379  1.00  0.00    -0.247 OA
HETATM   14  H   UNL     1      24.318  47.035  52.087  1.00  0.00     0.164 HD
HETATM   15  C   UNL     1      27.200  48.002  54.478  1.00  0.00     0.021 C 
HETATM   16  C   UNL     1      28.160  47.050  55.196  1.00  0.00     0.014 C 
BRANCH  12  17
HETATM   17  C   UNL     1      24.825  46.822  50.058  1.00  0.00     0.078 C 
HETATM   18  C   UNL     1      24.300  48.180  49.601  1.00  0.00     0.032 C 
HETATM   19  C   UNL     1      23.818  45.720  49.729  1.00  0.00     0.032 C 
ENDBRANCH  12  17
ENDBRANCH   1   7
BRANCH   6  20
HETATM   20  N   UNL     1      29.720  42.824  53.520  1.00  0.00    -0.320 N 
HETATM   21  C   UNL     1      28.591  42.028  53.402  1.00  0.00     0.256 C 
HETATM   22  O   UNL     1      27.730  41.870  54.261  1.00  0.00    -0.267 OA
HETATM   23  H   UNL     1      30.549  42.392  53.128  1.00  0.00     0.169 HD
BRANCH  21  24
HETATM   24  C   UNL     1      28.501  41.266  52.131  1.00  0.00     0.032 A 
HETATM   25  C   UNL     1      29.074  39.995  52.060  1.00  0.00     0.020 A 
HETATM   26  C   UNL     1      28.971  39.255  50.880  1.00  0.00     0.038 A 
HETATM   27  C   UNL     1      28.272  39.765  49.782  1.00  0.00     0.068 A 
HETATM   28  C   UNL     1      27.700  41.037  49.856  1.00  0.00     0.038 A 
HETATM   29  C   UNL     1      27.810  41.788  51.031  1.00  0.00     0.020 A 
BRANCH  27  30
HETATM   30  O   UNL     1      28.224  38.935  48.695  1.00  0.00    -0.356 OA
HETATM   31  C   UNL     1      29.306  38.020  48.561  1.00  0.00     0.210 C 
ENDBRANCH  27  30
ENDBRANCH  21  24
ENDBRANCH   6  20
TORSDOF 5
ENDMDL
MODEL 7
REMARK VINA RESULT:      -7.8      3.335      9.244
REMARK  5 active torsions:
REMARK  status: ('A' for Active; 'I' for Inactive)
REMARK    1  A    between atoms: C_2  and  N_3 
REMARK       I    between atoms: N_3  and  C_4 
REMARK       I    between atoms: C_4  and  N_5 
REMARK    2  A    between atoms: C_7  and  C_8 
REMARK    3  A    between atoms: C_13  and  N_14 
REMARK       I    between atoms: N_14  and  C_15 
REMARK    4  A    between atoms: C_15  and  C_16 
REMARK    5  A    between atoms: C_19  and  O_20 
ROOT
HETATM    1  C   UNL     1      26.435  47.414  49.348  1.00  0.00     0.088 A 
HETATM    2  N   UNL     1      27.736  47.598  49.050  1.00  0.00    -0.177 NA
HETATM    3  N   UNL     1      27.828  48.892  48.719  1.00  0.00    -0.287 N 
HETATM    4  H   UNL     1      28.736  49.249  48.440  1.00  0.00     0.188 HD
HETATM    5  C   UNL     1      26.658  49.574  48.843  1.00  0.00     0.141 A 
HETATM    6  C   UNL     1      25.710  48.633  49.162  1.00  0.00     0.079 A 
ENDROOT
BRANCH   1   7
HETATM    7  C   UNL     1      25.996  46.113  49.999  1.00  0.00     0.060 C 
HETATM    8  C   UNL     1      27.146  45.243  50.524  1.00  0.00     0.138 C 
HETATM    9  N   UNL     1      26.654  43.999  51.128  1.00  0.00    -0.334 N 
HETATM   10  C   UNL     1      26.645  42.856  50.339  1.00  0.00     0.318 C 
HETATM   11  C   UNL     1      25.756  44.204  52.260  1.00  0.00     0.127 C 
HETATM   12  N   UNL     1      26.304  41.711  51.018  1.00  0.00    -0.339 N 
HETATM   13  O   UNL     1      26.939  42.853  49.146  1.00  0.00    -0.247 OA
HETATM   14  H   UNL     1      26.579  41.732  51.989  1.00  0.00     0.164 HD
HETATM   15  C   UNL     1      24.545  45.016  51.807  1.00  0.00     0.021 C 
HETATM   16  C   UNL     1      24.973  46.330  51.147  1.00  0.00     0.014 C 
BRANCH  12  17
HETATM   17  C   UNL     1      26.355  40.408  50.371  1.00  0.00     0.078 C 
HETATM   18  C   UNL     1      27.808  39.981  50.183  1.00  0.00     0.032 C 
HETATM   19  C   UNL     1      25.627  40.436  49.028  1.00  0.00     0.032 C 
ENDBRANCH  12  17
ENDBRANCH   1   7
BRANCH   6  20
HETATM   20  N   UNL     1      24.370  48.933  49.326  1.00  0.00    -0.320 N 
HETATM   21  C   UNL     1      23.693  49.611  48.324  1.00  0.00     0.256 C 
HETATM   22  O   UNL     1      24.184  50.024  47.278  1.00  0.00    -0.267 OA
HETATM   23  H   UNL     1      24.097  49.231  50.256  1.00  0.00     0.169 HD
BRANCH  21  24
HETATM   24  C   UNL     1      22.268  49.897  48.623  1.00  0.00     0.032 A 
HETATM   25  C   UNL     1      21.766  51.176  48.375  1.00  0.00     0.020 A 
HETATM   26  C   UNL     1      20.420  51.452  48.624  1.00  0.00     0.038 A 
HETATM   27  C   UNL     1      19.565  50.448  49.088  1.00  0.00     0.068 A 
HETATM   28  C   UNL     1      20.070  49.170  49.335  1.00  0.00     0.038 A 
HETATM   29  C   UNL     1      21.420  48.891  49.100  1.00  0.00     0.020 A 
BRANCH  27  30
HETATM   30  O   UNL     1      18.266  50.838  49.271  1.00  0.00    -0.356 OA
HETATM   31  C   UNL     1      18.076  52.141  49.812  1.00  0.00     0.210 C 
ENDBRANCH  27  30
ENDBRANCH  21  24
ENDBRANCH   6  20
TORSDOF 5
ENDMDL
MODEL 8
REMARK VINA RESULT:      -7.7      2.784      8.363
REMARK  5 active torsions:
REMARK  status: ('A' for Active; 'I' for Inactive)
REMARK    1  A    between atoms: C_2  and  N_3 
REMARK       I    between atoms: N_3  and  C_4 
REMARK       I    between atoms: C_4  and  N_5 
REMARK    2  A    between atoms: C_7  and  C_8 
REMARK    3  A    between atoms: C_13  and  N_14 
REMARK       I    between atoms: N_14  and  C_15 
REMARK    4  A    between atoms: C_15  and  C_16 
REMARK    5  A    between atoms: C_19  and  O_20 
ROOT
HETATM    1  C   UNL     1      27.070  45.529  53.682  1.00  0.00     0.088 A 
HETATM    2  N   UNL     1      27.742  45.993  54.754  1.00  0.00    -0.177 NA
HETATM    3  N   UNL     1      27.162  47.165  55.038  1.00  0.00    -0.287 N 
HETATM    4  H   UNL     1      27.529  47.702  55.816  1.00  0.00     0.188 HD
HETATM    5  C   UNL     1      26.104  47.460  54.237  1.00  0.00     0.141 A 
HETATM    6  C   UNL     1      26.066  46.468  53.287  1.00  0.00     0.079 A 
ENDROOT
BRANCH   1   7
HETATM    7  C   UNL     1      27.298  44.100  53.220  1.00  0.00     0.060 C 
HETATM    8  C   UNL     1      28.231  43.963  52.008  1.00  0.00     0.138 C 
HETATM    9  N   UNL     1      28.398  42.562  51.607  1.00  0.00    -0.334 N 
HETATM   10  C   UNL     1      27.600  42.083  50.576  1.00  0.00     0.318 C 
HETATM   11  C   UNL     1      28.964  41.710  52.649  1.00  0.00     0.127 C 
HETATM   12  N   UNL     1      27.915  40.809  50.170  1.00  0.00    -0.339 N 
HETATM   13  O   UNL     1      26.706  42.742  50.049  1.00  0.00    -0.247 OA
HETATM   14  H   UNL     1      28.894  40.591  50.281  1.00  0.00     0.164 HD
HETATM   15  C   UNL     1      28.060  41.741  53.878  1.00  0.00     0.021 C 
HETATM   16  C   UNL     1      27.819  43.176  54.354  1.00  0.00     0.014 C 
BRANCH  12  17
HETATM   17  C   UNL     1      27.254  40.198  49.025  1.00  0.00     0.078 C 
HETATM   18  C   UNL     1      27.033  38.712  49.290  1.00  0.00     0.032 C 
HETATM   19  C   UNL     1      28.072  40.400  47.750  1.00  0.00     0.032 C 
ENDBRANCH  12  17
ENDBRANCH   1   7
BRANCH   6  20
HETATM   20  N   UNL     1      25.148  46.443  52.253  1.00  0.00    -0.320 N 
HETATM   21  C   UNL     1      25.412  47.145  51.087  1.00  0.00     0.256 C 
HETATM   22  O   UNL     1      26.397  47.846  50.877  1.00  0.00    -0.267 OA
HETATM   23  H   UNL     1      24.174  46.492  52.530  1.00  0.00     0.169 HD
BRANCH  21  24
HETATM   24  C   UNL     1      24.345  47.062  50.059  1.00  0.00     0.032 A 
HETATM   25  C   UNL     1      23.794  48.243  49.557  1.00  0.00     0.020 A 
HETATM   26  C   UNL     1      22.809  48.181  48.569  1.00  0.00     0.038 A 
HETATM   27  C   UNL     1      22.395  46.949  48.056  1.00  0.00     0.068 A 
HETATM   28  C   UNL     1      22.947  45.770  48.561  1.00  0.00     0.038 A 
HETATM   29  C   UNL     1      23.925  45.824  49.560  1.00  0.00     0.020 A 
BRANCH  27  30
HETATM   30  O   UNL     1      21.442  47.024  47.077  1.00  0.00    -0.356 OA
HETATM   31  C   UNL     1      20.327  47.864  47.355  1.00  0.00     0.210 C 
ENDBRANCH  27  30
ENDBRANCH  21  24
ENDBRANCH   6  20
TORSDOF 5
ENDMDL
MODEL 9
REMARK VINA RESULT:      -7.6      6.270      9.609
REMARK  5 active torsions:
REMARK  status: ('A' for Active; 'I' for Inactive)
REMARK    1  A    between atoms: C_2  and  N_3 
REMARK       I    between atoms: N_3  and  C_4 
REMARK       I    between atoms: C_4  and  N_5 
REMARK    2  A    between atoms: C_7  and  C_8 
REMARK    3  A    between atoms: C_13  and  N_14 
REMARK       I    between atoms: N_14  and  C_15 
REMARK    4  A    between atoms: C_15  and  C_16 
REMARK    5  A    between atoms: C_19  and  O_20 
ROOT
HETATM    1  C   UNL     1      17.653  48.821  47.548  1.00  0.00     0.088 A 
HETATM    2  N   UNL     1      16.533  48.084  47.410  1.00  0.00    -0.177 NA
HETATM    3  N   UNL     1      16.971  46.830  47.242  1.00  0.00    -0.287 N 
HETATM    4  H   UNL     1      16.282  46.099  47.102  1.00  0.00     0.188 HD
HETATM    5  C   UNL     1      18.323  46.707  47.322  1.00  0.00     0.141 A 
HETATM    6  C   UNL     1      18.808  47.987  47.431  1.00  0.00     0.079 A 
ENDROOT
BRANCH   1   7
HETATM    7  C   UNL     1      17.542  50.269  47.995  1.00  0.00     0.060 C 
HETATM    8  C   UNL     1      17.322  50.457  49.502  1.00  0.00     0.138 C 
HETATM    9  N   UNL     1      17.213  51.875  49.863  1.00  0.00    -0.334 N 
HETATM   10  C   UNL     1      15.938  52.414  49.989  1.00  0.00     0.318 C 
HETATM   11  C   UNL     1      18.392  52.666  49.527  1.00  0.00     0.127 C 
HETATM   12  N   UNL     1      15.922  53.703  50.463  1.00  0.00    -0.339 N 
HETATM   13  O   UNL     1      14.911  51.793  49.727  1.00  0.00    -0.247 OA
HETATM   14  H   UNL     1      16.690  53.905  51.085  1.00  0.00     0.164 HD
HETATM   15  C   UNL     1      18.649  52.583  48.024  1.00  0.00     0.021 C 
HETATM   16  C   UNL     1      18.760  51.128  47.560  1.00  0.00     0.014 C 
BRANCH  12  17
HETATM   17  C   UNL     1      14.668  54.380  50.762  1.00  0.00     0.078 C 
HETATM   18  C   UNL     1      14.366  55.411  49.679  1.00  0.00     0.032 C 
HETATM   19  C   UNL     1      14.721  55.046  52.137  1.00  0.00     0.032 C 
ENDBRANCH  12  17
ENDBRANCH   1   7
BRANCH   6  20
HETATM   20  N   UNL     1      20.158  48.283  47.489  1.00  0.00    -0.320 N 
HETATM   21  C   UNL     1      20.745  48.560  48.714  1.00  0.00     0.256 C 
HETATM   22  O   UNL     1      20.166  48.610  49.794  1.00  0.00    -0.267 OA
HETATM   23  H   UNL     1      20.512  48.870  46.742  1.00  0.00     0.169 HD
BRANCH  21  24
HETATM   24  C   UNL     1      22.192  48.886  48.648  1.00  0.00     0.032 A 
HETATM   25  C   UNL     1      23.108  48.033  49.265  1.00  0.00     0.020 A 
HETATM   26  C   UNL     1      24.474  48.311  49.186  1.00  0.00     0.038 A 
HETATM   27  C   UNL     1      24.933  49.419  48.467  1.00  0.00     0.068 A 
HETATM   28  C   UNL     1      24.013  50.271  47.851  1.00  0.00     0.038 A 
HETATM   29  C   UNL     1      22.643  50.004  47.937  1.00  0.00     0.020 A 
BRANCH  27  30
HETATM   30  O   UNL     1      26.292  49.569  48.446  1.00  0.00    -0.356 OA
HETATM   31  C   UNL     1      27.030  48.694  49.292  1.00  0.00     0.210 C 
ENDBRANCH  27  30
ENDBRANCH  21  24
ENDBRANCH   6  20
TORSDOF 5
ENDMDL
MODEL 10
REMARK VINA RESULT:      -7.5      3.109      6.589
REMARK  5 active torsions:
REMARK  status: ('A' for Active; 'I' for Inactive)
REMARK    1  A    between atoms: C_2  and  N_3 
REMARK       I    between atoms: N_3  and  C_4 
REMARK       I    between atoms: C_4  and  N_5 
REMARK    2  A    between atoms: C_7  and  C_8 
REMARK    3  A    between atoms: C_13  and  N_14 
REMARK       I    between atoms: N_14  and  C_15 
REMARK    4  A    between atoms: C_15  and  C_16 
REMARK    5  A    between atoms: C_19  and  O_20 
ROOT
HETATM    1  C   UNL     1      28.057  42.844  52.180  1.00  0.00     0.088 A 
HETATM    2  N   UNL     1      29.231  42.585  52.787  1.00  0.00    -0.177 NA
HETATM    3  N   UNL     1      29.467  41.291  52.535  1.00  0.00    -0.287 N 
HETATM    4  H   UNL     1      30.308  40.876  52.919  1.00  0.00     0.188 HD
HETATM    5  C   UNL     1      28.528  40.709  51.741  1.00  0.00     0.141 A 
HETATM    6  C   UNL     1      27.551  41.658  51.562  1.00  0.00     0.079 A 
ENDROOT
BRANCH   1   7
HETATM    7  C   UNL     1      27.585  44.282  52.052  1.00  0.00     0.060 C 
HETATM    8  C   UNL     1      26.433  44.489  51.058  1.00  0.00     0.138 C 
HETATM    9  N   UNL     1      26.035  45.899  50.975  1.00  0.00    -0.334 N 
HETATM   10  C   UNL     1      26.567  46.663  49.943  1.00  0.00     0.318 C 
HETATM   11  C   UNL     1      25.579  46.463  52.242  1.00  0.00     0.127 C 
HETATM   12  N   UNL     1      26.037  47.927  49.854  1.00  0.00    -0.339 N 
HETATM   13  O   UNL     1      27.416  46.245  49.160  1.00  0.00    -0.247 OA
HETATM   14  H   UNL     1      25.078  47.976  50.163  1.00  0.00     0.164 HD
HETATM   15  C   UNL     1      26.694  46.351  53.278  1.00  0.00     0.021 C 
HETATM   16  C   UNL     1      27.181  44.906  53.416  1.00  0.00     0.014 C 
BRANCH  12  17
HETATM   17  C   UNL     1      26.399  48.820  48.762  1.00  0.00     0.078 C 
HETATM   18  C   UNL     1      27.701  49.542  49.095  1.00  0.00     0.032 C 
HETATM   19  C   UNL     1      25.283  49.827  48.488  1.00  0.00     0.032 C 
ENDBRANCH  12  17
ENDBRANCH   1   7
BRANCH   6  20
HETATM   20  N   UNL     1      26.392  41.425  50.843  1.00  0.00    -0.320 N 
HETATM   21  C   UNL     1      26.404  41.566  49.463  1.00  0.00     0.256 C 
HETATM   22  O   UNL     1      27.361  41.925  48.786  1.00  0.00    -0.267 OA
HETATM   23  H   UNL     1      25.537  41.767  51.266  1.00  0.00     0.169 HD
BRANCH  21  24
HETATM   24  C   UNL     1      25.099  41.314  48.804  1.00  0.00     0.032 A 
HETATM   25  C   UNL     1      23.978  42.037  49.218  1.00  0.00     0.020 A 
HETATM   26  C   UNL     1      22.750  41.831  48.587  1.00  0.00     0.038 A 
HETATM   27  C   UNL     1      22.641  40.930  47.524  1.00  0.00     0.068 A 
HETATM   28  C   UNL     1      23.763  40.208  47.112  1.00  0.00     0.038 A 
HETATM   29  C   UNL     1      24.994  40.401  47.748  1.00  0.00     0.020 A 
BRANCH  27  30
HETATM   30  O   UNL     1      21.391  40.835  46.976  1.00  0.00    -0.356 OA
HETATM   31  C   UNL     1      20.971  39.528  46.602  1.00  0.00     0.210 C 
ENDBRANCH  27  30
ENDBRANCH  21  24
ENDBRANCH   6  20
TORSDOF 5
ENDMDL
