MODEL 1
REMARK VINA RESULT:      -7.8      0.000      0.000
REMARK  10 active torsions:
REMARK  status: ('A' for Active; 'I' for Inactive)
REMARK    1  A    between atoms: C_2  and  O_3 
REMARK    2  A    between atoms: O_3  and  C_4 
REMARK    3  A    between atoms: C_7  and  C_8 
REMARK    4  A    between atoms: C_8  and  C_9 
REMARK    5  A    between atoms: C_10  and  C_11 
REMARK    6  A    between atoms: C_14  and  N_15 
REMARK    7  A    between atoms: N_20  and  C_21 
REMARK    8  A    between atoms: C_21  and  C_22 
REMARK    9  A    between atoms: C_22  and  N_23 
REMARK   10  A    between atoms: C_34  and  O_35 
ROOT
HETATM    1  C   UNL     1      27.982  47.923  39.390  1.00  0.00     0.059 C 
HETATM    2  C   UNL     1      27.039  49.005  39.814  1.00  0.00     0.161 C 
HETATM    3  N   UNL     1      26.015  48.892  38.775  1.00  0.00    -0.332 N 
HETATM    4  C   UNL     1      26.469  48.120  37.720  1.00  0.00     0.278 C 
HETATM    5  O   UNL     1      25.923  48.039  36.632  1.00  0.00    -0.265 OA
HETATM    6  C   UNL     1      27.688  47.427  38.178  1.00  0.00     0.146 C 
ENDROOT
BRANCH   1   7
HETATM    7  C   UNL     1      29.175  47.450  40.117  1.00  0.00     0.193 C 
HETATM    8  O   UNL     1      29.381  46.244  40.225  1.00  0.00    -0.287 OA
BRANCH   7   9
HETATM    9  C   UNL     1      30.139  48.420  40.666  1.00  0.00     0.015 A 
HETATM   10  C   UNL     1      30.245  48.656  42.041  1.00  0.00     0.018 A 
HETATM   11  C   UNL     1      31.166  49.597  42.520  1.00  0.00     0.038 A 
HETATM   12  C   UNL     1      31.994  50.284  41.632  1.00  0.00     0.069 A 
HETATM   13  C   UNL     1      31.908  50.008  40.265  1.00  0.00     0.038 A 
HETATM   14  C   UNL     1      30.988  49.079  39.776  1.00  0.00     0.018 A 
BRANCH  12  15
HETATM   15  O   UNL     1      32.942  51.211  41.953  1.00  0.00    -0.347 OA
BRANCH  15  16
HETATM   16  C   UNL     1      33.781  51.021  43.096  1.00  0.00     0.120 C 
HETATM   17  C   UNL     1      33.299  51.911  44.239  1.00  0.00     0.040 C 
HETATM   18  C   UNL     1      35.194  51.421  42.680  1.00  0.00     0.040 C 
ENDBRANCH  15  16
ENDBRANCH  12  15
ENDBRANCH   7   9
ENDBRANCH   1   7
BRANCH   2  19
HETATM   19  C   UNL     1      27.680  50.384  39.845  1.00  0.00    -0.030 A 
HETATM   20  C   UNL     1      28.235  50.972  38.690  1.00  0.00     0.012 A 
HETATM   21  C   UNL     1      28.849  52.226  38.745  1.00  0.00     0.037 A 
HETATM   22  C   UNL     1      28.921  52.907  39.964  1.00  0.00     0.102 A 
HETATM   23  C   UNL     1      28.385  52.339  41.126  1.00  0.00     0.037 A 
HETATM   24  C   UNL     1      27.765  51.086  41.061  1.00  0.00     0.012 A 
BRANCH  22  25
HETATM   25  N   UNL     1      29.552  54.230  40.021  1.00  0.00    -0.116 N 
HETATM   26  O   UNL     1      28.947  55.170  39.483  1.00  0.00    -0.532 OA
HETATM   27  O   UNL     1      30.627  54.328  40.624  1.00  0.00    -0.532 OA
ENDBRANCH  22  25
ENDBRANCH   2  19
BRANCH   6  28
HETATM   28  O   UNL     1      28.346  46.483  37.447  1.00  0.00    -0.355 OA
HETATM   29  H   UNL     1      27.836  45.640  37.519  1.00  0.00     0.218 HD
ENDBRANCH   6  28
BRANCH   3  30
HETATM   30  C   UNL     1      24.840  49.752  38.692  1.00  0.00     0.155 C 
BRANCH  30  31
HETATM   31  C   UNL     1      23.513  48.983  38.951  1.00  0.00     0.254 C 
BRANCH  31  32
HETATM   32  N   UNL     1      22.636  49.566  40.067  1.00  0.00    -0.066 N 
HETATM   33  H   UNL     1      23.288  49.715  40.855  1.00  0.00     0.280 HD
HETATM   34  C   UNL     1      21.603  48.539  40.567  1.00  0.00     0.262 C 
HETATM   35  C   UNL     1      20.357  48.461  39.646  1.00  0.00     0.260 C 
HETATM   36  N   UNL     1      19.733  49.818  39.465  1.00  0.00    -0.072 N 
HETATM   37  H   UNL     1      19.267  50.140  40.329  1.00  0.00     0.277 HD
HETATM   38  H   UNL     1      18.961  49.737  38.780  1.00  0.00     0.277 HD
HETATM   39  C   UNL     1      20.690  50.860  38.947  1.00  0.00     0.260 C 
HETATM   40  C   UNL     1      21.981  50.931  39.800  1.00  0.00     0.262 C 
ENDBRANCH  31  32
ENDBRANCH  30  31
ENDBRANCH   3  30
TORSDOF 10
ENDMDL
MODEL 2
REMARK VINA RESULT:      -7.8     10.343     13.849
REMARK  10 active torsions:
REMARK  status: ('A' for Active; 'I' for Inactive)
REMARK    1  A    between atoms: C_2  and  O_3 
REMARK    2  A    between atoms: O_3  and  C_4 
REMARK    3  A    between atoms: C_7  and  C_8 
REMARK    4  A    between atoms: C_8  and  C_9 
REMARK    5  A    between atoms: C_10  and  C_11 
REMARK    6  A    between atoms: C_14  and  N_15 
REMARK    7  A    between atoms: N_20  and  C_21 
REMARK    8  A    between atoms: C_21  and  C_22 
REMARK    9  A    between atoms: C_22  and  N_23 
REMARK   10  A    between atoms: C_34  and  O_35 
ROOT
HETATM    1  C   UNL     1      24.085  49.230  48.814  1.00  0.00     0.059 C 
HETATM    2  C   UNL     1      23.504  48.127  49.643  1.00  0.00     0.161 C 
HETATM    3  N   UNL     1      24.723  47.447  50.079  1.00  0.00    -0.332 N 
HETATM    4  C   UNL     1      25.813  47.863  49.334  1.00  0.00     0.278 C 
HETATM    5  O   UNL     1      26.901  47.314  49.326  1.00  0.00    -0.265 OA
HETATM    6  C   UNL     1      25.402  49.076  48.601  1.00  0.00     0.146 C 
ENDROOT
BRANCH   1   7
HETATM    7  C   UNL     1      23.358  50.349  48.189  1.00  0.00     0.193 C 
HETATM    8  O   UNL     1      23.904  51.016  47.314  1.00  0.00    -0.287 OA
BRANCH   7   9
HETATM    9  C   UNL     1      21.964  50.634  48.577  1.00  0.00     0.015 A 
HETATM   10  C   UNL     1      20.925  50.644  47.641  1.00  0.00     0.018 A 
HETATM   11  C   UNL     1      19.617  50.933  48.050  1.00  0.00     0.038 A 
HETATM   12  C   UNL     1      19.342  51.188  49.394  1.00  0.00     0.069 A 
HETATM   13  C   UNL     1      20.382  51.133  50.326  1.00  0.00     0.038 A 
HETATM   14  C   UNL     1      21.690  50.855  49.927  1.00  0.00     0.018 A 
BRANCH  12  15
HETATM   15  O   UNL     1      18.122  51.467  49.938  1.00  0.00    -0.347 OA
BRANCH  15  16
HETATM   16  C   UNL     1      17.108  52.099  49.151  1.00  0.00     0.120 C 
HETATM   17  C   UNL     1      16.416  53.177  49.981  1.00  0.00     0.040 C 
HETATM   18  C   UNL     1      16.108  51.013  48.762  1.00  0.00     0.040 C 
ENDBRANCH  15  16
ENDBRANCH  12  15
ENDBRANCH   7   9
ENDBRANCH   1   7
BRANCH   2  19
HETATM   19  C   UNL     1      22.578  47.209  48.860  1.00  0.00    -0.030 A 
HETATM   20  C   UNL     1      21.176  47.303  48.966  1.00  0.00     0.012 A 
HETATM   21  C   UNL     1      20.341  46.430  48.264  1.00  0.00     0.037 A 
HETATM   22  C   UNL     1      20.903  45.442  47.449  1.00  0.00     0.102 A 
HETATM   23  C   UNL     1      22.293  45.324  47.336  1.00  0.00     0.037 A 
HETATM   24  C   UNL     1      23.122  46.208  48.036  1.00  0.00     0.012 A 
BRANCH  22  25
HETATM   25  N   UNL     1      20.028  44.534  46.700  1.00  0.00    -0.116 N 
HETATM   26  O   UNL     1      19.079  44.026  47.315  1.00  0.00    -0.532 OA
HETATM   27  O   UNL     1      20.275  44.358  45.501  1.00  0.00    -0.532 OA
ENDBRANCH  22  25
ENDBRANCH   2  19
BRANCH   6  28
HETATM   28  O   UNL     1      26.252  49.838  47.855  1.00  0.00    -0.355 OA
HETATM   29  H   UNL     1      25.839  50.728  47.747  1.00  0.00     0.218 HD
ENDBRANCH   6  28
BRANCH   3  30
HETATM   30  C   UNL     1      24.735  46.253  50.917  1.00  0.00     0.155 C 
BRANCH  30  31
HETATM   31  C   UNL     1      25.323  46.518  52.333  1.00  0.00     0.254 C 
BRANCH  31  32
HETATM   32  N   UNL     1      26.689  45.870  52.595  1.00  0.00    -0.066 N 
HETATM   33  H   UNL     1      27.374  46.580  52.287  1.00  0.00     0.280 HD
HETATM   34  C   UNL     1      26.917  44.647  51.687  1.00  0.00     0.262 C 
HETATM   35  C   UNL     1      26.221  43.372  52.232  1.00  0.00     0.260 C 
HETATM   36  N   UNL     1      26.648  43.087  53.646  1.00  0.00    -0.072 N 
HETATM   37  H   UNL     1      27.626  42.760  53.690  1.00  0.00     0.277 HD
HETATM   38  H   UNL     1      26.099  42.283  53.999  1.00  0.00     0.277 HD
HETATM   39  C   UNL     1      26.419  44.239  54.590  1.00  0.00     0.260 C 
HETATM   40  C   UNL     1      27.043  45.552  54.057  1.00  0.00     0.262 C 
ENDBRANCH  31  32
ENDBRANCH  30  31
ENDBRANCH   3  30
TORSDOF 10
ENDMDL
MODEL 3
REMARK VINA RESULT:      -7.5     11.268     14.409
REMARK  10 active torsions:
REMARK  status: ('A' for Active; 'I' for Inactive)
REMARK    1  A    between atoms: C_2  and  O_3 
REMARK    2  A    between atoms: O_3  and  C_4 
REMARK    3  A    between atoms: C_7  and  C_8 
REMARK    4  A    between atoms: C_8  and  C_9 
REMARK    5  A    between atoms: C_10  and  C_11 
REMARK    6  A    between atoms: C_14  and  N_15 
REMARK    7  A    between atoms: N_20  and  C_21 
REMARK    8  A    between atoms: C_21  and  C_22 
REMARK    9  A    between atoms: C_22  and  N_23 
REMARK   10  A    between atoms: C_34  and  O_35 
ROOT
HETATM    1  C   UNL     1      15.845  50.383  48.076  1.00  0.00     0.059 C 
HETATM    2  C   UNL     1      16.385  51.107  49.270  1.00  0.00     0.161 C 
HETATM    3  N   UNL     1      15.809  52.435  49.063  1.00  0.00    -0.332 N 
HETATM    4  C   UNL     1      15.317  52.563  47.776  1.00  0.00     0.278 C 
HETATM    5  O   UNL     1      14.985  53.616  47.259  1.00  0.00    -0.265 OA
HETATM    6  C   UNL     1      15.257  51.208  47.195  1.00  0.00     0.146 C 
ENDROOT
BRANCH   1   7
HETATM    7  C   UNL     1      15.973  48.945  47.776  1.00  0.00     0.193 C 
HETATM    8  O   UNL     1      14.962  48.260  47.646  1.00  0.00    -0.287 OA
BRANCH   7   9
HETATM    9  C   UNL     1      17.306  48.345  47.585  1.00  0.00     0.015 A 
HETATM   10  C   UNL     1      18.151  48.744  46.545  1.00  0.00     0.018 A 
HETATM   11  C   UNL     1      19.405  48.138  46.391  1.00  0.00     0.038 A 
HETATM   12  C   UNL     1      19.824  47.154  47.286  1.00  0.00     0.069 A 
HETATM   13  C   UNL     1      18.987  46.794  48.346  1.00  0.00     0.038 A 
HETATM   14  C   UNL     1      17.733  47.385  48.503  1.00  0.00     0.018 A 
BRANCH  12  15
HETATM   15  O   UNL     1      21.016  46.491  47.270  1.00  0.00    -0.347 OA
BRANCH  15  16
HETATM   16  C   UNL     1      21.824  46.430  48.450  1.00  0.00     0.120 C 
HETATM   17  C   UNL     1      22.671  47.695  48.556  1.00  0.00     0.040 C 
HETATM   18  C   UNL     1      22.725  45.206  48.306  1.00  0.00     0.040 C 
ENDBRANCH  15  16
ENDBRANCH  12  15
ENDBRANCH   7   9
ENDBRANCH   1   7
BRANCH   2  19
HETATM   19  C   UNL     1      17.905  51.137  49.318  1.00  0.00    -0.030 A 
HETATM   20  C   UNL     1      18.663  51.883  48.391  1.00  0.00     0.012 A 
HETATM   21  C   UNL     1      20.060  51.873  48.431  1.00  0.00     0.037 A 
HETATM   22  C   UNL     1      20.718  51.108  49.400  1.00  0.00     0.102 A 
HETATM   23  C   UNL     1      19.987  50.353  50.324  1.00  0.00     0.037 A 
HETATM   24  C   UNL     1      18.588  50.374  50.282  1.00  0.00     0.012 A 
BRANCH  22  25
HETATM   25  N   UNL     1      22.184  51.108  49.452  1.00  0.00    -0.116 N 
HETATM   26  O   UNL     1      22.789  51.260  48.381  1.00  0.00    -0.532 OA
HETATM   27  O   UNL     1      22.719  50.989  50.561  1.00  0.00    -0.532 OA
ENDBRANCH  22  25
ENDBRANCH   2  19
BRANCH   6  28
HETATM   28  O   UNL     1      14.708  50.926  45.979  1.00  0.00    -0.355 OA
HETATM   29  H   UNL     1      15.067  51.578  45.331  1.00  0.00     0.218 HD
ENDBRANCH   6  28
BRANCH   3  30
HETATM   30  C   UNL     1      16.041  53.570  49.949  1.00  0.00     0.155 C 
BRANCH  30  31
HETATM   31  C   UNL     1      14.872  53.801  50.949  1.00  0.00     0.254 C 
BRANCH  31  32
HETATM   32  N   UNL     1      14.837  55.194  51.591  1.00  0.00    -0.066 N 
HETATM   33  H   UNL     1      15.537  55.145  52.350  1.00  0.00     0.280 HD
HETATM   34  C   UNL     1      13.487  55.462  52.283  1.00  0.00     0.262 C 
HETATM   35  C   UNL     1      12.390  55.909  51.281  1.00  0.00     0.260 C 
HETATM   36  N   UNL     1      12.841  57.103  50.485  1.00  0.00    -0.072 N 
HETATM   37  H   UNL     1      12.876  57.956  51.067  1.00  0.00     0.277 HD
HETATM   38  H   UNL     1      12.120  57.316  49.773  1.00  0.00     0.277 HD
HETATM   39  C   UNL     1      14.143  56.890  49.758  1.00  0.00     0.260 C 
HETATM   40  C   UNL     1      15.256  56.381  50.708  1.00  0.00     0.262 C 
ENDBRANCH  31  32
ENDBRANCH  30  31
ENDBRANCH   3  30
TORSDOF 10
ENDMDL
MODEL 4
REMARK VINA RESULT:      -7.5      3.336      6.337
REMARK  10 active torsions:
REMARK  status: ('A' for Active; 'I' for Inactive)
REMARK    1  A    between atoms: C_2  and  O_3 
REMARK    2  A    between atoms: O_3  and  C_4 
REMARK    3  A    between atoms: C_7  and  C_8 
REMARK    4  A    between atoms: C_8  and  C_9 
REMARK    5  A    between atoms: C_10  and  C_11 
REMARK    6  A    between atoms: C_14  and  N_15 
REMARK    7  A    between atoms: N_20  and  C_21 
REMARK    8  A    between atoms: C_21  and  C_22 
REMARK    9  A    between atoms: C_22  and  N_23 
REMARK   10  A    between atoms: C_34  and  O_35 
ROOT
HETATM    1  C   UNL     1      34.021  50.447  41.749  1.00  0.00     0.059 C 
HETATM    2  C   UNL     1      32.630  50.519  42.298  1.00  0.00     0.161 C 
HETATM    3  N   UNL     1      32.251  49.107  42.256  1.00  0.00    -0.332 N 
HETATM    4  C   UNL     1      33.135  48.383  41.476  1.00  0.00     0.278 C 
HETATM    5  O   UNL     1      32.946  47.243  41.086  1.00  0.00    -0.265 OA
HETATM    6  C   UNL     1      34.315  49.238  41.245  1.00  0.00     0.146 C 
ENDROOT
BRANCH   1   7
HETATM    7  C   UNL     1      34.996  51.549  41.652  1.00  0.00     0.193 C 
HETATM    8  O   UNL     1      34.906  52.361  40.735  1.00  0.00    -0.287 OA
BRANCH   7   9
HETATM    9  C   UNL     1      36.042  51.702  42.680  1.00  0.00     0.015 A 
HETATM   10  C   UNL     1      37.316  51.145  42.523  1.00  0.00     0.018 A 
HETATM   11  C   UNL     1      38.277  51.302  43.530  1.00  0.00     0.038 A 
HETATM   12  C   UNL     1      37.976  52.033  44.680  1.00  0.00     0.069 A 
HETATM   13  C   UNL     1      36.714  52.619  44.805  1.00  0.00     0.038 A 
HETATM   14  C   UNL     1      35.747  52.461  43.812  1.00  0.00     0.018 A 
BRANCH  12  15
HETATM   15  O   UNL     1      38.811  52.281  45.730  1.00  0.00    -0.347 OA
BRANCH  15  16
HETATM   16  C   UNL     1      38.899  53.596  46.287  1.00  0.00     0.120 C 
HETATM   17  C   UNL     1      40.224  54.236  45.879  1.00  0.00     0.040 C 
HETATM   18  C   UNL     1      38.837  53.440  47.804  1.00  0.00     0.040 C 
ENDBRANCH  15  16
ENDBRANCH  12  15
ENDBRANCH   7   9
ENDBRANCH   1   7
BRANCH   2  19
HETATM   19  C   UNL     1      31.700  51.392  41.469  1.00  0.00    -0.030 A 
HETATM   20  C   UNL     1      31.651  51.298  40.063  1.00  0.00     0.012 A 
HETATM   21  C   UNL     1      30.814  52.131  39.315  1.00  0.00     0.037 A 
HETATM   22  C   UNL     1      30.018  53.077  39.968  1.00  0.00     0.102 A 
HETATM   23  C   UNL     1      30.058  53.194  41.362  1.00  0.00     0.037 A 
HETATM   24  C   UNL     1      30.892  52.351  42.105  1.00  0.00     0.012 A 
BRANCH  22  25
HETATM   25  N   UNL     1      29.128  53.942  39.186  1.00  0.00    -0.116 N 
HETATM   26  O   UNL     1      28.998  55.114  39.569  1.00  0.00    -0.532 OA
HETATM   27  O   UNL     1      28.592  53.457  38.183  1.00  0.00    -0.532 OA
ENDBRANCH  22  25
ENDBRANCH   2  19
BRANCH   6  28
HETATM   28  O   UNL     1      35.448  48.815  40.617  1.00  0.00    -0.355 OA
HETATM   29  H   UNL     1      35.291  47.891  40.308  1.00  0.00     0.218 HD
ENDBRANCH   6  28
BRANCH   3  30
HETATM   30  C   UNL     1      30.946  48.602  42.669  1.00  0.00     0.155 C 
BRANCH  30  31
HETATM   31  C   UNL     1      29.979  48.384  41.471  1.00  0.00     0.254 C 
BRANCH  31  32
HETATM   32  N   UNL     1      28.492  48.576  41.797  1.00  0.00    -0.066 N 
HETATM   33  H   UNL     1      28.418  48.343  42.801  1.00  0.00     0.280 HD
HETATM   34  C   UNL     1      27.616  47.545  41.062  1.00  0.00     0.262 C 
HETATM   35  C   UNL     1      27.333  47.954  39.592  1.00  0.00     0.260 C 
HETATM   36  N   UNL     1      26.730  49.331  39.522  1.00  0.00    -0.072 N 
HETATM   37  H   UNL     1      25.759  49.339  39.874  1.00  0.00     0.277 HD
HETATM   38  H   UNL     1      26.637  49.598  38.526  1.00  0.00     0.277 HD
HETATM   39  C   UNL     1      27.561  50.390  40.199  1.00  0.00     0.260 C 
HETATM   40  C   UNL     1      27.923  49.997  41.652  1.00  0.00     0.262 C 
ENDBRANCH  31  32
ENDBRANCH  30  31
ENDBRANCH   3  30
TORSDOF 10
ENDMDL
MODEL 5
REMARK VINA RESULT:      -7.5      9.807     12.009
REMARK  10 active torsions:
REMARK  status: ('A' for Active; 'I' for Inactive)
REMARK    1  A    between atoms: C_2  and  O_3 
REMARK    2  A    between atoms: O_3  and  C_4 
REMARK    3  A    between atoms: C_7  and  C_8 
REMARK    4  A    between atoms: C_8  and  C_9 
REMARK    5  A    between atoms: C_10  and  C_11 
REMARK    6  A    between atoms: C_14  and  N_15 
REMARK    7  A    between atoms: N_20  and  C_21 
REMARK    8  A    between atoms: C_21  and  C_22 
REMARK    9  A    between atoms: C_22  and  N_23 
REMARK   10  A    between atoms: C_34  and  O_35 
ROOT
HETATM    1  C   UNL     1      21.597  49.678  48.460  1.00  0.00     0.059 C 
HETATM    2  C   UNL     1      20.457  49.049  47.722  1.00  0.00     0.161 C 
HETATM    3  N   UNL     1      19.335  49.445  48.573  1.00  0.00    -0.332 N 
HETATM    4  C   UNL     1      19.785  49.914  49.794  1.00  0.00     0.278 C 
HETATM    5  O   UNL     1      19.079  50.102  50.770  1.00  0.00    -0.265 OA
HETATM    6  C   UNL     1      21.236  50.150  49.663  1.00  0.00     0.146 C 
ENDROOT
BRANCH   1   7
HETATM    7  C   UNL     1      23.006  49.741  48.030  1.00  0.00     0.193 C 
HETATM    8  O   UNL     1      23.332  50.507  47.127  1.00  0.00    -0.287 OA
BRANCH   7   9
HETATM    9  C   UNL     1      24.026  48.926  48.716  1.00  0.00     0.015 A 
HETATM   10  C   UNL     1      25.369  49.313  48.764  1.00  0.00     0.018 A 
HETATM   11  C   UNL     1      26.308  48.502  49.415  1.00  0.00     0.038 A 
HETATM   12  C   UNL     1      25.904  47.320  50.036  1.00  0.00     0.069 A 
HETATM   13  C   UNL     1      24.552  46.966  50.017  1.00  0.00     0.038 A 
HETATM   14  C   UNL     1      23.610  47.762  49.364  1.00  0.00     0.018 A 
BRANCH  12  15
HETATM   15  O   UNL     1      26.698  46.443  50.716  1.00  0.00    -0.347 OA
BRANCH  15  16
HETATM   16  C   UNL     1      26.202  45.151  51.078  1.00  0.00     0.120 C 
HETATM   17  C   UNL     1      26.342  44.953  52.585  1.00  0.00     0.040 C 
HETATM   18  C   UNL     1      27.052  44.126  50.333  1.00  0.00     0.040 C 
ENDBRANCH  15  16
ENDBRANCH  12  15
ENDBRANCH   7   9
ENDBRANCH   1   7
BRANCH   2  19
HETATM   19  C   UNL     1      20.582  47.539  47.595  1.00  0.00    -0.030 A 
HETATM   20  C   UNL     1      20.320  46.678  48.681  1.00  0.00     0.012 A 
HETATM   21  C   UNL     1      20.471  45.295  48.555  1.00  0.00     0.037 A 
HETATM   22  C   UNL     1      20.896  44.754  47.337  1.00  0.00     0.102 A 
HETATM   23  C   UNL     1      21.171  45.590  46.248  1.00  0.00     0.037 A 
HETATM   24  C   UNL     1      21.009  46.973  46.380  1.00  0.00     0.012 A 
BRANCH  22  25
HETATM   25  N   UNL     1      21.041  43.301  47.199  1.00  0.00    -0.116 N 
HETATM   26  O   UNL     1      20.325  42.737  46.358  1.00  0.00    -0.532 OA
HETATM   27  O   UNL     1      21.886  42.738  47.905  1.00  0.00    -0.532 OA
ENDBRANCH  22  25
ENDBRANCH   2  19
BRANCH   6  28
HETATM   28  O   UNL     1      22.001  50.730  50.631  1.00  0.00    -0.355 OA
HETATM   29  H   UNL     1      22.491  51.480  50.215  1.00  0.00     0.218 HD
ENDBRANCH   6  28
BRANCH   3  30
HETATM   30  C   UNL     1      17.949  49.067  48.320  1.00  0.00     0.155 C 
BRANCH  30  31
HETATM   31  C   UNL     1      17.290  49.914  47.195  1.00  0.00     0.254 C 
BRANCH  31  32
HETATM   32  N   UNL     1      17.622  51.412  47.236  1.00  0.00    -0.066 N 
HETATM   33  H   UNL     1      18.631  51.445  47.459  1.00  0.00     0.280 HD
HETATM   34  C   UNL     1      16.911  52.116  48.406  1.00  0.00     0.262 C 
HETATM   35  C   UNL     1      15.436  52.465  48.074  1.00  0.00     0.260 C 
HETATM   36  N   UNL     1      15.346  53.279  46.812  1.00  0.00    -0.072 N 
HETATM   37  H   UNL     1      15.704  54.238  46.952  1.00  0.00     0.277 HD
HETATM   38  H   UNL     1      14.346  53.417  46.581  1.00  0.00     0.277 HD
HETATM   39  C   UNL     1      15.999  52.625  45.622  1.00  0.00     0.260 C 
HETATM   40  C   UNL     1      17.456  52.201  45.926  1.00  0.00     0.262 C 
ENDBRANCH  31  32
ENDBRANCH  30  31
ENDBRANCH   3  30
TORSDOF 10
ENDMDL
MODEL 6
REMARK VINA RESULT:      -7.4     10.764     14.358
REMARK  10 active torsions:
REMARK  status: ('A' for Active; 'I' for Inactive)
REMARK    1  A    between atoms: C_2  and  O_3 
REMARK    2  A    between atoms: O_3  and  C_4 
REMARK    3  A    between atoms: C_7  and  C_8 
REMARK    4  A    between atoms: C_8  and  C_9 
REMARK    5  A    between atoms: C_10  and  C_11 
REMARK    6  A    between atoms: C_14  and  N_15 
REMARK    7  A    between atoms: N_20  and  C_21 
REMARK    8  A    between atoms: C_21  and  C_22 
REMARK    9  A    between atoms: C_22  and  N_23 
REMARK   10  A    between atoms: C_34  and  O_35 
ROOT
HETATM    1  C   UNL     1      21.066  49.034  48.875  1.00  0.00     0.059 C 
HETATM    2  C   UNL     1      20.104  47.901  49.050  1.00  0.00     0.161 C 
HETATM    3  N   UNL     1      20.827  46.827  48.371  1.00  0.00    -0.332 N 
HETATM    4  C   UNL     1      21.867  47.336  47.612  1.00  0.00     0.278 C 
HETATM    5  O   UNL     1      22.492  46.706  46.777  1.00  0.00    -0.265 OA
HETATM    6  C   UNL     1      22.065  48.737  48.030  1.00  0.00     0.146 C 
ENDROOT
BRANCH   1   7
HETATM    7  C   UNL     1      20.963  50.385  49.458  1.00  0.00     0.193 C 
HETATM    8  O   UNL     1      21.929  50.871  50.040  1.00  0.00    -0.287 OA
BRANCH   7   9
HETATM    9  C   UNL     1      19.722  51.165  49.298  1.00  0.00     0.015 A 
HETATM   10  C   UNL     1      19.552  52.072  48.247  1.00  0.00     0.018 A 
HETATM   11  C   UNL     1      18.363  52.804  48.140  1.00  0.00     0.038 A 
HETATM   12  C   UNL     1      17.336  52.616  49.065  1.00  0.00     0.069 A 
HETATM   13  C   UNL     1      17.502  51.676  50.087  1.00  0.00     0.038 A 
HETATM   14  C   UNL     1      18.686  50.948  50.207  1.00  0.00     0.018 A 
BRANCH  12  15
HETATM   15  O   UNL     1      16.124  53.242  49.078  1.00  0.00    -0.347 OA
BRANCH  15  16
HETATM   16  C   UNL     1      15.549  53.675  50.315  1.00  0.00     0.120 C 
HETATM   17  C   UNL     1      14.188  53.011  50.506  1.00  0.00     0.040 C 
HETATM   18  C   UNL     1      15.385  55.190  50.220  1.00  0.00     0.040 C 
ENDBRANCH  15  16
ENDBRANCH  12  15
ENDBRANCH   7   9
ENDBRANCH   1   7
BRANCH   2  19
HETATM   19  C   UNL     1      18.742  48.166  48.426  1.00  0.00    -0.030 A 
HETATM   20  C   UNL     1      17.543  47.846  49.095  1.00  0.00     0.012 A 
HETATM   21  C   UNL     1      16.302  48.067  48.493  1.00  0.00     0.037 A 
HETATM   22  C   UNL     1      16.246  48.606  47.204  1.00  0.00     0.102 A 
HETATM   23  C   UNL     1      17.423  48.923  46.517  1.00  0.00     0.037 A 
HETATM   24  C   UNL     1      18.662  48.706  47.129  1.00  0.00     0.012 A 
BRANCH  22  25
HETATM   25  N   UNL     1      14.943  48.852  46.576  1.00  0.00    -0.116 N 
HETATM   26  O   UNL     1      14.744  49.983  46.108  1.00  0.00    -0.532 OA
HETATM   27  O   UNL     1      14.142  47.911  46.527  1.00  0.00    -0.532 OA
ENDBRANCH  22  25
ENDBRANCH   2  19
BRANCH   6  28
HETATM   28  O   UNL     1      23.085  49.525  47.586  1.00  0.00    -0.355 OA
HETATM   29  H   UNL     1      23.862  49.369  48.175  1.00  0.00     0.218 HD
ENDBRANCH   6  28
BRANCH   3  30
HETATM   30  C   UNL     1      20.316  45.468  48.221  1.00  0.00     0.155 C 
BRANCH  30  31
HETATM   31  C   UNL     1      21.175  44.416  48.978  1.00  0.00     0.254 C 
BRANCH  31  32
HETATM   32  N   UNL     1      22.613  44.265  48.465  1.00  0.00    -0.066 N 
HETATM   33  H   UNL     1      22.721  45.028  47.776  1.00  0.00     0.280 HD
HETATM   34  C   UNL     1      22.794  42.957  47.673  1.00  0.00     0.262 C 
HETATM   35  C   UNL     1      23.010  41.732  48.600  1.00  0.00     0.260 C 
HETATM   36  N   UNL     1      24.161  41.964  49.541  1.00  0.00    -0.072 N 
HETATM   37  H   UNL     1      25.067  41.944  49.045  1.00  0.00     0.277 HD
HETATM   38  H   UNL     1      24.217  41.164  50.196  1.00  0.00     0.277 HD
HETATM   39  C   UNL     1      24.024  43.216  50.368  1.00  0.00     0.260 C 
HETATM   40  C   UNL     1      23.744  44.459  49.488  1.00  0.00     0.262 C 
ENDBRANCH  31  32
ENDBRANCH  30  31
ENDBRANCH   3  30
TORSDOF 10
ENDMDL
MODEL 7
REMARK VINA RESULT:      -7.3      3.166      5.839
REMARK  10 active torsions:
REMARK  status: ('A' for Active; 'I' for Inactive)
REMARK    1  A    between atoms: C_2  and  O_3 
REMARK    2  A    between atoms: O_3  and  C_4 
REMARK    3  A    between atoms: C_7  and  C_8 
REMARK    4  A    between atoms: C_8  and  C_9 
REMARK    5  A    between atoms: C_10  and  C_11 
REMARK    6  A    between atoms: C_14  and  N_15 
REMARK    7  A    between atoms: N_20  and  C_21 
REMARK    8  A    between atoms: C_21  and  C_22 
REMARK    9  A    between atoms: C_22  and  N_23 
REMARK   10  A    between atoms: C_34  and  O_35 
ROOT
HETATM    1  C   UNL     1      26.499  48.320  39.504  1.00  0.00     0.059 C 
HETATM    2  C   UNL     1      27.717  47.458  39.388  1.00  0.00     0.161 C 
HETATM    3  N   UNL     1      27.224  46.215  39.981  1.00  0.00    -0.332 N 
HETATM    4  C   UNL     1      26.036  46.430  40.658  1.00  0.00     0.278 C 
HETATM    5  O   UNL     1      25.519  45.635  41.425  1.00  0.00    -0.265 OA
HETATM    6  C   UNL     1      25.538  47.759  40.254  1.00  0.00     0.146 C 
ENDROOT
BRANCH   1   7
HETATM    7  C   UNL     1      26.317  49.678  38.960  1.00  0.00     0.193 C 
HETATM    8  O   UNL     1      25.390  49.905  38.188  1.00  0.00    -0.287 OA
BRANCH   7   9
HETATM    9  C   UNL     1      27.216  50.769  39.382  1.00  0.00     0.015 A 
HETATM   10  C   UNL     1      27.265  51.212  40.708  1.00  0.00     0.018 A 
HETATM   11  C   UNL     1      28.123  52.261  41.063  1.00  0.00     0.038 A 
HETATM   12  C   UNL     1      28.946  52.850  40.104  1.00  0.00     0.069 A 
HETATM   13  C   UNL     1      28.918  52.370  38.791  1.00  0.00     0.038 A 
HETATM   14  C   UNL     1      28.061  51.332  38.425  1.00  0.00     0.018 A 
BRANCH  12  15
HETATM   15  O   UNL     1      29.838  53.863  40.305  1.00  0.00    -0.347 OA
BRANCH  15  16
HETATM   16  C   UNL     1      31.075  53.613  40.980  1.00  0.00     0.120 C 
HETATM   17  C   UNL     1      31.963  52.729  40.109  1.00  0.00     0.040 C 
HETATM   18  C   UNL     1      30.731  52.893  42.281  1.00  0.00     0.040 C 
ENDBRANCH  15  16
ENDBRANCH  12  15
ENDBRANCH   7   9
ENDBRANCH   1   7
BRANCH   2  19
HETATM   19  C   UNL     1      28.921  48.015  40.131  1.00  0.00    -0.030 A 
HETATM   20  C   UNL     1      28.903  48.221  41.526  1.00  0.00     0.012 A 
HETATM   21  C   UNL     1      30.007  48.764  42.188  1.00  0.00     0.037 A 
HETATM   22  C   UNL     1      31.146  49.116  41.456  1.00  0.00     0.102 A 
HETATM   23  C   UNL     1      31.184  48.929  40.070  1.00  0.00     0.037 A 
HETATM   24  C   UNL     1      30.077  48.377  39.416  1.00  0.00     0.012 A 
BRANCH  22  25
HETATM   25  N   UNL     1      32.312  49.673  42.151  1.00  0.00    -0.116 N 
HETATM   26  O   UNL     1      32.162  50.000  43.337  1.00  0.00    -0.532 OA
HETATM   27  O   UNL     1      33.373  49.751  41.521  1.00  0.00    -0.532 OA
ENDBRANCH  22  25
ENDBRANCH   2  19
BRANCH   6  28
HETATM   28  O   UNL     1      24.326  48.261  40.627  1.00  0.00    -0.355 OA
HETATM   29  H   UNL     1      24.166  49.077  40.096  1.00  0.00     0.218 HD
ENDBRANCH   6  28
BRANCH   3  30
HETATM   30  C   UNL     1      28.035  45.013  40.146  1.00  0.00     0.155 C 
BRANCH  30  31
HETATM   31  C   UNL     1      27.606  43.863  39.191  1.00  0.00     0.254 C 
BRANCH  31  32
HETATM   32  N   UNL     1      27.425  44.275  37.724  1.00  0.00    -0.066 N 
HETATM   33  H   UNL     1      26.785  45.085  37.762  1.00  0.00     0.280 HD
HETATM   34  C   UNL     1      26.680  43.191  36.923  1.00  0.00     0.262 C 
HETATM   35  C   UNL     1      27.621  42.042  36.471  1.00  0.00     0.260 C 
HETATM   36  N   UNL     1      28.796  42.579  35.701  1.00  0.00    -0.072 N 
HETATM   37  H   UNL     1      28.514  42.924  34.769  1.00  0.00     0.277 HD
HETATM   38  H   UNL     1      29.439  41.795  35.493  1.00  0.00     0.277 HD
HETATM   39  C   UNL     1      29.584  43.623  36.449  1.00  0.00     0.260 C 
HETATM   40  C   UNL     1      28.676  44.762  36.975  1.00  0.00     0.262 C 
ENDBRANCH  31  32
ENDBRANCH  30  31
ENDBRANCH   3  30
TORSDOF 10
ENDMDL
MODEL 8
REMARK VINA RESULT:      -7.3     10.499     13.772
REMARK  10 active torsions:
REMARK  status: ('A' for Active; 'I' for Inactive)
REMARK    1  A    between atoms: C_2  and  O_3 
REMARK    2  A    between atoms: O_3  and  C_4 
REMARK    3  A    between atoms: C_7  and  C_8 
REMARK    4  A    between atoms: C_8  and  C_9 
REMARK    5  A    between atoms: C_10  and  C_11 
REMARK    6  A    between atoms: C_14  and  N_15 
REMARK    7  A    between atoms: N_20  and  C_21 
REMARK    8  A    between atoms: C_21  and  C_22 
REMARK    9  A    between atoms: C_22  and  N_23 
REMARK   10  A    between atoms: C_34  and  O_35 
ROOT
HETATM    1  C   UNL     1      21.112  48.776  48.905  1.00  0.00     0.059 C 
HETATM    2  C   UNL     1      20.091  47.694  49.075  1.00  0.00     0.161 C 
HETATM    3  N   UNL     1      20.771  46.578  48.419  1.00  0.00    -0.332 N 
HETATM    4  C   UNL     1      21.847  47.026  47.673  1.00  0.00     0.278 C 
HETATM    5  O   UNL     1      22.453  46.356  46.854  1.00  0.00    -0.265 OA
HETATM    6  C   UNL     1      22.108  48.420  48.079  1.00  0.00     0.146 C 
ENDROOT
BRANCH   1   7
HETATM    7  C   UNL     1      21.067  50.137  49.471  1.00  0.00     0.193 C 
HETATM    8  O   UNL     1      22.053  50.586  50.049  1.00  0.00    -0.287 OA
BRANCH   7   9
HETATM    9  C   UNL     1      19.863  50.969  49.300  1.00  0.00     0.015 A 
HETATM   10  C   UNL     1      19.732  51.865  48.234  1.00  0.00     0.018 A 
HETATM   11  C   UNL     1      18.576  52.648  48.117  1.00  0.00     0.038 A 
HETATM   12  C   UNL     1      17.543  52.520  49.046  1.00  0.00     0.069 A 
HETATM   13  C   UNL     1      17.669  51.591  50.082  1.00  0.00     0.038 A 
HETATM   14  C   UNL     1      18.820  50.813  50.213  1.00  0.00     0.018 A 
BRANCH  12  15
HETATM   15  O   UNL     1      16.361  53.200  49.050  1.00  0.00    -0.347 OA
BRANCH  15  16
HETATM   16  C   UNL     1      15.740  53.563  50.288  1.00  0.00     0.120 C 
HETATM   17  C   UNL     1      14.399  52.845  50.417  1.00  0.00     0.040 C 
HETATM   18  C   UNL     1      15.526  55.074  50.250  1.00  0.00     0.040 C 
ENDBRANCH  15  16
ENDBRANCH  12  15
ENDBRANCH   7   9
ENDBRANCH   1   7
BRANCH   2  19
HETATM   19  C   UNL     1      18.755  48.020  48.426  1.00  0.00    -0.030 A 
HETATM   20  C   UNL     1      17.530  47.723  49.058  1.00  0.00     0.012 A 
HETATM   21  C   UNL     1      16.312  48.000  48.432  1.00  0.00     0.037 A 
HETATM   22  C   UNL     1      16.305  48.574  47.157  1.00  0.00     0.102 A 
HETATM   23  C   UNL     1      17.509  48.869  46.506  1.00  0.00     0.037 A 
HETATM   24  C   UNL     1      18.725  48.596  47.143  1.00  0.00     0.012 A 
BRANCH  22  25
HETATM   25  N   UNL     1      15.027  48.879  46.504  1.00  0.00    -0.116 N 
HETATM   26  O   UNL     1      14.156  47.997  46.524  1.00  0.00    -0.532 OA
HETATM   27  O   UNL     1      14.891  50.002  46.006  1.00  0.00    -0.532 OA
ENDBRANCH  22  25
ENDBRANCH   2  19
BRANCH   6  28
HETATM   28  O   UNL     1      23.174  49.150  47.644  1.00  0.00    -0.355 OA
HETATM   29  H   UNL     1      23.000  50.096  47.868  1.00  0.00     0.218 HD
ENDBRANCH   6  28
BRANCH   3  30
HETATM   30  C   UNL     1      20.195  45.245  48.275  1.00  0.00     0.155 C 
BRANCH  30  31
HETATM   31  C   UNL     1      19.249  45.129  47.046  1.00  0.00     0.254 C 
BRANCH  31  32
HETATM   32  N   UNL     1      19.951  44.810  45.719  1.00  0.00    -0.066 N 
HETATM   33  H   UNL     1      20.958  44.818  45.953  1.00  0.00     0.280 HD
HETATM   34  C   UNL     1      19.752  45.939  44.691  1.00  0.00     0.262 C 
HETATM   35  C   UNL     1      18.380  45.845  43.972  1.00  0.00     0.260 C 
HETATM   36  N   UNL     1      18.193  44.493  43.341  1.00  0.00    -0.072 N 
HETATM   37  H   UNL     1      18.806  44.369  42.519  1.00  0.00     0.277 HD
HETATM   38  H   UNL     1      17.236  44.443  42.948  1.00  0.00     0.277 HD
HETATM   39  C   UNL     1      18.345  43.347  44.307  1.00  0.00     0.260 C 
HETATM   40  C   UNL     1      19.675  43.432  45.095  1.00  0.00     0.262 C 
ENDBRANCH  31  32
ENDBRANCH  30  31
ENDBRANCH   3  30
TORSDOF 10
ENDMDL
MODEL 9
REMARK VINA RESULT:      -7.2      3.466      6.008
REMARK  10 active torsions:
REMARK  status: ('A' for Active; 'I' for Inactive)
REMARK    1  A    between atoms: C_2  and  O_3 
REMARK    2  A    between atoms: O_3  and  C_4 
REMARK    3  A    between atoms: C_7  and  C_8 
REMARK    4  A    between atoms: C_8  and  C_9 
REMARK    5  A    between atoms: C_10  and  C_11 
REMARK    6  A    between atoms: C_14  and  N_15 
REMARK    7  A    between atoms: N_20  and  C_21 
REMARK    8  A    between atoms: C_21  and  C_22 
REMARK    9  A    between atoms: C_22  and  N_23 
REMARK   10  A    between atoms: C_34  and  O_35 
ROOT
HETATM    1  C   UNL     1      26.455  48.309  39.476  1.00  0.00     0.059 C 
HETATM    2  C   UNL     1      27.679  47.450  39.413  1.00  0.00     0.161 C 
HETATM    3  N   UNL     1      27.179  46.223  40.034  1.00  0.00    -0.332 N 
HETATM    4  C   UNL     1      25.977  46.453  40.680  1.00  0.00     0.278 C 
HETATM    5  O   UNL     1      25.447  45.681  41.460  1.00  0.00    -0.265 OA
HETATM    6  C   UNL     1      25.482  47.767  40.224  1.00  0.00     0.146 C 
ENDROOT
BRANCH   1   7
HETATM    7  C   UNL     1      26.280  49.649  38.887  1.00  0.00     0.193 C 
HETATM    8  O   UNL     1      25.323  49.867  38.148  1.00  0.00    -0.287 OA
BRANCH   7   9
HETATM    9  C   UNL     1      27.221  50.734  39.224  1.00  0.00     0.015 A 
HETATM   10  C   UNL     1      28.091  51.276  38.272  1.00  0.00     0.018 A 
HETATM   11  C   UNL     1      28.979  52.296  38.638  1.00  0.00     0.038 A 
HETATM   12  C   UNL     1      28.982  52.790  39.942  1.00  0.00     0.069 A 
HETATM   13  C   UNL     1      28.078  52.269  40.872  1.00  0.00     0.038 A 
HETATM   14  C   UNL     1      27.196  51.247  40.521  1.00  0.00     0.018 A 
BRANCH  12  15
HETATM   15  O   UNL     1      29.774  53.786  40.435  1.00  0.00    -0.347 OA
BRANCH  15  16
HETATM   16  C   UNL     1      31.023  53.472  41.061  1.00  0.00     0.120 C 
HETATM   17  C   UNL     1      31.805  52.500  40.181  1.00  0.00     0.040 C 
HETATM   18  C   UNL     1      30.695  52.820  42.401  1.00  0.00     0.040 C 
ENDBRANCH  15  16
ENDBRANCH  12  15
ENDBRANCH   7   9
ENDBRANCH   1   7
BRANCH   2  19
HETATM   19  C   UNL     1      28.865  48.035  40.164  1.00  0.00    -0.030 A 
HETATM   20  C   UNL     1      30.081  48.333  39.514  1.00  0.00     0.012 A 
HETATM   21  C   UNL     1      31.171  48.841  40.226  1.00  0.00     0.037 A 
HETATM   22  C   UNL     1      31.059  49.051  41.604  1.00  0.00     0.102 A 
HETATM   23  C   UNL     1      29.865  48.754  42.271  1.00  0.00     0.037 A 
HETATM   24  C   UNL     1      28.776  48.253  41.550  1.00  0.00     0.012 A 
BRANCH  22  25
HETATM   25  N   UNL     1      32.198  49.598  42.350  1.00  0.00    -0.116 N 
HETATM   26  O   UNL     1      31.988  49.963  43.516  1.00  0.00    -0.532 OA
HETATM   27  O   UNL     1      33.295  49.631  41.781  1.00  0.00    -0.532 OA
ENDBRANCH  22  25
ENDBRANCH   2  19
BRANCH   6  28
HETATM   28  O   UNL     1      24.261  48.274  40.555  1.00  0.00    -0.355 OA
HETATM   29  H   UNL     1      23.582  47.785  40.032  1.00  0.00     0.218 HD
ENDBRANCH   6  28
BRANCH   3  30
HETATM   30  C   UNL     1      27.991  45.032  40.253  1.00  0.00     0.155 C 
BRANCH  30  31
HETATM   31  C   UNL     1      27.656  43.884  39.258  1.00  0.00     0.254 C 
BRANCH  31  32
HETATM   32  N   UNL     1      26.718  42.803  39.811  1.00  0.00    -0.066 N 
HETATM   33  H   UNL     1      25.787  43.252  39.821  1.00  0.00     0.280 HD
HETATM   34  C   UNL     1      27.041  42.475  41.280  1.00  0.00     0.262 C 
HETATM   35  C   UNL     1      28.234  41.491  41.415  1.00  0.00     0.260 C 
HETATM   36  N   UNL     1      27.993  40.239  40.616  1.00  0.00    -0.072 N 
HETATM   37  H   UNL     1      27.259  39.651  41.043  1.00  0.00     0.277 HD
HETATM   38  H   UNL     1      28.844  39.650  40.664  1.00  0.00     0.277 HD
HETATM   39  C   UNL     1      27.703  40.496  39.161  1.00  0.00     0.260 C 
HETATM   40  C   UNL     1      26.558  41.523  38.975  1.00  0.00     0.262 C 
ENDBRANCH  31  32
ENDBRANCH  30  31
ENDBRANCH   3  30
TORSDOF 10
ENDMDL
MODEL 10
REMARK VINA RESULT:      -7.1      2.460      5.510
REMARK  10 active torsions:
REMARK  status: ('A' for Active; 'I' for Inactive)
REMARK    1  A    between atoms: C_2  and  O_3 
REMARK    2  A    between atoms: O_3  and  C_4 
REMARK    3  A    between atoms: C_7  and  C_8 
REMARK    4  A    between atoms: C_8  and  C_9 
REMARK    5  A    between atoms: C_10  and  C_11 
REMARK    6  A    between atoms: C_14  and  N_15 
REMARK    7  A    between atoms: N_20  and  C_21 
REMARK    8  A    between atoms: C_21  and  C_22 
REMARK    9  A    between atoms: C_22  and  N_23 
REMARK   10  A    between atoms: C_34  and  O_35 
ROOT
HETATM    1  C   UNL     1      30.545  50.499  41.506  1.00  0.00     0.059 C 
HETATM    2  C   UNL     1      30.285  49.905  40.157  1.00  0.00     0.161 C 
HETATM    3  N   UNL     1      29.460  50.952  39.556  1.00  0.00    -0.332 N 
HETATM    4  C   UNL     1      29.012  51.839  40.519  1.00  0.00     0.278 C 
HETATM    5  O   UNL     1      28.138  52.672  40.346  1.00  0.00    -0.265 OA
HETATM    6  C   UNL     1      29.801  51.591  41.741  1.00  0.00     0.146 C 
ENDROOT
BRANCH   1   7
HETATM    7  C   UNL     1      31.436  49.967  42.553  1.00  0.00     0.193 C 
HETATM    8  O   UNL     1      31.088  48.987  43.206  1.00  0.00    -0.287 OA
BRANCH   7   9
HETATM    9  C   UNL     1      32.757  50.581  42.782  1.00  0.00     0.015 A 
HETATM   10  C   UNL     1      32.987  51.460  43.845  1.00  0.00     0.018 A 
HETATM   11  C   UNL     1      34.254  52.032  44.018  1.00  0.00     0.038 A 
HETATM   12  C   UNL     1      35.295  51.710  43.148  1.00  0.00     0.069 A 
HETATM   13  C   UNL     1      35.063  50.797  42.115  1.00  0.00     0.038 A 
HETATM   14  C   UNL     1      33.803  50.229  41.929  1.00  0.00     0.018 A 
BRANCH  12  15
HETATM   15  O   UNL     1      36.577  52.173  43.202  1.00  0.00    -0.347 OA
BRANCH  15  16
HETATM   16  C   UNL     1      36.893  53.333  43.979  1.00  0.00     0.120 C 
HETATM   17  C   UNL     1      37.654  54.336  43.115  1.00  0.00     0.040 C 
HETATM   18  C   UNL     1      37.772  52.864  45.135  1.00  0.00     0.040 C 
ENDBRANCH  15  16
ENDBRANCH  12  15
ENDBRANCH   7   9
ENDBRANCH   1   7
BRANCH   2  19
HETATM   19  C   UNL     1      29.566  48.566  40.218  1.00  0.00    -0.030 A 
HETATM   20  C   UNL     1      28.473  48.349  41.082  1.00  0.00     0.012 A 
HETATM   21  C   UNL     1      27.845  47.102  41.148  1.00  0.00     0.037 A 
HETATM   22  C   UNL     1      28.309  46.051  40.351  1.00  0.00     0.102 A 
HETATM   23  C   UNL     1      29.398  46.241  39.492  1.00  0.00     0.037 A 
HETATM   24  C   UNL     1      30.017  47.494  39.426  1.00  0.00     0.012 A 
BRANCH  22  25
HETATM   25  N   UNL     1      27.642  44.746  40.409  1.00  0.00    -0.116 N 
HETATM   26  O   UNL     1      26.403  44.741  40.354  1.00  0.00    -0.532 OA
HETATM   27  O   UNL     1      28.355  43.739  40.476  1.00  0.00    -0.532 OA
ENDBRANCH  22  25
ENDBRANCH   2  19
BRANCH   6  28
HETATM   28  O   UNL     1      29.722  52.358  42.865  1.00  0.00    -0.355 OA
HETATM   29  H   UNL     1      30.437  52.064  43.479  1.00  0.00     0.218 HD
ENDBRANCH   6  28
BRANCH   3  30
HETATM   30  C   UNL     1      28.895  50.874  38.213  1.00  0.00     0.155 C 
BRANCH  30  31
HETATM   31  C   UNL     1      27.339  50.881  38.214  1.00  0.00     0.254 C 
BRANCH  31  32
HETATM   32  N   UNL     1      26.688  49.565  38.662  1.00  0.00    -0.066 N 
HETATM   33  H   UNL     1      27.275  49.243  39.450  1.00  0.00     0.280 HD
HETATM   34  C   UNL     1      26.810  48.479  37.578  1.00  0.00     0.262 C 
HETATM   35  C   UNL     1      25.729  48.624  36.474  1.00  0.00     0.260 C 
HETATM   36  N   UNL     1      24.348  48.646  37.072  1.00  0.00    -0.072 N 
HETATM   37  H   UNL     1      24.076  47.717  37.433  1.00  0.00     0.277 HD
HETATM   38  H   UNL     1      23.666  48.829  36.315  1.00  0.00     0.277 HD
HETATM   39  C   UNL     1      24.159  49.712  38.119  1.00  0.00     0.260 C 
HETATM   40  C   UNL     1      25.254  49.646  39.211  1.00  0.00     0.262 C 
ENDBRANCH  31  32
ENDBRANCH  30  31
ENDBRANCH   3  30
TORSDOF 10
ENDMDL
