MODEL 1
REMARK VINA RESULT:      -8.3      0.000      0.000
REMARK  7 active torsions:
REMARK  status: ('A' for Active; 'I' for Inactive)
REMARK    1  A    between atoms: C_7  and  C_8 
REMARK    2  A    between atoms: C_8  and  C_9 
REMARK    3  A    between atoms: C_9  and  C_10 
REMARK    4  A    between atoms: C_10  and  O_11 
REMARK    5  A    between atoms: C_13  and  C_14 
REMARK    6  A    between atoms: C_21  and  C_22 
REMARK       I    between atoms: C_22  and  N_23 
REMARK    7  A    between atoms: N_23  and  C_24 
ROOT
HETATM    1  C   UNL     1      25.520  47.085  52.176  1.00  0.00     0.070 C 
HETATM    2  C   UNL     1      24.948  45.914  51.416  1.00  0.00     0.037 A 
HETATM    3  N   UNL     1      24.160  46.238  50.317  1.00  0.00    -0.192 N 
HETATM    4  C   UNL     1      23.521  45.322  49.566  1.00  0.00     0.726 A 
HETATM    5  N   UNL     1      23.685  43.996  49.850  1.00  0.00    -0.083 N 
HETATM    6  N   UNL     1      22.871  43.227  49.095  1.00  0.00    -0.140 NA
HETATM    7  C   UNL     1      22.334  44.155  48.288  1.00  0.00     0.166 A 
HETATM    8  N   UNL     1      22.694  45.453  48.562  1.00  0.00    -0.046 NA
HETATM    9  C   UNL     1      24.542  43.481  50.925  1.00  0.00     0.202 A 
HETATM   10  C   UNL     1      25.143  44.613  51.749  1.00  0.00     0.062 A 
HETATM   11  H   UNL     1      24.032  47.223  50.099  1.00  0.00     0.184 HD
ENDROOT
BRANCH  10  12
HETATM   12  C   UNL     1      26.043  44.254  52.880  1.00  0.00     0.256 C 
HETATM   13  N   UNL     1      27.383  44.415  52.594  1.00  0.00    -0.323 N 
HETATM   14  H   UNL     1      27.641  44.775  51.686  1.00  0.00     0.169 HD
HETATM   15  O   UNL     1      25.555  43.864  53.933  1.00  0.00    -0.267 OA
BRANCH  13  16
HETATM   16  C   UNL     1      28.472  44.111  53.440  1.00  0.00     0.035 A 
HETATM   17  C   UNL     1      28.727  44.758  54.651  1.00  0.00     0.029 A 
HETATM   18  C   UNL     1      29.816  44.379  55.443  1.00  0.00     0.002 A 
HETATM   19  C   UNL     1      30.666  43.358  55.026  1.00  0.00     0.000 A 
HETATM   20  C   UNL     1      30.425  42.708  53.820  1.00  0.00     0.002 A 
HETATM   21  C   UNL     1      29.330  43.079  53.034  1.00  0.00     0.029 A 
ENDBRANCH  13  16
ENDBRANCH  10  12
BRANCH   9  22
HETATM   22  C   UNL     1      25.563  42.508  50.342  1.00  0.00    -0.028 A 
HETATM   23  C   UNL     1      26.402  42.864  49.271  1.00  0.00     0.011 A 
HETATM   24  C   UNL     1      27.304  41.940  48.736  1.00  0.00     0.019 A 
HETATM   25  C   UNL     1      27.366  40.650  49.255  1.00  0.00     0.011 A 
HETATM   26 BR   UNL     1      28.578  39.397  48.522  1.00  0.00    -0.051 Br
HETATM   27  C   UNL     1      26.535  40.272  50.306  1.00  0.00     0.019 A 
HETATM   28  C   UNL     1      25.639  41.196  50.846  1.00  0.00     0.011 A 
ENDBRANCH   9  22
BRANCH   7  29
HETATM   29  C   UNL     1      21.424  43.804  47.170  1.00  0.00     0.085 C 
BRANCH  29  30
HETATM   30  C   UNL     1      20.452  44.927  46.813  1.00  0.00     0.034 C 
BRANCH  30  31
HETATM   31  C   UNL     1      19.005  44.603  47.171  1.00  0.00     0.164 C 
BRANCH  31  32
HETATM   32  O   UNL     1      18.833  44.691  48.582  1.00  0.00    -0.401 OA
HETATM   33  H   UNL     1      17.893  44.538  48.772  1.00  0.00     0.209 HD
ENDBRANCH  31  32
ENDBRANCH  30  31
ENDBRANCH  29  30
ENDBRANCH   7  29
TORSDOF 7
ENDMDL
MODEL 2
REMARK VINA RESULT:      -8.0      2.878      8.456
REMARK  7 active torsions:
REMARK  status: ('A' for Active; 'I' for Inactive)
REMARK    1  A    between atoms: C_7  and  C_8 
REMARK    2  A    between atoms: C_8  and  C_9 
REMARK    3  A    between atoms: C_9  and  C_10 
REMARK    4  A    between atoms: C_10  and  O_11 
REMARK    5  A    between atoms: C_13  and  C_14 
REMARK    6  A    between atoms: C_21  and  C_22 
REMARK       I    between atoms: C_22  and  N_23 
REMARK    7  A    between atoms: N_23  and  C_24 
ROOT
HETATM    1  C   UNL     1      26.132  40.452  50.287  1.00  0.00     0.070 C 
HETATM    2  C   UNL     1      26.404  41.680  51.121  1.00  0.00     0.037 A 
HETATM    3  N   UNL     1      27.578  41.654  51.864  1.00  0.00    -0.192 N 
HETATM    4  C   UNL     1      27.943  42.635  52.710  1.00  0.00     0.726 A 
HETATM    5  N   UNL     1      27.158  43.748  52.818  1.00  0.00    -0.083 N 
HETATM    6  N   UNL     1      27.593  44.562  53.804  1.00  0.00    -0.140 NA
HETATM    7  C   UNL     1      28.722  43.932  54.164  1.00  0.00     0.166 A 
HETATM    8  N   UNL     1      28.957  42.736  53.529  1.00  0.00    -0.046 NA
HETATM    9  C   UNL     1      25.928  43.969  52.048  1.00  0.00     0.202 A 
HETATM   10  C   UNL     1      25.581  42.758  51.192  1.00  0.00     0.062 A 
HETATM   11  H   UNL     1      28.168  40.829  51.790  1.00  0.00     0.184 HD
ENDROOT
BRANCH  10  12
HETATM   12  C   UNL     1      24.358  42.826  50.344  1.00  0.00     0.256 C 
HETATM   13  N   UNL     1      24.622  43.051  49.009  1.00  0.00    -0.323 N 
HETATM   14  H   UNL     1      25.584  43.122  48.714  1.00  0.00     0.169 HD
HETATM   15  O   UNL     1      23.260  42.681  50.866  1.00  0.00    -0.267 OA
BRANCH  13  16
HETATM   16  C   UNL     1      23.673  43.216  47.975  1.00  0.00     0.035 A 
HETATM   17  C   UNL     1      23.166  44.452  47.568  1.00  0.00     0.029 A 
HETATM   18  C   UNL     1      22.246  44.530  46.517  1.00  0.00     0.002 A 
HETATM   19  C   UNL     1      21.816  43.374  45.872  1.00  0.00     0.000 A 
HETATM   20  C   UNL     1      22.311  42.136  46.272  1.00  0.00     0.002 A 
HETATM   21  C   UNL     1      23.239  42.059  47.314  1.00  0.00     0.029 A 
ENDBRANCH  13  16
ENDBRANCH  10  12
BRANCH   9  22
HETATM   22  C   UNL     1      26.037  45.282  51.277  1.00  0.00    -0.028 A 
HETATM   23  C   UNL     1      25.149  46.349  51.498  1.00  0.00     0.011 A 
HETATM   24  C   UNL     1      25.252  47.527  50.753  1.00  0.00     0.019 A 
HETATM   25  C   UNL     1      26.232  47.643  49.771  1.00  0.00     0.011 A 
HETATM   26 BR   UNL     1      26.362  49.231  48.754  1.00  0.00    -0.051 Br
HETATM   27  C   UNL     1      27.113  46.593  49.526  1.00  0.00     0.019 A 
HETATM   28  C   UNL     1      27.015  45.419  50.275  1.00  0.00     0.011 A 
ENDBRANCH   9  22
BRANCH   7  29
HETATM   29  C   UNL     1      29.658  44.494  55.169  1.00  0.00     0.085 C 
BRANCH  29  30
HETATM   30  C   UNL     1      30.695  43.483  55.652  1.00  0.00     0.034 C 
BRANCH  30  31
HETATM   31  C   UNL     1      31.367  43.890  56.959  1.00  0.00     0.164 C 
BRANCH  31  32
HETATM   32  O   UNL     1      32.166  42.813  57.439  1.00  0.00    -0.401 OA
HETATM   33  H   UNL     1      31.593  42.237  57.971  1.00  0.00     0.209 HD
ENDBRANCH  31  32
ENDBRANCH  30  31
ENDBRANCH  29  30
ENDBRANCH   7  29
TORSDOF 7
ENDMDL
MODEL 3
REMARK VINA RESULT:      -7.9      6.028      8.598
REMARK  7 active torsions:
REMARK  status: ('A' for Active; 'I' for Inactive)
REMARK    1  A    between atoms: C_7  and  C_8 
REMARK    2  A    between atoms: C_8  and  C_9 
REMARK    3  A    between atoms: C_9  and  C_10 
REMARK    4  A    between atoms: C_10  and  O_11 
REMARK    5  A    between atoms: C_13  and  C_14 
REMARK    6  A    between atoms: C_21  and  C_22 
REMARK       I    between atoms: C_22  and  N_23 
REMARK    7  A    between atoms: N_23  and  C_24 
ROOT
HETATM    1  C   UNL     1      23.049  51.214  48.166  1.00  0.00     0.070 C 
HETATM    2  C   UNL     1      21.653  50.748  48.503  1.00  0.00     0.037 A 
HETATM    3  N   UNL     1      20.694  51.749  48.605  1.00  0.00    -0.192 N 
HETATM    4  C   UNL     1      19.416  51.519  48.960  1.00  0.00     0.726 A 
HETATM    5  N   UNL     1      19.008  50.235  49.183  1.00  0.00    -0.083 N 
HETATM    6  N   UNL     1      17.745  50.198  49.662  1.00  0.00    -0.140 NA
HETATM    7  C   UNL     1      17.412  51.495  49.581  1.00  0.00     0.166 A 
HETATM    8  N   UNL     1      18.419  52.338  49.175  1.00  0.00    -0.046 NA
HETATM    9  C   UNL     1      19.872  49.057  49.044  1.00  0.00     0.202 A 
HETATM   10  C   UNL     1      21.307  49.454  48.719  1.00  0.00     0.062 A 
HETATM   11  H   UNL     1      20.990  52.708  48.441  1.00  0.00     0.184 HD
ENDROOT
BRANCH  10  12
HETATM   12  C   UNL     1      22.311  48.368  48.541  1.00  0.00     0.256 C 
HETATM   13  N   UNL     1      23.051  48.107  49.675  1.00  0.00    -0.323 N 
HETATM   14  H   UNL     1      22.847  48.630  50.514  1.00  0.00     0.169 HD
HETATM   15  O   UNL     1      22.402  47.810  47.455  1.00  0.00    -0.267 OA
BRANCH  13  16
HETATM   16  C   UNL     1      24.106  47.176  49.801  1.00  0.00     0.035 A 
HETATM   17  C   UNL     1      23.926  45.792  49.855  1.00  0.00     0.029 A 
HETATM   18  C   UNL     1      25.028  44.937  49.957  1.00  0.00     0.002 A 
HETATM   19  C   UNL     1      26.319  45.457  50.017  1.00  0.00     0.000 A 
HETATM   20  C   UNL     1      26.510  46.834  49.969  1.00  0.00     0.002 A 
HETATM   21  C   UNL     1      25.410  47.689  49.855  1.00  0.00     0.029 A 
ENDBRANCH  13  16
ENDBRANCH  10  12
BRANCH   9  22
HETATM   22  C   UNL     1      19.245  48.078  48.055  1.00  0.00    -0.028 A 
HETATM   23  C   UNL     1      19.001  48.428  46.715  1.00  0.00     0.011 A 
HETATM   24  C   UNL     1      18.394  47.522  45.841  1.00  0.00     0.019 A 
HETATM   25  C   UNL     1      18.012  46.265  46.301  1.00  0.00     0.011 A 
HETATM   26 BR   UNL     1      17.179  45.045  45.122  1.00  0.00    -0.051 Br
HETATM   27  C   UNL     1      18.231  45.903  47.627  1.00  0.00     0.019 A 
HETATM   28  C   UNL     1      18.844  46.804  48.499  1.00  0.00     0.011 A 
ENDBRANCH   9  22
BRANCH   7  29
HETATM   29  C   UNL     1      16.047  51.984  49.896  1.00  0.00     0.085 C 
BRANCH  29  30
HETATM   30  C   UNL     1      15.996  53.489  50.153  1.00  0.00     0.034 C 
BRANCH  30  31
HETATM   31  C   UNL     1      14.599  53.990  50.509  1.00  0.00     0.164 C 
BRANCH  31  32
HETATM   32  O   UNL     1      13.922  53.001  51.279  1.00  0.00    -0.401 OA
HETATM   33  H   UNL     1      14.595  52.407  51.650  1.00  0.00     0.209 HD
ENDBRANCH  31  32
ENDBRANCH  30  31
ENDBRANCH  29  30
ENDBRANCH   7  29
TORSDOF 7
ENDMDL
MODEL 4
REMARK VINA RESULT:      -7.7      3.649      4.833
REMARK  7 active torsions:
REMARK  status: ('A' for Active; 'I' for Inactive)
REMARK    1  A    between atoms: C_7  and  C_8 
REMARK    2  A    between atoms: C_8  and  C_9 
REMARK    3  A    between atoms: C_9  and  C_10 
REMARK    4  A    between atoms: C_10  and  O_11 
REMARK    5  A    between atoms: C_13  and  C_14 
REMARK    6  A    between atoms: C_21  and  C_22 
REMARK       I    between atoms: C_22  and  N_23 
REMARK    7  A    between atoms: N_23  and  C_24 
ROOT
HETATM    1  C   UNL     1      27.552  48.674  49.263  1.00  0.00     0.070 C 
HETATM    2  C   UNL     1      26.056  48.476  49.267  1.00  0.00     0.037 A 
HETATM    3  N   UNL     1      25.314  49.488  48.668  1.00  0.00    -0.192 N 
HETATM    4  C   UNL     1      23.968  49.505  48.641  1.00  0.00     0.726 A 
HETATM    5  N   UNL     1      23.278  48.454  49.176  1.00  0.00    -0.083 N 
HETATM    6  N   UNL     1      21.949  48.696  49.189  1.00  0.00    -0.140 NA
HETATM    7  C   UNL     1      21.904  49.863  48.528  1.00  0.00     0.166 A 
HETATM    8  N   UNL     1      23.125  50.399  48.195  1.00  0.00    -0.046 NA
HETATM    9  C   UNL     1      23.907  47.272  49.776  1.00  0.00     0.202 A 
HETATM   10  C   UNL     1      25.424  47.410  49.820  1.00  0.00     0.062 A 
HETATM   11  H   UNL     1      25.820  50.274  48.268  1.00  0.00     0.184 HD
ENDROOT
BRANCH  10  12
HETATM   12  C   UNL     1      26.213  46.287  50.399  1.00  0.00     0.256 C 
HETATM   13  N   UNL     1      25.993  46.092  51.746  1.00  0.00    -0.323 N 
HETATM   14  H   UNL     1      25.321  46.682  52.215  1.00  0.00     0.169 HD
HETATM   15  O   UNL     1      26.962  45.645  49.673  1.00  0.00    -0.267 OA
BRANCH  13  16
HETATM   16  C   UNL     1      26.629  45.144  52.579  1.00  0.00     0.035 A 
HETATM   17  C   UNL     1      26.708  43.780  52.294  1.00  0.00     0.029 A 
HETATM   18  C   UNL     1      27.377  42.911  53.162  1.00  0.00     0.002 A 
HETATM   19  C   UNL     1      27.964  43.396  54.328  1.00  0.00     0.000 A 
HETATM   20  C   UNL     1      27.887  44.754  54.625  1.00  0.00     0.002 A 
HETATM   21  C   UNL     1      27.228  45.624  53.752  1.00  0.00     0.029 A 
ENDBRANCH  13  16
ENDBRANCH  10  12
BRANCH   9  22
HETATM   22  C   UNL     1      23.404  46.014  49.073  1.00  0.00    -0.028 A 
HETATM   23  C   UNL     1      23.352  44.769  49.725  1.00  0.00     0.011 A 
HETATM   24  C   UNL     1      22.919  43.627  49.045  1.00  0.00     0.019 A 
HETATM   25  C   UNL     1      22.549  43.715  47.706  1.00  0.00     0.011 A 
HETATM   26 BR   UNL     1      21.976  42.168  46.783  1.00  0.00    -0.051 Br
HETATM   27  C   UNL     1      22.607  44.936  47.037  1.00  0.00     0.019 A 
HETATM   28  C   UNL     1      23.032  46.078  47.717  1.00  0.00     0.011 A 
ENDBRANCH   9  22
BRANCH   7  29
HETATM   29  C   UNL     1      20.624  50.523  48.171  1.00  0.00     0.085 C 
BRANCH  29  30
HETATM   30  C   UNL     1      20.087  51.426  49.279  1.00  0.00     0.034 C 
BRANCH  30  31
HETATM   31  C   UNL     1      18.997  50.766  50.117  1.00  0.00     0.164 C 
BRANCH  31  32
HETATM   32  O   UNL     1      19.568  49.727  50.906  1.00  0.00    -0.401 OA
HETATM   33  H   UNL     1      19.114  48.900  50.675  1.00  0.00     0.209 HD
ENDBRANCH  31  32
ENDBRANCH  30  31
ENDBRANCH  29  30
ENDBRANCH   7  29
TORSDOF 7
ENDMDL
MODEL 5
REMARK VINA RESULT:      -7.6     18.504     21.970
REMARK  7 active torsions:
REMARK  status: ('A' for Active; 'I' for Inactive)
REMARK    1  A    between atoms: C_7  and  C_8 
REMARK    2  A    between atoms: C_8  and  C_9 
REMARK    3  A    between atoms: C_9  and  C_10 
REMARK    4  A    between atoms: C_10  and  O_11 
REMARK    5  A    between atoms: C_13  and  C_14 
REMARK    6  A    between atoms: C_21  and  C_22 
REMARK       I    between atoms: C_22  and  N_23 
REMARK    7  A    between atoms: N_23  and  C_24 
ROOT
HETATM    1  C   UNL     1      39.464  43.684  62.539  1.00  0.00     0.070 C 
HETATM    2  C   UNL     1      40.100  44.553  63.596  1.00  0.00     0.037 A 
HETATM    3  N   UNL     1      41.462  44.789  63.441  1.00  0.00    -0.192 N 
HETATM    4  C   UNL     1      42.199  45.487  64.324  1.00  0.00     0.726 A 
HETATM    5  N   UNL     1      41.586  46.047  65.409  1.00  0.00    -0.083 N 
HETATM    6  N   UNL     1      42.487  46.588  66.257  1.00  0.00    -0.140 NA
HETATM    7  C   UNL     1      43.618  46.426  65.553  1.00  0.00     0.166 A 
HETATM    8  N   UNL     1      43.482  45.736  64.372  1.00  0.00    -0.046 NA
HETATM    9  C   UNL     1      40.147  45.959  65.681  1.00  0.00     0.202 A 
HETATM   10  C   UNL     1      39.439  45.079  64.658  1.00  0.00     0.062 A 
HETATM   11  H   UNL     1      41.926  44.375  62.637  1.00  0.00     0.184 HD
ENDROOT
BRANCH  10  12
HETATM   12  C   UNL     1      37.967  44.892  64.794  1.00  0.00     0.256 C 
HETATM   13  N   UNL     1      37.616  43.855  65.632  1.00  0.00    -0.323 N 
HETATM   14  H   UNL     1      38.350  43.339  66.094  1.00  0.00     0.169 HD
HETATM   15  O   UNL     1      37.210  45.637  64.184  1.00  0.00    -0.267 OA
BRANCH  13  16
HETATM   16  C   UNL     1      36.308  43.403  65.918  1.00  0.00     0.035 A 
HETATM   17  C   UNL     1      35.441  44.033  66.813  1.00  0.00     0.029 A 
HETATM   18  C   UNL     1      34.151  43.534  67.022  1.00  0.00     0.002 A 
HETATM   19  C   UNL     1      33.720  42.395  66.346  1.00  0.00     0.000 A 
HETATM   20  C   UNL     1      34.577  41.756  65.456  1.00  0.00     0.002 A 
HETATM   21  C   UNL     1      35.862  42.261  65.238  1.00  0.00     0.029 A 
ENDBRANCH  13  16
ENDBRANCH  10  12
BRANCH   9  22
HETATM   22  C   UNL     1      39.566  47.364  65.820  1.00  0.00    -0.028 A 
HETATM   23  C   UNL     1      39.820  48.370  64.871  1.00  0.00     0.011 A 
HETATM   24  C   UNL     1      39.303  49.657  65.042  1.00  0.00     0.019 A 
HETATM   25  C   UNL     1      38.542  49.954  66.169  1.00  0.00     0.011 A 
HETATM   26 BR   UNL     1      37.854  51.699  66.407  1.00  0.00    -0.051 Br
HETATM   27  C   UNL     1      38.291  48.977  67.129  1.00  0.00     0.019 A 
HETATM   28  C   UNL     1      38.800  47.690  66.955  1.00  0.00     0.011 A 
ENDBRANCH   9  22
BRANCH   7  29
HETATM   29  C   UNL     1      44.922  46.965  66.011  1.00  0.00     0.085 C 
BRANCH  29  30
HETATM   30  C   UNL     1      45.767  47.534  64.873  1.00  0.00     0.034 C 
BRANCH  30  31
HETATM   31  C   UNL     1      46.885  46.596  64.430  1.00  0.00     0.164 C 
BRANCH  31  32
HETATM   32  O   UNL     1      46.441  45.814  63.326  1.00  0.00    -0.401 OA
HETATM   33  H   UNL     1      46.361  44.895  63.630  1.00  0.00     0.209 HD
ENDBRANCH  31  32
ENDBRANCH  30  31
ENDBRANCH  29  30
ENDBRANCH   7  29
TORSDOF 7
ENDMDL
MODEL 6
REMARK VINA RESULT:      -7.3      5.163      7.702
REMARK  7 active torsions:
REMARK  status: ('A' for Active; 'I' for Inactive)
REMARK    1  A    between atoms: C_7  and  C_8 
REMARK    2  A    between atoms: C_8  and  C_9 
REMARK    3  A    between atoms: C_9  and  C_10 
REMARK    4  A    between atoms: C_10  and  O_11 
REMARK    5  A    between atoms: C_13  and  C_14 
REMARK    6  A    between atoms: C_21  and  C_22 
REMARK       I    between atoms: C_22  and  N_23 
REMARK    7  A    between atoms: N_23  and  C_24 
ROOT
HETATM    1  C   UNL     1      24.022  50.162  48.063  1.00  0.00     0.070 C 
HETATM    2  C   UNL     1      22.575  49.976  48.449  1.00  0.00     0.037 A 
HETATM    3  N   UNL     1      21.795  51.127  48.432  1.00  0.00    -0.192 N 
HETATM    4  C   UNL     1      20.504  51.155  48.809  1.00  0.00     0.726 A 
HETATM    5  N   UNL     1      19.893  49.991  49.181  1.00  0.00    -0.083 N 
HETATM    6  N   UNL     1      18.651  50.219  49.658  1.00  0.00    -0.140 NA
HETATM    7  C   UNL     1      18.534  51.535  49.425  1.00  0.00     0.166 A 
HETATM    8  N   UNL     1      19.659  52.146  48.924  1.00  0.00    -0.046 NA
HETATM    9  C   UNL     1      20.549  48.678  49.182  1.00  0.00     0.202 A 
HETATM   10  C   UNL     1      22.024  48.791  48.816  1.00  0.00     0.062 A 
HETATM   11  H   UNL     1      22.242  51.998  48.157  1.00  0.00     0.184 HD
ENDROOT
BRANCH  10  12
HETATM   12  C   UNL     1      22.832  47.541  48.767  1.00  0.00     0.256 C 
HETATM   13  N   UNL     1      23.600  47.335  49.894  1.00  0.00    -0.323 N 
HETATM   14  H   UNL     1      23.539  48.004  50.648  1.00  0.00     0.169 HD
HETATM   15  O   UNL     1      22.759  46.818  47.781  1.00  0.00    -0.267 OA
BRANCH  13  16
HETATM   16  C   UNL     1      24.504  46.272  50.120  1.00  0.00     0.035 A 
HETATM   17  C   UNL     1      25.888  46.376  49.964  1.00  0.00     0.029 A 
HETATM   18  C   UNL     1      26.716  45.281  50.231  1.00  0.00     0.002 A 
HETATM   19  C   UNL     1      26.168  44.070  50.646  1.00  0.00     0.000 A 
HETATM   20  C   UNL     1      24.790  43.954  50.801  1.00  0.00     0.002 A 
HETATM   21  C   UNL     1      23.963  45.051  50.545  1.00  0.00     0.029 A 
ENDBRANCH  13  16
ENDBRANCH  10  12
BRANCH   9  22
HETATM   22  C   UNL     1      19.752  47.708  48.313  1.00  0.00    -0.028 A 
HETATM   23  C   UNL     1      19.267  46.487  48.815  1.00  0.00     0.011 A 
HETATM   24  C   UNL     1      18.570  45.604  47.986  1.00  0.00     0.019 A 
HETATM   25  C   UNL     1      18.363  45.925  46.647  1.00  0.00     0.011 A 
HETATM   26 BR   UNL     1      17.431  44.723  45.524  1.00  0.00    -0.051 Br
HETATM   27  C   UNL     1      18.847  47.122  46.127  1.00  0.00     0.019 A 
HETATM   28  C   UNL     1      19.537  48.008  46.955  1.00  0.00     0.011 A 
ENDBRANCH   9  22
BRANCH   7  29
HETATM   29  C   UNL     1      17.274  52.277  49.678  1.00  0.00     0.085 C 
BRANCH  29  30
HETATM   30  C   UNL     1      16.027  51.494  49.274  1.00  0.00     0.034 C 
BRANCH  30  31
HETATM   31  C   UNL     1      15.891  51.318  47.765  1.00  0.00     0.164 C 
BRANCH  31  32
HETATM   32  O   UNL     1      16.374  50.031  47.391  1.00  0.00    -0.401 OA
HETATM   33  H   UNL     1      16.570  50.057  46.440  1.00  0.00     0.209 HD
ENDBRANCH  31  32
ENDBRANCH  30  31
ENDBRANCH  29  30
ENDBRANCH   7  29
TORSDOF 7
ENDMDL
MODEL 7
REMARK VINA RESULT:      -7.2     18.597     20.410
REMARK  7 active torsions:
REMARK  status: ('A' for Active; 'I' for Inactive)
REMARK    1  A    between atoms: C_7  and  C_8 
REMARK    2  A    between atoms: C_8  and  C_9 
REMARK    3  A    between atoms: C_9  and  C_10 
REMARK    4  A    between atoms: C_10  and  O_11 
REMARK    5  A    between atoms: C_13  and  C_14 
REMARK    6  A    between atoms: C_21  and  C_22 
REMARK       I    between atoms: C_22  and  N_23 
REMARK    7  A    between atoms: N_23  and  C_24 
ROOT
HETATM    1  C   UNL     1      35.253  43.512  65.776  1.00  0.00     0.070 C 
HETATM    2  C   UNL     1      36.218  44.623  65.442  1.00  0.00     0.037 A 
HETATM    3  N   UNL     1      35.971  45.842  66.064  1.00  0.00    -0.192 N 
HETATM    4  C   UNL     1      36.692  46.954  65.831  1.00  0.00     0.726 A 
HETATM    5  N   UNL     1      37.761  46.889  64.982  1.00  0.00    -0.083 N 
HETATM    6  N   UNL     1      38.283  48.114  64.756  1.00  0.00    -0.140 NA
HETATM    7  C   UNL     1      37.552  48.854  65.603  1.00  0.00     0.166 A 
HETATM    8  N   UNL     1      36.552  48.180  66.263  1.00  0.00    -0.046 NA
HETATM    9  C   UNL     1      38.205  45.665  64.305  1.00  0.00     0.202 A 
HETATM   10  C   UNL     1      37.263  44.501  64.585  1.00  0.00     0.062 A 
HETATM   11  H   UNL     1      35.177  45.899  66.696  1.00  0.00     0.184 HD
ENDROOT
BRANCH  10  12
HETATM   12  C   UNL     1      37.579  43.181  63.970  1.00  0.00     0.256 C 
HETATM   13  N   UNL     1      38.464  42.424  64.709  1.00  0.00    -0.323 N 
HETATM   14  H   UNL     1      38.796  42.793  65.589  1.00  0.00     0.169 HD
HETATM   15  O   UNL     1      37.055  42.875  62.907  1.00  0.00    -0.267 OA
BRANCH  13  16
HETATM   16  C   UNL     1      38.991  41.159  64.363  1.00  0.00     0.035 A 
HETATM   17  C   UNL     1      39.319  40.168  65.291  1.00  0.00     0.029 A 
HETATM   18  C   UNL     1      39.814  38.932  64.864  1.00  0.00     0.002 A 
HETATM   19  C   UNL     1      39.995  38.679  63.506  1.00  0.00     0.000 A 
HETATM   20  C   UNL     1      39.675  39.660  62.573  1.00  0.00     0.002 A 
HETATM   21  C   UNL     1      39.169  40.891  62.999  1.00  0.00     0.029 A 
ENDBRANCH  13  16
ENDBRANCH  10  12
BRANCH   9  22
HETATM   22  C   UNL     1      39.668  45.395  64.645  1.00  0.00    -0.028 A 
HETATM   23  C   UNL     1      40.633  45.170  63.648  1.00  0.00     0.011 A 
HETATM   24  C   UNL     1      41.959  44.891  63.991  1.00  0.00     0.019 A 
HETATM   25  C   UNL     1      42.329  44.820  65.332  1.00  0.00     0.011 A 
HETATM   26 BR   UNL     1      44.120  44.429  65.795  1.00  0.00    -0.051 Br
HETATM   27  C   UNL     1      41.385  45.026  66.335  1.00  0.00     0.019 A 
HETATM   28  C   UNL     1      40.063  45.311  65.993  1.00  0.00     0.011 A 
ENDBRANCH   9  22
BRANCH   7  29
HETATM   29  C   UNL     1      37.812  50.299  65.821  1.00  0.00     0.085 C 
BRANCH  29  30
HETATM   30  C   UNL     1      37.616  50.730  67.273  1.00  0.00     0.034 C 
BRANCH  30  31
HETATM   31  C   UNL     1      38.483  51.921  67.668  1.00  0.00     0.164 C 
BRANCH  31  32
HETATM   32  O   UNL     1      39.254  52.340  66.546  1.00  0.00    -0.401 OA
HETATM   33  H   UNL     1      40.123  51.912  66.611  1.00  0.00     0.209 HD
ENDBRANCH  31  32
ENDBRANCH  30  31
ENDBRANCH  29  30
ENDBRANCH   7  29
TORSDOF 7
ENDMDL
MODEL 8
REMARK VINA RESULT:      -7.2      5.724     10.406
REMARK  7 active torsions:
REMARK  status: ('A' for Active; 'I' for Inactive)
REMARK    1  A    between atoms: C_7  and  C_8 
REMARK    2  A    between atoms: C_8  and  C_9 
REMARK    3  A    between atoms: C_9  and  C_10 
REMARK    4  A    between atoms: C_10  and  O_11 
REMARK    5  A    between atoms: C_13  and  C_14 
REMARK    6  A    between atoms: C_21  and  C_22 
REMARK       I    between atoms: C_22  and  N_23 
REMARK    7  A    between atoms: N_23  and  C_24 
ROOT
HETATM    1  C   UNL     1      18.431  49.600  50.363  1.00  0.00     0.070 C 
HETATM    2  C   UNL     1      19.644  49.284  49.523  1.00  0.00     0.037 A 
HETATM    3  N   UNL     1      20.858  49.737  50.026  1.00  0.00    -0.192 N 
HETATM    4  C   UNL     1      22.029  49.599  49.376  1.00  0.00     0.726 A 
HETATM    5  N   UNL     1      22.054  48.935  48.183  1.00  0.00    -0.083 N 
HETATM    6  N   UNL     1      23.272  49.009  47.606  1.00  0.00    -0.140 NA
HETATM    7  C   UNL     1      23.966  49.630  48.572  1.00  0.00     0.166 A 
HETATM    8  N   UNL     1      23.231  50.026  49.664  1.00  0.00    -0.046 NA
HETATM    9  C   UNL     1      20.877  48.328  47.550  1.00  0.00     0.202 A 
HETATM   10  C   UNL     1      19.607  48.622  48.339  1.00  0.00     0.062 A 
HETATM   11  H   UNL     1      20.848  50.233  50.914  1.00  0.00     0.184 HD
ENDROOT
BRANCH  10  12
HETATM   12  C   UNL     1      18.321  48.069  47.828  1.00  0.00     0.256 C 
HETATM   13  N   UNL     1      17.789  48.787  46.777  1.00  0.00    -0.323 N 
HETATM   14  H   UNL     1      18.302  49.584  46.429  1.00  0.00     0.169 HD
HETATM   15  O   UNL     1      17.852  47.065  48.348  1.00  0.00    -0.267 OA
BRANCH  13  16
HETATM   16  C   UNL     1      16.563  48.542  46.119  1.00  0.00     0.035 A 
HETATM   17  C   UNL     1      16.437  47.778  44.957  1.00  0.00     0.029 A 
HETATM   18  C   UNL     1      15.181  47.563  44.381  1.00  0.00     0.002 A 
HETATM   19  C   UNL     1      14.041  48.119  44.955  1.00  0.00     0.000 A 
HETATM   20  C   UNL     1      14.154  48.886  46.110  1.00  0.00     0.002 A 
HETATM   21  C   UNL     1      15.408  49.091  46.693  1.00  0.00     0.029 A 
ENDBRANCH  13  16
ENDBRANCH  10  12
BRANCH   9  22
HETATM   22  C   UNL     1      21.140  46.846  47.298  1.00  0.00    -0.028 A 
HETATM   23  C   UNL     1      21.035  46.280  46.015  1.00  0.00     0.011 A 
HETATM   24  C   UNL     1      21.248  44.913  45.820  1.00  0.00     0.019 A 
HETATM   25  C   UNL     1      21.552  44.096  46.906  1.00  0.00     0.011 A 
HETATM   26 BR   UNL     1      21.827  42.244  46.644  1.00  0.00    -0.051 Br
HETATM   27  C   UNL     1      21.646  44.633  48.188  1.00  0.00     0.019 A 
HETATM   28  C   UNL     1      21.441  46.000  48.382  1.00  0.00     0.011 A 
ENDBRANCH   9  22
BRANCH   7  29
HETATM   29  C   UNL     1      25.428  49.862  48.474  1.00  0.00     0.085 C 
BRANCH  29  30
HETATM   30  C   UNL     1      26.247  48.887  49.318  1.00  0.00     0.034 C 
BRANCH  30  31
HETATM   31  C   UNL     1      27.690  48.747  48.843  1.00  0.00     0.164 C 
BRANCH  31  32
HETATM   32  O   UNL     1      28.365  49.991  49.002  1.00  0.00    -0.401 OA
HETATM   33  H   UNL     1      28.556  50.336  48.114  1.00  0.00     0.209 HD
ENDBRANCH  31  32
ENDBRANCH  30  31
ENDBRANCH  29  30
ENDBRANCH   7  29
TORSDOF 7
ENDMDL
MODEL 9
REMARK VINA RESULT:      -6.9      7.990     13.364
REMARK  7 active torsions:
REMARK  status: ('A' for Active; 'I' for Inactive)
REMARK    1  A    between atoms: C_7  and  C_8 
REMARK    2  A    between atoms: C_8  and  C_9 
REMARK    3  A    between atoms: C_9  and  C_10 
REMARK    4  A    between atoms: C_10  and  O_11 
REMARK    5  A    between atoms: C_13  and  C_14 
REMARK    6  A    between atoms: C_21  and  C_22 
REMARK       I    between atoms: C_22  and  N_23 
REMARK    7  A    between atoms: N_23  and  C_24 
ROOT
HETATM    1  C   UNL     1      16.116  52.927  49.749  1.00  0.00     0.070 C 
HETATM    2  C   UNL     1      17.292  52.228  49.112  1.00  0.00     0.037 A 
HETATM    3  N   UNL     1      18.383  52.007  49.945  1.00  0.00    -0.192 N 
HETATM    4  C   UNL     1      19.537  51.455  49.526  1.00  0.00     0.726 A 
HETATM    5  N   UNL     1      19.642  51.034  48.230  1.00  0.00    -0.083 N 
HETATM    6  N   UNL     1      20.901  50.637  47.944  1.00  0.00    -0.140 NA
HETATM    7  C   UNL     1      21.471  50.729  49.156  1.00  0.00     0.166 A 
HETATM    8  N   UNL     1      20.669  51.248  50.145  1.00  0.00    -0.046 NA
HETATM    9  C   UNL     1      18.561  51.123  47.242  1.00  0.00     0.202 A 
HETATM   10  C   UNL     1      17.341  51.836  47.813  1.00  0.00     0.062 A 
HETATM   11  H   UNL     1      18.313  52.317  50.910  1.00  0.00     0.184 HD
ENDROOT
BRANCH  10  12
HETATM   12  C   UNL     1      16.151  52.003  46.933  1.00  0.00     0.256 C 
HETATM   13  N   UNL     1      16.195  53.139  46.153  1.00  0.00    -0.323 N 
HETATM   14  H   UNL     1      17.009  53.734  46.213  1.00  0.00     0.169 HD
HETATM   15  O   UNL     1      15.264  51.160  46.961  1.00  0.00    -0.267 OA
BRANCH  13  16
HETATM   16  C   UNL     1      15.197  53.593  45.262  1.00  0.00     0.035 A 
HETATM   17  C   UNL     1      15.194  53.331  43.890  1.00  0.00     0.029 A 
HETATM   18  C   UNL     1      14.154  53.798  43.080  1.00  0.00     0.002 A 
HETATM   19  C   UNL     1      13.113  54.540  43.632  1.00  0.00     0.000 A 
HETATM   20  C   UNL     1      13.107  54.812  44.997  1.00  0.00     0.002 A 
HETATM   21  C   UNL     1      14.141  54.335  45.808  1.00  0.00     0.029 A 
ENDBRANCH  13  16
ENDBRANCH  10  12
BRANCH   9  22
HETATM   22  C   UNL     1      18.276  49.736  46.672  1.00  0.00    -0.028 A 
HETATM   23  C   UNL     1      18.377  49.463  45.296  1.00  0.00     0.011 A 
HETATM   24  C   UNL     1      18.076  48.192  44.798  1.00  0.00     0.019 A 
HETATM   25  C   UNL     1      17.659  47.188  45.667  1.00  0.00     0.011 A 
HETATM   26 BR   UNL     1      17.241  45.472  44.991  1.00  0.00    -0.051 Br
HETATM   27  C   UNL     1      17.539  47.440  47.031  1.00  0.00     0.019 A 
HETATM   28  C   UNL     1      17.846  48.707  47.530  1.00  0.00     0.011 A 
ENDBRANCH   9  22
BRANCH   7  29
HETATM   29  C   UNL     1      22.865  50.291  49.412  1.00  0.00     0.085 C 
BRANCH  29  30
HETATM   30  C   UNL     1      23.789  50.507  48.216  1.00  0.00     0.034 C 
BRANCH  30  31
HETATM   31  C   UNL     1      25.120  49.773  48.346  1.00  0.00     0.164 C 
BRANCH  31  32
HETATM   32  O   UNL     1      25.988  50.172  47.290  1.00  0.00    -0.401 OA
HETATM   33  H   UNL     1      25.582  50.937  46.849  1.00  0.00     0.209 HD
ENDBRANCH  31  32
ENDBRANCH  30  31
ENDBRANCH  29  30
ENDBRANCH   7  29
TORSDOF 7
ENDMDL
MODEL 10
REMARK VINA RESULT:      -6.9      3.055      8.403
REMARK  7 active torsions:
REMARK  status: ('A' for Active; 'I' for Inactive)
REMARK    1  A    between atoms: C_7  and  C_8 
REMARK    2  A    between atoms: C_8  and  C_9 
REMARK    3  A    between atoms: C_9  and  C_10 
REMARK    4  A    between atoms: C_10  and  O_11 
REMARK    5  A    between atoms: C_13  and  C_14 
REMARK    6  A    between atoms: C_21  and  C_22 
REMARK       I    between atoms: C_22  and  N_23 
REMARK    7  A    between atoms: N_23  and  C_24 
ROOT
HETATM    1  C   UNL     1      22.990  42.149  47.825  1.00  0.00     0.070 C 
HETATM    2  C   UNL     1      23.670  42.899  48.944  1.00  0.00     0.037 A 
HETATM    3  N   UNL     1      24.658  42.198  49.626  1.00  0.00    -0.192 N 
HETATM    4  C   UNL     1      25.319  42.690  50.689  1.00  0.00     0.726 A 
HETATM    5  N   UNL     1      25.057  43.966  51.104  1.00  0.00    -0.083 N 
HETATM    6  N   UNL     1      25.700  44.248  52.258  1.00  0.00    -0.140 NA
HETATM    7  C   UNL     1      26.431  43.134  52.412  1.00  0.00     0.166 A 
HETATM    8  N   UNL     1      26.207  42.148  51.481  1.00  0.00    -0.046 NA
HETATM    9  C   UNL     1      24.101  44.867  50.450  1.00  0.00     0.202 A 
HETATM   10  C   UNL     1      23.363  44.168  49.315  1.00  0.00     0.062 A 
HETATM   11  H   UNL     1      24.858  41.248  49.324  1.00  0.00     0.184 HD
ENDROOT
BRANCH  10  12
HETATM   12  C   UNL     1      22.357  44.953  48.546  1.00  0.00     0.256 C 
HETATM   13  N   UNL     1      21.161  45.124  49.211  1.00  0.00    -0.323 N 
HETATM   14  H   UNL     1      21.069  44.744  50.142  1.00  0.00     0.169 HD
HETATM   15  O   UNL     1      22.650  45.373  47.433  1.00  0.00    -0.267 OA
BRANCH  13  16
HETATM   16  C   UNL     1      20.006  45.774  48.722  1.00  0.00     0.035 A 
HETATM   17  C   UNL     1      19.718  47.123  48.936  1.00  0.00     0.029 A 
HETATM   18  C   UNL     1      18.562  47.696  48.396  1.00  0.00     0.002 A 
HETATM   19  C   UNL     1      17.678  46.924  47.647  1.00  0.00     0.000 A 
HETATM   20  C   UNL     1      17.952  45.576  47.431  1.00  0.00     0.002 A 
HETATM   21  C   UNL     1      19.113  45.006  47.961  1.00  0.00     0.029 A 
ENDBRANCH  13  16
ENDBRANCH  10  12
BRANCH   9  22
HETATM   22  C   UNL     1      24.810  46.158  50.047  1.00  0.00    -0.028 A 
HETATM   23  C   UNL     1      24.111  47.363  49.863  1.00  0.00     0.011 A 
HETATM   24  C   UNL     1      24.782  48.521  49.460  1.00  0.00     0.019 A 
HETATM   25  C   UNL     1      26.153  48.481  49.224  1.00  0.00     0.011 A 
HETATM   26 BR   UNL     1      27.058  50.045  48.666  1.00  0.00    -0.051 Br
HETATM   27  C   UNL     1      26.863  47.294  49.386  1.00  0.00     0.019 A 
HETATM   28  C   UNL     1      26.195  46.139  49.795  1.00  0.00     0.011 A 
ENDBRANCH   9  22
BRANCH   7  29
HETATM   29  C   UNL     1      27.422  42.982  53.506  1.00  0.00     0.085 C 
BRANCH  29  30
HETATM   30  C   UNL     1      28.797  42.535  53.010  1.00  0.00     0.034 C 
BRANCH  30  31
HETATM   31  C   UNL     1      28.940  41.019  52.926  1.00  0.00     0.164 C 
BRANCH  31  32
HETATM   32  O   UNL     1      28.997  40.623  51.559  1.00  0.00    -0.401 OA
HETATM   33  H   UNL     1      28.903  41.423  51.017  1.00  0.00     0.209 HD
ENDBRANCH  31  32
ENDBRANCH  30  31
ENDBRANCH  29  30
ENDBRANCH   7  29
TORSDOF 7
ENDMDL
