MODEL 1
REMARK VINA RESULT:      -9.2      0.000      0.000
REMARK  7 active torsions:
REMARK  status: ('A' for Active; 'I' for Inactive)
REMARK    1  A    between atoms: C_2  and  O_3 
REMARK    2  A    between atoms: O_3  and  C_4 
REMARK    3  A    between atoms: C_5  and  O_6 
REMARK    4  A    between atoms: C_10  and  C_11 
REMARK    5  A    between atoms: C_12  and  C_13 
REMARK       I    between atoms: C_13  and  N_14 
REMARK    6  A    between atoms: N_14  and  N_15 
REMARK       I    between atoms: N_15  and  C_16 
REMARK    7  A    between atoms: C_16  and  C_17 
ROOT
HETATM    1  C   UNL     1      24.432  46.410  50.493  1.00  0.00     0.259 C 
HETATM    2  N   UNL     1      23.915  47.676  50.365  1.00  0.00    -0.264 N 
HETATM    3  O   UNL     1      23.902  45.416  50.004  1.00  0.00    -0.267 OA
HETATM    4  H   UNL     1      24.376  48.530  50.674  1.00  0.00     0.190 HD
ENDROOT
BRANCH   2   5
HETATM    5  N   UNL     1      22.766  47.834  49.578  1.00  0.00    -0.263 N 
HETATM    6  C   UNL     1      22.299  49.110  49.323  1.00  0.00     0.272 C 
HETATM    7  O   UNL     1      22.790  50.094  49.877  1.00  0.00    -0.266 OA
HETATM    8  H   UNL     1      22.503  47.033  49.011  1.00  0.00     0.190 HD
BRANCH   6   9
HETATM    9  C   UNL     1      21.206  49.190  48.353  1.00  0.00     0.061 A 
HETATM   10  C   UNL     1      20.303  50.293  48.160  1.00  0.00     0.008 A 
HETATM   11  C   UNL     1      19.417  49.952  47.130  1.00  0.00     0.045 A 
HETATM   12  C   UNL     1      20.164  51.559  48.772  1.00  0.00     0.015 A 
HETATM   13  C   UNL     1      18.410  50.831  46.694  1.00  0.00     0.030 A 
HETATM   14  N   UNL     1      19.759  48.686  46.714  1.00  0.00    -0.359 N 
HETATM   15  C   UNL     1      18.298  52.075  47.321  1.00  0.00     0.002 A 
HETATM   16  C   UNL     1      19.162  52.437  48.348  1.00  0.00     0.001 A 
HETATM   17  C   UNL     1      19.117  47.918  45.670  1.00  0.00     0.156 C 
HETATM   18  C   UNL     1      20.827  48.220  47.439  1.00  0.00     0.108 A 
ENDBRANCH   6   9
ENDBRANCH   2   5
BRANCH   1  19
HETATM   19  C   UNL     1      25.693  46.359  51.274  1.00  0.00     0.076 C 
HETATM   20  C   UNL     1      25.635  46.079  52.585  1.00  0.00     0.017 C 
BRANCH  20  21
HETATM   21  C   UNL     1      26.791  46.029  53.492  1.00  0.00    -0.033 A 
HETATM   22  C   UNL     1      27.174  47.209  54.139  1.00  0.00     0.014 A 
HETATM   23  C   UNL     1      28.239  47.218  55.042  1.00  0.00     0.040 A 
HETATM   24  C   UNL     1      28.935  46.041  55.324  1.00  0.00     0.101 A 
HETATM   25  C   UNL     1      28.557  44.843  54.684  1.00  0.00     0.102 A 
HETATM   26  C   UNL     1      27.484  44.845  53.781  1.00  0.00     0.051 A 
BRANCH  24  27
HETATM   27  O   UNL     1      29.992  45.956  56.196  1.00  0.00    -0.353 OA
HETATM   28  C   UNL     1      29.698  45.970  57.585  1.00  0.00     0.210 C 
ENDBRANCH  24  27
BRANCH  25  29
HETATM   29  O   UNL     1      29.289  43.732  55.020  1.00  0.00    -0.349 OA
BRANCH  29  30
HETATM   30  C   UNL     1      29.204  42.589  54.174  1.00  0.00     0.171 C 
HETATM   31  C   UNL     1      30.248  42.739  53.082  1.00  0.00     0.034 C 
ENDBRANCH  29  30
ENDBRANCH  25  29
ENDBRANCH  20  21
ENDBRANCH   1  19
TORSDOF 7
ENDMDL
MODEL 2
REMARK VINA RESULT:      -9.2      1.389      2.564
REMARK  7 active torsions:
REMARK  status: ('A' for Active; 'I' for Inactive)
REMARK    1  A    between atoms: C_2  and  O_3 
REMARK    2  A    between atoms: O_3  and  C_4 
REMARK    3  A    between atoms: C_5  and  O_6 
REMARK    4  A    between atoms: C_10  and  C_11 
REMARK    5  A    between atoms: C_12  and  C_13 
REMARK       I    between atoms: C_13  and  N_14 
REMARK    6  A    between atoms: N_14  and  N_15 
REMARK       I    between atoms: N_15  and  C_16 
REMARK    7  A    between atoms: C_16  and  C_17 
ROOT
HETATM    1  C   UNL     1      25.079  45.819  51.691  1.00  0.00     0.259 C 
HETATM    2  N   UNL     1      24.919  47.007  51.020  1.00  0.00    -0.264 N 
HETATM    3  O   UNL     1      24.215  44.947  51.727  1.00  0.00    -0.267 OA
HETATM    4  H   UNL     1      25.646  47.707  50.890  1.00  0.00     0.190 HD
ENDROOT
BRANCH   2   5
HETATM    5  N   UNL     1      23.737  47.187  50.289  1.00  0.00    -0.263 N 
HETATM    6  C   UNL     1      23.614  48.302  49.479  1.00  0.00     0.272 C 
HETATM    7  O   UNL     1      24.459  49.197  49.490  1.00  0.00    -0.266 OA
HETATM    8  H   UNL     1      23.156  46.362  50.173  1.00  0.00     0.190 HD
BRANCH   6   9
HETATM    9  C   UNL     1      22.428  48.320  48.622  1.00  0.00     0.061 A 
HETATM   10  C   UNL     1      21.514  49.414  48.436  1.00  0.00     0.008 A 
HETATM   11  C   UNL     1      20.526  49.006  47.530  1.00  0.00     0.045 A 
HETATM   12  C   UNL     1      21.442  50.725  48.959  1.00  0.00     0.015 A 
HETATM   13  C   UNL     1      19.483  49.860  47.132  1.00  0.00     0.030 A 
HETATM   14  N   UNL     1      20.820  47.708  47.181  1.00  0.00    -0.359 N 
HETATM   15  C   UNL     1      19.440  51.149  47.669  1.00  0.00     0.002 A 
HETATM   16  C   UNL     1      20.405  51.579  48.571  1.00  0.00     0.001 A 
HETATM   17  C   UNL     1      20.073  46.869  46.269  1.00  0.00     0.156 C 
HETATM   18  C   UNL     1      21.955  47.286  47.829  1.00  0.00     0.108 A 
ENDBRANCH   6   9
ENDBRANCH   2   5
BRANCH   1  19
HETATM   19  C   UNL     1      26.395  45.689  52.364  1.00  0.00     0.076 C 
HETATM   20  C   UNL     1      26.606  44.651  53.187  1.00  0.00     0.017 C 
BRANCH  20  21
HETATM   21  C   UNL     1      27.840  44.410  53.949  1.00  0.00    -0.033 A 
HETATM   22  C   UNL     1      28.559  43.239  53.687  1.00  0.00     0.014 A 
HETATM   23  C   UNL     1      29.759  42.971  54.349  1.00  0.00     0.040 A 
HETATM   24  C   UNL     1      30.268  43.879  55.280  1.00  0.00     0.101 A 
HETATM   25  C   UNL     1      29.557  45.066  55.551  1.00  0.00     0.102 A 
HETATM   26  C   UNL     1      28.354  45.325  54.877  1.00  0.00     0.051 A 
BRANCH  24  27
HETATM   27  O   UNL     1      31.437  43.700  55.977  1.00  0.00    -0.353 OA
HETATM   28  C   UNL     1      31.420  42.784  57.062  1.00  0.00     0.210 C 
ENDBRANCH  24  27
BRANCH  25  29
HETATM   29  O   UNL     1      30.128  45.905  56.475  1.00  0.00    -0.349 OA
BRANCH  29  30
HETATM   30  C   UNL     1      29.426  46.145  57.691  1.00  0.00     0.171 C 
HETATM   31  C   UNL     1      30.201  45.481  58.815  1.00  0.00     0.034 C 
ENDBRANCH  29  30
ENDBRANCH  25  29
ENDBRANCH  20  21
ENDBRANCH   1  19
TORSDOF 7
ENDMDL
MODEL 3
REMARK VINA RESULT:      -9.0      2.625     10.990
REMARK  7 active torsions:
REMARK  status: ('A' for Active; 'I' for Inactive)
REMARK    1  A    between atoms: C_2  and  O_3 
REMARK    2  A    between atoms: O_3  and  C_4 
REMARK    3  A    between atoms: C_5  and  O_6 
REMARK    4  A    between atoms: C_10  and  C_11 
REMARK    5  A    between atoms: C_12  and  C_13 
REMARK       I    between atoms: C_13  and  N_14 
REMARK    6  A    between atoms: N_14  and  N_15 
REMARK       I    between atoms: N_15  and  C_16 
REMARK    7  A    between atoms: C_16  and  C_17 
ROOT
HETATM    1  C   UNL     1      25.944  47.597  49.815  1.00  0.00     0.259 C 
HETATM    2  N   UNL     1      25.618  46.955  50.985  1.00  0.00    -0.264 N 
HETATM    3  O   UNL     1      27.018  47.441  49.240  1.00  0.00    -0.267 OA
HETATM    4  H   UNL     1      24.706  46.987  51.435  1.00  0.00     0.190 HD
ENDROOT
BRANCH   2   5
HETATM    5  N   UNL     1      26.536  46.027  51.495  1.00  0.00    -0.263 N 
HETATM    6  C   UNL     1      26.444  45.656  52.824  1.00  0.00     0.272 C 
HETATM    7  O   UNL     1      25.664  46.217  53.593  1.00  0.00    -0.266 OA
HETATM    8  H   UNL     1      27.035  45.471  50.807  1.00  0.00     0.190 HD
BRANCH   6   9
HETATM    9  C   UNL     1      27.324  44.558  53.226  1.00  0.00     0.061 A 
HETATM   10  C   UNL     1      28.391  44.615  54.189  1.00  0.00     0.008 A 
HETATM   11  C   UNL     1      28.971  43.342  54.270  1.00  0.00     0.045 A 
HETATM   12  C   UNL     1      28.915  45.643  55.005  1.00  0.00     0.015 A 
HETATM   13  C   UNL     1      30.043  43.067  55.136  1.00  0.00     0.030 A 
HETATM   14  N   UNL     1      28.290  42.538  53.385  1.00  0.00    -0.359 N 
HETATM   15  C   UNL     1      30.539  44.106  55.929  1.00  0.00     0.002 A 
HETATM   16  C   UNL     1      29.984  45.378  55.866  1.00  0.00     0.001 A 
HETATM   17  C   UNL     1      28.540  41.138  53.122  1.00  0.00     0.156 C 
HETATM   18  C   UNL     1      27.304  43.255  52.753  1.00  0.00     0.108 A 
ENDBRANCH   6   9
ENDBRANCH   2   5
BRANCH   1  19
HETATM   19  C   UNL     1      24.874  48.494  49.312  1.00  0.00     0.076 C 
HETATM   20  C   UNL     1      23.596  48.214  49.611  1.00  0.00     0.017 C 
BRANCH  20  21
HETATM   21  C   UNL     1      22.431  48.986  49.156  1.00  0.00    -0.033 A 
HETATM   22  C   UNL     1      22.596  50.354  48.921  1.00  0.00     0.014 A 
HETATM   23  C   UNL     1      21.537  51.134  48.451  1.00  0.00     0.040 A 
HETATM   24  C   UNL     1      20.293  50.555  48.197  1.00  0.00     0.101 A 
HETATM   25  C   UNL     1      20.113  49.175  48.425  1.00  0.00     0.102 A 
HETATM   26  C   UNL     1      21.184  48.401  48.894  1.00  0.00     0.051 A 
BRANCH  24  27
HETATM   27  O   UNL     1      19.198  51.241  47.734  1.00  0.00    -0.353 OA
HETATM   28  C   UNL     1      18.872  52.465  48.377  1.00  0.00     0.210 C 
ENDBRANCH  24  27
BRANCH  25  29
HETATM   29  O   UNL     1      18.861  48.684  48.146  1.00  0.00    -0.349 OA
BRANCH  29  30
HETATM   30  C   UNL     1      18.507  47.408  48.669  1.00  0.00     0.171 C 
HETATM   31  C   UNL     1      16.999  47.377  48.844  1.00  0.00     0.034 C 
ENDBRANCH  29  30
ENDBRANCH  25  29
ENDBRANCH  20  21
ENDBRANCH   1  19
TORSDOF 7
ENDMDL
MODEL 4
REMARK VINA RESULT:      -8.9      1.408      2.579
REMARK  7 active torsions:
REMARK  status: ('A' for Active; 'I' for Inactive)
REMARK    1  A    between atoms: C_2  and  O_3 
REMARK    2  A    between atoms: O_3  and  C_4 
REMARK    3  A    between atoms: C_5  and  O_6 
REMARK    4  A    between atoms: C_10  and  C_11 
REMARK    5  A    between atoms: C_12  and  C_13 
REMARK       I    between atoms: C_13  and  N_14 
REMARK    6  A    between atoms: N_14  and  N_15 
REMARK       I    between atoms: N_15  and  C_16 
REMARK    7  A    between atoms: C_16  and  C_17 
ROOT
HETATM    1  C   UNL     1      24.170  47.941  49.850  1.00  0.00     0.259 C 
HETATM    2  N   UNL     1      23.017  47.222  49.648  1.00  0.00    -0.264 N 
HETATM    3  O   UNL     1      24.259  49.145  49.629  1.00  0.00    -0.267 OA
HETATM    4  H   UNL     1      22.881  46.248  49.910  1.00  0.00     0.190 HD
ENDROOT
BRANCH   2   5
HETATM    5  N   UNL     1      21.877  47.925  49.237  1.00  0.00    -0.263 N 
HETATM    6  C   UNL     1      21.494  47.863  47.909  1.00  0.00     0.272 C 
HETATM    7  O   UNL     1      22.203  47.316  47.064  1.00  0.00    -0.266 OA
HETATM    8  H   UNL     1      21.239  48.208  49.975  1.00  0.00     0.190 HD
BRANCH   6   9
HETATM    9  C   UNL     1      20.201  48.477  47.605  1.00  0.00     0.061 A 
HETATM   10  C   UNL     1      19.816  49.841  47.845  1.00  0.00     0.008 A 
HETATM   11  C   UNL     1      18.498  50.005  47.401  1.00  0.00     0.045 A 
HETATM   12  C   UNL     1      20.479  50.959  48.402  1.00  0.00     0.015 A 
HETATM   13  C   UNL     1      17.831  51.239  47.490  1.00  0.00     0.030 A 
HETATM   14  N   UNL     1      18.089  48.785  46.914  1.00  0.00    -0.359 N 
HETATM   15  C   UNL     1      18.514  52.324  48.047  1.00  0.00     0.002 A 
HETATM   16  C   UNL     1      19.821  52.188  48.498  1.00  0.00     0.001 A 
HETATM   17  C   UNL     1      16.793  48.470  46.352  1.00  0.00     0.156 C 
HETATM   18  C   UNL     1      19.098  47.863  47.033  1.00  0.00     0.108 A 
ENDBRANCH   6   9
ENDBRANCH   2   5
BRANCH   1  19
HETATM   19  C   UNL     1      25.297  47.123  50.365  1.00  0.00     0.076 C 
HETATM   20  C   UNL     1      25.163  46.501  51.546  1.00  0.00     0.017 C 
BRANCH  20  21
HETATM   21  C   UNL     1      26.200  45.689  52.199  1.00  0.00    -0.033 A 
HETATM   22  C   UNL     1      26.908  44.770  51.418  1.00  0.00     0.014 A 
HETATM   23  C   UNL     1      27.932  43.997  51.970  1.00  0.00     0.040 A 
HETATM   24  C   UNL     1      28.273  44.138  53.317  1.00  0.00     0.101 A 
HETATM   25  C   UNL     1      27.571  45.063  54.116  1.00  0.00     0.102 A 
HETATM   26  C   UNL     1      26.547  45.836  53.549  1.00  0.00     0.051 A 
BRANCH  24  27
HETATM   27  O   UNL     1      29.263  43.423  53.944  1.00  0.00    -0.353 OA
HETATM   28  C   UNL     1      30.154  42.680  53.126  1.00  0.00     0.210 C 
ENDBRANCH  24  27
BRANCH  25  29
HETATM   29  O   UNL     1      27.972  45.143  55.427  1.00  0.00    -0.349 OA
BRANCH  29  30
HETATM   30  C   UNL     1      28.716  46.286  55.835  1.00  0.00     0.171 C 
HETATM   31  C   UNL     1      29.985  45.800  56.511  1.00  0.00     0.034 C 
ENDBRANCH  29  30
ENDBRANCH  25  29
ENDBRANCH  20  21
ENDBRANCH   1  19
TORSDOF 7
ENDMDL
MODEL 5
REMARK VINA RESULT:      -8.9      2.488     11.364
REMARK  7 active torsions:
REMARK  status: ('A' for Active; 'I' for Inactive)
REMARK    1  A    between atoms: C_2  and  O_3 
REMARK    2  A    between atoms: O_3  and  C_4 
REMARK    3  A    between atoms: C_5  and  O_6 
REMARK    4  A    between atoms: C_10  and  C_11 
REMARK    5  A    between atoms: C_12  and  C_13 
REMARK       I    between atoms: C_13  and  N_14 
REMARK    6  A    between atoms: N_14  and  N_15 
REMARK       I    between atoms: N_15  and  C_16 
REMARK    7  A    between atoms: C_16  and  C_17 
ROOT
HETATM    1  C   UNL     1      25.712  46.375  50.612  1.00  0.00     0.259 C 
HETATM    2  N   UNL     1      25.599  46.827  51.904  1.00  0.00    -0.264 N 
HETATM    3  O   UNL     1      26.728  45.845  50.172  1.00  0.00    -0.267 OA
HETATM    4  H   UNL     1      24.744  47.183  52.327  1.00  0.00     0.190 HD
ENDROOT
BRANCH   2   5
HETATM    5  N   UNL     1      26.679  46.601  52.769  1.00  0.00    -0.263 N 
HETATM    6  C   UNL     1      26.429  46.114  54.039  1.00  0.00     0.272 C 
HETATM    7  O   UNL     1      25.280  46.002  54.466  1.00  0.00    -0.266 OA
HETATM    8  H   UNL     1      27.593  46.539  52.331  1.00  0.00     0.190 HD
BRANCH   6   9
HETATM    9  C   UNL     1      27.617  45.742  54.807  1.00  0.00     0.061 A 
HETATM   10  C   UNL     1      28.565  44.709  54.485  1.00  0.00     0.008 A 
HETATM   11  C   UNL     1      29.547  44.693  55.484  1.00  0.00     0.045 A 
HETATM   12  C   UNL     1      28.675  43.783  53.423  1.00  0.00     0.015 A 
HETATM   13  C   UNL     1      30.627  43.794  55.451  1.00  0.00     0.030 A 
HETATM   14  N   UNL     1      29.209  45.674  56.387  1.00  0.00    -0.359 N 
HETATM   15  C   UNL     1      30.706  42.890  54.388  1.00  0.00     0.002 A 
HETATM   16  C   UNL     1      29.744  42.882  53.386  1.00  0.00     0.001 A 
HETATM   17  C   UNL     1      29.931  46.024  57.591  1.00  0.00     0.156 C 
HETATM   18  C   UNL     1      28.056  46.307  55.994  1.00  0.00     0.108 A 
ENDBRANCH   6   9
ENDBRANCH   2   5
BRANCH   1  19
HETATM   19  C   UNL     1      24.487  46.587  49.800  1.00  0.00     0.076 C 
HETATM   20  C   UNL     1      24.037  47.837  49.615  1.00  0.00     0.017 C 
BRANCH  20  21
HETATM   21  C   UNL     1      22.823  48.199  48.869  1.00  0.00    -0.033 A 
HETATM   22  C   UNL     1      22.067  47.170  48.300  1.00  0.00     0.014 A 
HETATM   23  C   UNL     1      20.883  47.446  47.612  1.00  0.00     0.040 A 
HETATM   24  C   UNL     1      20.428  48.760  47.490  1.00  0.00     0.101 A 
HETATM   25  C   UNL     1      21.178  49.808  48.063  1.00  0.00     0.102 A 
HETATM   26  C   UNL     1      22.363  49.518  48.754  1.00  0.00     0.051 A 
BRANCH  24  27
HETATM   27  O   UNL     1      19.278  49.125  46.834  1.00  0.00    -0.353 OA
HETATM   28  C   UNL     1      18.041  48.805  47.453  1.00  0.00     0.210 C 
ENDBRANCH  24  27
BRANCH  25  29
HETATM   29  O   UNL     1      20.659  51.069  47.902  1.00  0.00    -0.349 OA
BRANCH  29  30
HETATM   30  C   UNL     1      20.006  51.675  49.013  1.00  0.00     0.171 C 
HETATM   31  C   UNL     1      18.819  52.460  48.485  1.00  0.00     0.034 C 
ENDBRANCH  29  30
ENDBRANCH  25  29
ENDBRANCH  20  21
ENDBRANCH   1  19
TORSDOF 7
ENDMDL
MODEL 6
REMARK VINA RESULT:      -8.8      2.648     11.151
REMARK  7 active torsions:
REMARK  status: ('A' for Active; 'I' for Inactive)
REMARK    1  A    between atoms: C_2  and  O_3 
REMARK    2  A    between atoms: O_3  and  C_4 
REMARK    3  A    between atoms: C_5  and  O_6 
REMARK    4  A    between atoms: C_10  and  C_11 
REMARK    5  A    between atoms: C_12  and  C_13 
REMARK       I    between atoms: C_13  and  N_14 
REMARK    6  A    between atoms: N_14  and  N_15 
REMARK       I    between atoms: N_15  and  C_16 
REMARK    7  A    between atoms: C_16  and  C_17 
ROOT
HETATM    1  C   UNL     1      25.529  46.628  50.733  1.00  0.00     0.259 C 
HETATM    2  N   UNL     1      25.602  47.045  52.039  1.00  0.00    -0.264 N 
HETATM    3  O   UNL     1      26.418  45.983  50.183  1.00  0.00    -0.267 OA
HETATM    4  H   UNL     1      24.847  47.496  52.552  1.00  0.00     0.190 HD
ENDROOT
BRANCH   2   5
HETATM    5  N   UNL     1      26.718  46.648  52.788  1.00  0.00    -0.263 N 
HETATM    6  C   UNL     1      26.643  46.677  54.169  1.00  0.00     0.272 C 
HETATM    7  O   UNL     1      25.672  47.166  54.746  1.00  0.00    -0.266 OA
HETATM    8  H   UNL     1      27.414  46.099  52.291  1.00  0.00     0.190 HD
BRANCH   6   9
HETATM    9  C   UNL     1      27.783  46.081  54.866  1.00  0.00     0.061 A 
HETATM   10  C   UNL     1      28.569  44.958  54.432  1.00  0.00     0.008 A 
HETATM   11  C   UNL     1      29.560  44.723  55.395  1.00  0.00     0.045 A 
HETATM   12  C   UNL     1      28.526  44.118  53.297  1.00  0.00     0.015 A 
HETATM   13  C   UNL     1      30.502  43.690  55.256  1.00  0.00     0.030 A 
HETATM   14  N   UNL     1      29.381  45.663  56.385  1.00  0.00    -0.359 N 
HETATM   15  C   UNL     1      30.432  42.876  54.122  1.00  0.00     0.002 A 
HETATM   16  C   UNL     1      29.457  43.085  53.153  1.00  0.00     0.001 A 
HETATM   17  C   UNL     1      30.170  45.808  57.588  1.00  0.00     0.156 C 
HETATM   18  C   UNL     1      28.321  46.479  56.080  1.00  0.00     0.108 A 
ENDBRANCH   6   9
ENDBRANCH   2   5
BRANCH   1  19
HETATM   19  C   UNL     1      24.273  47.028  50.051  1.00  0.00     0.076 C 
HETATM   20  C   UNL     1      24.124  48.303  49.657  1.00  0.00     0.017 C 
BRANCH  20  21
HETATM   21  C   UNL     1      22.927  48.853  49.005  1.00  0.00    -0.033 A 
HETATM   22  C   UNL     1      22.957  50.189  48.592  1.00  0.00     0.014 A 
HETATM   23  C   UNL     1      21.866  50.760  47.931  1.00  0.00     0.040 A 
HETATM   24  C   UNL     1      20.727  49.998  47.662  1.00  0.00     0.101 A 
HETATM   25  C   UNL     1      20.685  48.649  48.069  1.00  0.00     0.102 A 
HETATM   26  C   UNL     1      21.787  48.086  48.728  1.00  0.00     0.051 A 
BRANCH  24  27
HETATM   27  O   UNL     1      19.611  50.474  47.020  1.00  0.00    -0.353 OA
HETATM   28  C   UNL     1      18.725  51.295  47.766  1.00  0.00     0.210 C 
ENDBRANCH  24  27
BRANCH  25  29
HETATM   29  O   UNL     1      19.532  47.970  47.762  1.00  0.00    -0.349 OA
BRANCH  29  30
HETATM   30  C   UNL     1      18.907  47.207  48.789  1.00  0.00     0.171 C 
HETATM   31  C   UNL     1      17.569  47.853  49.103  1.00  0.00     0.034 C 
ENDBRANCH  29  30
ENDBRANCH  25  29
ENDBRANCH  20  21
ENDBRANCH   1  19
TORSDOF 7
ENDMDL
MODEL 7
REMARK VINA RESULT:      -8.5      1.827      2.390
REMARK  7 active torsions:
REMARK  status: ('A' for Active; 'I' for Inactive)
REMARK    1  A    between atoms: C_2  and  O_3 
REMARK    2  A    between atoms: O_3  and  C_4 
REMARK    3  A    between atoms: C_5  and  O_6 
REMARK    4  A    between atoms: C_10  and  C_11 
REMARK    5  A    between atoms: C_12  and  C_13 
REMARK       I    between atoms: C_13  and  N_14 
REMARK    6  A    between atoms: N_14  and  N_15 
REMARK       I    between atoms: N_15  and  C_16 
REMARK    7  A    between atoms: C_16  and  C_17 
ROOT
HETATM    1  C   UNL     1      24.228  47.821  49.911  1.00  0.00     0.259 C 
HETATM    2  N   UNL     1      23.045  47.152  49.706  1.00  0.00    -0.264 N 
HETATM    3  O   UNL     1      24.383  49.009  49.640  1.00  0.00    -0.267 OA
HETATM    4  H   UNL     1      22.853  46.199  50.006  1.00  0.00     0.190 HD
ENDROOT
BRANCH   2   5
HETATM    5  N   UNL     1      21.953  47.891  49.232  1.00  0.00    -0.263 N 
HETATM    6  C   UNL     1      21.597  47.779  47.900  1.00  0.00     0.272 C 
HETATM    7  O   UNL     1      22.293  47.152  47.102  1.00  0.00    -0.266 OA
HETATM    8  H   UNL     1      21.316  48.247  49.939  1.00  0.00     0.190 HD
BRANCH   6   9
HETATM    9  C   UNL     1      20.346  48.443  47.533  1.00  0.00     0.061 A 
HETATM   10  C   UNL     1      19.972  49.801  47.824  1.00  0.00     0.008 A 
HETATM   11  C   UNL     1      18.696  50.025  47.289  1.00  0.00     0.045 A 
HETATM   12  C   UNL     1      20.612  50.867  48.497  1.00  0.00     0.015 A 
HETATM   13  C   UNL     1      18.051  51.268  47.400  1.00  0.00     0.030 A 
HETATM   14  N   UNL     1      18.301  48.846  46.700  1.00  0.00    -0.359 N 
HETATM   15  C   UNL     1      18.711  52.301  48.072  1.00  0.00     0.002 A 
HETATM   16  C   UNL     1      19.975  52.105  48.615  1.00  0.00     0.001 A 
HETATM   17  C   UNL     1      17.048  48.599  46.020  1.00  0.00     0.156 C 
HETATM   18  C   UNL     1      19.278  47.893  46.841  1.00  0.00     0.108 A 
ENDBRANCH   6   9
ENDBRANCH   2   5
BRANCH   1  19
HETATM   19  C   UNL     1      25.297  46.973  50.493  1.00  0.00     0.076 C 
HETATM   20  C   UNL     1      25.052  46.307  51.632  1.00  0.00     0.017 C 
BRANCH  20  21
HETATM   21  C   UNL     1      26.019  45.460  52.344  1.00  0.00    -0.033 A 
HETATM   22  C   UNL     1      26.586  45.954  53.523  1.00  0.00     0.014 A 
HETATM   23  C   UNL     1      27.482  45.182  54.266  1.00  0.00     0.040 A 
HETATM   24  C   UNL     1      27.820  43.893  53.846  1.00  0.00     0.101 A 
HETATM   25  C   UNL     1      27.252  43.381  52.662  1.00  0.00     0.102 A 
HETATM   26  C   UNL     1      26.351  44.164  51.926  1.00  0.00     0.051 A 
BRANCH  24  27
HETATM   27  O   UNL     1      28.689  43.064  54.511  1.00  0.00    -0.353 OA
HETATM   28  C   UNL     1      30.006  43.543  54.739  1.00  0.00     0.210 C 
ENDBRANCH  24  27
BRANCH  25  29
HETATM   29  O   UNL     1      27.633  42.106  52.322  1.00  0.00    -0.349 OA
BRANCH  29  30
HETATM   30  C   UNL     1      27.531  41.714  50.957  1.00  0.00     0.171 C 
HETATM   31  C   UNL     1      26.440  40.665  50.852  1.00  0.00     0.034 C 
ENDBRANCH  29  30
ENDBRANCH  25  29
ENDBRANCH  20  21
ENDBRANCH   1  19
TORSDOF 7
ENDMDL
MODEL 8
REMARK VINA RESULT:      -8.4      7.928     11.908
REMARK  7 active torsions:
REMARK  status: ('A' for Active; 'I' for Inactive)
REMARK    1  A    between atoms: C_2  and  O_3 
REMARK    2  A    between atoms: O_3  and  C_4 
REMARK    3  A    between atoms: C_5  and  O_6 
REMARK    4  A    between atoms: C_10  and  C_11 
REMARK    5  A    between atoms: C_12  and  C_13 
REMARK       I    between atoms: C_13  and  N_14 
REMARK    6  A    between atoms: N_14  and  N_15 
REMARK       I    between atoms: N_15  and  C_16 
REMARK    7  A    between atoms: C_16  and  C_17 
ROOT
HETATM    1  C   UNL     1      27.077  41.681  51.268  1.00  0.00     0.259 C 
HETATM    2  N   UNL     1      27.974  41.347  52.253  1.00  0.00    -0.264 N 
HETATM    3  O   UNL     1      26.354  42.671  51.326  1.00  0.00    -0.267 OA
HETATM    4  H   UNL     1      28.653  40.592  52.194  1.00  0.00     0.190 HD
ENDROOT
BRANCH   2   5
HETATM    5  N   UNL     1      28.109  42.227  53.336  1.00  0.00    -0.263 N 
HETATM    6  C   UNL     1      29.190  43.089  53.368  1.00  0.00     0.272 C 
HETATM    7  O   UNL     1      30.098  43.007  52.542  1.00  0.00    -0.266 OA
HETATM    8  H   UNL     1      27.271  42.383  53.888  1.00  0.00     0.190 HD
BRANCH   6   9
HETATM    9  C   UNL     1      29.157  44.088  54.437  1.00  0.00     0.061 A 
HETATM   10  C   UNL     1      29.994  44.130  55.606  1.00  0.00     0.008 A 
HETATM   11  C   UNL     1      29.630  45.252  56.360  1.00  0.00     0.045 A 
HETATM   12  C   UNL     1      31.037  43.307  56.089  1.00  0.00     0.015 A 
HETATM   13  C   UNL     1      30.273  45.578  57.567  1.00  0.00     0.030 A 
HETATM   14  N   UNL     1      28.604  45.870  55.683  1.00  0.00    -0.359 N 
HETATM   15  C   UNL     1      31.300  44.744  58.018  1.00  0.00     0.002 A 
HETATM   16  C   UNL     1      31.679  43.622  57.290  1.00  0.00     0.001 A 
HETATM   17  C   UNL     1      27.904  47.071  56.086  1.00  0.00     0.156 C 
HETATM   18  C   UNL     1      28.312  45.182  54.532  1.00  0.00     0.108 A 
ENDBRANCH   6   9
ENDBRANCH   2   5
BRANCH   1  19
HETATM   19  C   UNL     1      27.069  40.732  50.126  1.00  0.00     0.076 C 
HETATM   20  C   UNL     1      28.132  40.689  49.309  1.00  0.00     0.017 C 
BRANCH  20  21
HETATM   21  C   UNL     1      28.254  39.831  48.122  1.00  0.00    -0.033 A 
HETATM   22  C   UNL     1      28.755  38.536  48.292  1.00  0.00     0.014 A 
HETATM   23  C   UNL     1      28.859  37.659  47.209  1.00  0.00     0.040 A 
HETATM   24  C   UNL     1      28.451  38.060  45.936  1.00  0.00     0.101 A 
HETATM   25  C   UNL     1      27.938  39.360  45.750  1.00  0.00     0.102 A 
HETATM   26  C   UNL     1      27.836  40.231  46.845  1.00  0.00     0.051 A 
BRANCH  24  27
HETATM   27  O   UNL     1      28.515  37.268  44.816  1.00  0.00    -0.353 OA
HETATM   28  C   UNL     1      29.774  36.700  44.487  1.00  0.00     0.210 C 
ENDBRANCH  24  27
BRANCH  25  29
HETATM   29  O   UNL     1      27.556  39.673  44.469  1.00  0.00    -0.349 OA
BRANCH  29  30
HETATM   30  C   UNL     1      27.999  40.909  43.917  1.00  0.00     0.171 C 
HETATM   31  C   UNL     1      29.421  40.716  43.421  1.00  0.00     0.034 C 
ENDBRANCH  29  30
ENDBRANCH  25  29
ENDBRANCH  20  21
ENDBRANCH   1  19
TORSDOF 7
ENDMDL
MODEL 9
REMARK VINA RESULT:      -8.4      7.058      9.375
REMARK  7 active torsions:
REMARK  status: ('A' for Active; 'I' for Inactive)
REMARK    1  A    between atoms: C_2  and  O_3 
REMARK    2  A    between atoms: O_3  and  C_4 
REMARK    3  A    between atoms: C_5  and  O_6 
REMARK    4  A    between atoms: C_10  and  C_11 
REMARK    5  A    between atoms: C_12  and  C_13 
REMARK       I    between atoms: C_13  and  N_14 
REMARK    6  A    between atoms: N_14  and  N_15 
REMARK       I    between atoms: N_15  and  C_16 
REMARK    7  A    between atoms: C_16  and  C_17 
ROOT
HETATM    1  C   UNL     1      27.912  40.617  51.931  1.00  0.00     0.259 C 
HETATM    2  N   UNL     1      26.581  40.535  51.603  1.00  0.00    -0.264 N 
HETATM    3  O   UNL     1      28.799  40.066  51.284  1.00  0.00    -0.267 OA
HETATM    4  H   UNL     1      25.833  41.055  52.058  1.00  0.00     0.190 HD
ENDROOT
BRANCH   2   5
HETATM    5  N   UNL     1      26.241  39.844  50.432  1.00  0.00    -0.263 N 
HETATM    6  C   UNL     1      26.072  40.558  49.259  1.00  0.00     0.272 C 
HETATM    7  O   UNL     1      26.083  41.788  49.251  1.00  0.00    -0.266 OA
HETATM    8  H   UNL     1      26.412  38.843  50.441  1.00  0.00     0.190 HD
BRANCH   6   9
HETATM    9  C   UNL     1      25.894  39.743  48.056  1.00  0.00     0.061 A 
HETATM   10  C   UNL     1      26.848  38.834  47.480  1.00  0.00     0.008 A 
HETATM   11  C   UNL     1      26.270  38.262  46.340  1.00  0.00     0.045 A 
HETATM   12  C   UNL     1      28.160  38.443  47.834  1.00  0.00     0.015 A 
HETATM   13  C   UNL     1      26.952  37.318  45.554  1.00  0.00     0.030 A 
HETATM   14  N   UNL     1      25.012  38.807  46.218  1.00  0.00    -0.359 N 
HETATM   15  C   UNL     1      28.248  36.953  45.930  1.00  0.00     0.002 A 
HETATM   16  C   UNL     1      28.846  37.508  47.055  1.00  0.00     0.001 A 
HETATM   17  C   UNL     1      24.043  38.517  45.183  1.00  0.00     0.156 C 
HETATM   18  C   UNL     1      24.777  39.695  47.237  1.00  0.00     0.108 A 
ENDBRANCH   6   9
ENDBRANCH   2   5
BRANCH   1  19
HETATM   19  C   UNL     1      28.177  41.439  53.139  1.00  0.00     0.076 C 
HETATM   20  C   UNL     1      28.884  42.571  53.013  1.00  0.00     0.017 C 
BRANCH  20  21
HETATM   21  C   UNL     1      29.255  43.466  54.119  1.00  0.00    -0.033 A 
HETATM   22  C   UNL     1      30.396  43.156  54.865  1.00  0.00     0.014 A 
HETATM   23  C   UNL     1      30.823  43.988  55.903  1.00  0.00     0.040 A 
HETATM   24  C   UNL     1      30.118  45.154  56.207  1.00  0.00     0.101 A 
HETATM   25  C   UNL     1      28.968  45.482  55.460  1.00  0.00     0.102 A 
HETATM   26  C   UNL     1      28.551  44.641  54.418  1.00  0.00     0.051 A 
BRANCH  24  27
HETATM   27  O   UNL     1      30.462  46.029  57.207  1.00  0.00    -0.353 OA
HETATM   28  C   UNL     1      30.760  45.482  58.483  1.00  0.00     0.210 C 
ENDBRANCH  24  27
BRANCH  25  29
HETATM   29  O   UNL     1      28.336  46.647  55.820  1.00  0.00    -0.349 OA
BRANCH  29  30
HETATM   30  C   UNL     1      27.914  47.531  54.787  1.00  0.00     0.171 C 
HETATM   31  C   UNL     1      26.430  47.790  54.971  1.00  0.00     0.034 C 
ENDBRANCH  29  30
ENDBRANCH  25  29
ENDBRANCH  20  21
ENDBRANCH   1  19
TORSDOF 7
ENDMDL
MODEL 10
REMARK VINA RESULT:      -8.3     14.009     14.661
REMARK  7 active torsions:
REMARK  status: ('A' for Active; 'I' for Inactive)
REMARK    1  A    between atoms: C_2  and  O_3 
REMARK    2  A    between atoms: O_3  and  C_4 
REMARK    3  A    between atoms: C_5  and  O_6 
REMARK    4  A    between atoms: C_10  and  C_11 
REMARK    5  A    between atoms: C_12  and  C_13 
REMARK       I    between atoms: C_13  and  N_14 
REMARK    6  A    between atoms: N_14  and  N_15 
REMARK       I    between atoms: N_15  and  C_16 
REMARK    7  A    between atoms: C_16  and  C_17 
ROOT
HETATM    1  C   UNL     1      35.452  51.757  42.479  1.00  0.00     0.259 C 
HETATM    2  N   UNL     1      34.713  50.793  43.122  1.00  0.00    -0.264 N 
HETATM    3  O   UNL     1      35.148  52.214  41.381  1.00  0.00    -0.267 OA
HETATM    4  H   UNL     1      34.883  50.462  44.069  1.00  0.00     0.190 HD
ENDROOT
BRANCH   2   5
HETATM    5  N   UNL     1      33.521  50.375  42.516  1.00  0.00    -0.263 N 
HETATM    6  C   UNL     1      32.323  50.605  43.166  1.00  0.00     0.272 C 
HETATM    7  O   UNL     1      32.293  51.045  44.315  1.00  0.00    -0.266 OA
HETATM    8  H   UNL     1      33.573  50.183  41.519  1.00  0.00     0.190 HD
BRANCH   6   9
HETATM    9  C   UNL     1      31.123  50.298  42.387  1.00  0.00     0.061 A 
HETATM   10  C   UNL     1      30.369  51.209  41.568  1.00  0.00     0.008 A 
HETATM   11  C   UNL     1      29.302  50.501  41.000  1.00  0.00     0.045 A 
HETATM   12  C   UNL     1      30.503  52.581  41.257  1.00  0.00     0.015 A 
HETATM   13  C   UNL     1      28.379  51.114  40.136  1.00  0.00     0.030 A 
HETATM   14  N   UNL     1      29.395  49.207  41.459  1.00  0.00    -0.359 N 
HETATM   15  C   UNL     1      28.539  52.473  39.849  1.00  0.00     0.002 A 
HETATM   16  C   UNL     1      29.587  53.199  40.402  1.00  0.00     0.001 A 
HETATM   17  C   UNL     1      28.504  48.113  41.141  1.00  0.00     0.156 C 
HETATM   18  C   UNL     1      30.479  49.074  42.291  1.00  0.00     0.108 A 
ENDBRANCH   6   9
ENDBRANCH   2   5
BRANCH   1  19
HETATM   19  C   UNL     1      36.650  52.192  43.239  1.00  0.00     0.076 C 
HETATM   20  C   UNL     1      36.506  53.104  44.213  1.00  0.00     0.017 C 
BRANCH  20  21
HETATM   21  C   UNL     1      37.600  53.657  45.025  1.00  0.00    -0.033 A 
HETATM   22  C   UNL     1      38.522  52.767  45.583  1.00  0.00     0.014 A 
HETATM   23  C   UNL     1      39.606  53.232  46.332  1.00  0.00     0.040 A 
HETATM   24  C   UNL     1      39.792  54.602  46.526  1.00  0.00     0.101 A 
HETATM   25  C   UNL     1      38.872  55.512  45.965  1.00  0.00     0.102 A 
HETATM   26  C   UNL     1      37.790  55.033  45.213  1.00  0.00     0.051 A 
BRANCH  24  27
HETATM   27  O   UNL     1      40.825  55.150  47.245  1.00  0.00    -0.353 OA
HETATM   28  C   UNL     1      41.473  54.320  48.198  1.00  0.00     0.210 C 
ENDBRANCH  24  27
BRANCH  25  29
HETATM   29  O   UNL     1      39.130  56.840  46.199  1.00  0.00    -0.349 OA
BRANCH  29  30
HETATM   30  C   UNL     1      39.529  57.652  45.100  1.00  0.00     0.171 C 
HETATM   31  C   UNL     1      38.375  58.580  44.763  1.00  0.00     0.034 C 
ENDBRANCH  29  30
ENDBRANCH  25  29
ENDBRANCH  20  21
ENDBRANCH   1  19
TORSDOF 7
ENDMDL
