MODEL 1
REMARK VINA RESULT:     -10.2      0.000      0.000
REMARK  9 active torsions:
REMARK  status: ('A' for Active; 'I' for Inactive)
REMARK    1  A    between atoms: C_2  and  C_3 
REMARK    2  A    between atoms: C_3  and  C_4 
REMARK    3  A    between atoms: C_4  and  O_5 
REMARK    4  A    between atoms: O_5  and  C_6 
REMARK    5  A    between atoms: C_8  and  C_9 
REMARK       I    between atoms: C_9  and  N_10 
REMARK    6  A    between atoms: N_10  and  C_11 
REMARK    7  A    between atoms: N_12  and  C_13 
REMARK    8  A    between atoms: C_15  and  C_16 
REMARK    9  A    between atoms: C_25  and  O_26 
ROOT
HETATM    1  C   UNL     1      24.161  44.253  49.656  1.00  0.00     0.179 C 
HETATM    2  N   UNL     1      24.693  43.035  49.896  1.00  0.00    -0.333 N 
HETATM    3  S   UNL     1      22.493  44.384  49.552  1.00  0.00    -0.040 SA
HETATM    4  H   UNL     1      24.041  42.280  49.709  1.00  0.00     0.168 HD
ENDROOT
BRANCH   2   5
HETATM    5  C   UNL     1      25.899  42.629  50.505  1.00  0.00     0.035 A 
HETATM    6  C   UNL     1      26.450  43.238  51.633  1.00  0.00     0.048 A 
HETATM    7  C   UNL     1      27.685  42.824  52.161  1.00  0.00     0.053 A 
HETATM    8  C   UNL     1      28.316  41.705  51.589  1.00  0.00     0.086 A 
HETATM    9  C   UNL     1      27.748  41.031  50.501  1.00  0.00    -0.026 A 
HETATM   10  C   UNL     1      28.387  39.800  49.924  1.00  0.00     0.051 C 
HETATM   11  C   UNL     1      26.538  41.504  49.970  1.00  0.00     0.039 A 
BRANCH   7  12
HETATM   12  C   UNL     1      28.311  43.562  53.254  1.00  0.00     0.183 A 
HETATM   13  O   UNL     1      29.400  42.986  53.860  1.00  0.00    -0.289 OA
HETATM   14  C   UNL     1      29.703  43.844  54.874  1.00  0.00     0.106 A 
HETATM   15  C   UNL     1      28.799  44.894  54.828  1.00  0.00     0.093 A 
HETATM   16  C   UNL     1      30.720  43.715  55.812  1.00  0.00     0.040 A 
HETATM   17  N   UNL     1      27.929  44.716  53.780  1.00  0.00    -0.221 NA
HETATM   18  C   UNL     1      28.889  45.908  55.788  1.00  0.00     0.034 A 
HETATM   19  C   UNL     1      29.900  45.813  56.758  1.00  0.00     0.002 A 
HETATM   20  C   UNL     1      30.798  44.737  56.765  1.00  0.00     0.003 A 
ENDBRANCH   7  12
BRANCH   8  21
HETATM   21  O   UNL     1      29.509  41.221  52.071  1.00  0.00    -0.359 OA
HETATM   22  H   UNL     1      29.952  41.931  52.582  1.00  0.00     0.218 HD
ENDBRANCH   8  21
ENDBRANCH   2   5
BRANCH   1  23
HETATM   23  N   UNL     1      24.895  45.387  49.494  1.00  0.00    -0.299 N 
HETATM   24  C   UNL     1      25.064  46.477  50.343  1.00  0.00     0.257 C 
HETATM   25  O   UNL     1      24.802  46.481  51.538  1.00  0.00    -0.267 OA
HETATM   26  H   UNL     1      25.611  45.286  48.786  1.00  0.00     0.171 HD
BRANCH  24  27
HETATM   27  C   UNL     1      25.691  47.676  49.707  1.00  0.00     0.035 A 
HETATM   28  C   UNL     1      24.883  48.565  48.987  1.00  0.00     0.053 A 
HETATM   29  C   UNL     1      25.440  49.678  48.350  1.00  0.00     0.069 A 
HETATM   30  C   UNL     1      26.815  49.904  48.437  1.00  0.00     0.037 A 
HETATM   31  C   UNL     1      27.631  49.014  49.140  1.00  0.00     0.004 A 
HETATM   32  C   UNL     1      27.074  47.899  49.766  1.00  0.00     0.017 A 
BRANCH  29  33
HETATM   33  O   UNL     1      24.544  50.466  47.678  1.00  0.00    -0.351 OA
BRANCH  33  34
HETATM   34  C   UNL     1      23.163  50.131  47.805  1.00  0.00     0.175 C 
BRANCH  34  35
HETATM   35  C   UNL     1      22.462  51.188  48.659  1.00  0.00     0.026 C 
BRANCH  35  36
HETATM   36  C   UNL     1      20.951  51.214  48.428  1.00  0.00    -0.002 C 
HETATM   37  C   UNL     1      20.191  51.227  49.745  1.00  0.00     0.005 C 
ENDBRANCH  35  36
ENDBRANCH  34  35
ENDBRANCH  33  34
ENDBRANCH  29  33
ENDBRANCH  24  27
ENDBRANCH   1  23
TORSDOF 9
ENDMDL
MODEL 2
REMARK VINA RESULT:     -10.1      2.884      4.835
REMARK  9 active torsions:
REMARK  status: ('A' for Active; 'I' for Inactive)
REMARK    1  A    between atoms: C_2  and  C_3 
REMARK    2  A    between atoms: C_3  and  C_4 
REMARK    3  A    between atoms: C_4  and  O_5 
REMARK    4  A    between atoms: O_5  and  C_6 
REMARK    5  A    between atoms: C_8  and  C_9 
REMARK       I    between atoms: C_9  and  N_10 
REMARK    6  A    between atoms: N_10  and  C_11 
REMARK    7  A    between atoms: N_12  and  C_13 
REMARK    8  A    between atoms: C_15  and  C_16 
REMARK    9  A    between atoms: C_25  and  O_26 
ROOT
HETATM    1  C   UNL     1      24.084  48.670  49.224  1.00  0.00     0.179 C 
HETATM    2  N   UNL     1      25.050  48.078  49.961  1.00  0.00    -0.333 N 
HETATM    3  S   UNL     1      24.529  49.890  48.164  1.00  0.00    -0.040 SA
HETATM    4  H   UNL     1      25.903  48.627  49.998  1.00  0.00     0.168 HD
ENDROOT
BRANCH   2   5
HETATM    5  C   UNL     1      25.154  46.793  50.533  1.00  0.00     0.035 A 
HETATM    6  C   UNL     1      26.076  46.449  51.521  1.00  0.00     0.048 A 
HETATM    7  C   UNL     1      26.169  45.135  52.012  1.00  0.00     0.053 A 
HETATM    8  C   UNL     1      25.238  44.183  51.560  1.00  0.00     0.086 A 
HETATM    9  C   UNL     1      24.256  44.522  50.621  1.00  0.00    -0.026 A 
HETATM   10  C   UNL     1      23.222  43.526  50.178  1.00  0.00     0.051 C 
HETATM   11  C   UNL     1      24.225  45.831  50.116  1.00  0.00     0.039 A 
BRANCH   7  12
HETATM   12  C   UNL     1      27.231  44.763  52.942  1.00  0.00     0.183 A 
HETATM   13  O   UNL     1      27.522  45.645  53.952  1.00  0.00    -0.289 OA
HETATM   14  C   UNL     1      28.588  45.081  54.586  1.00  0.00     0.106 A 
HETATM   15  C   UNL     1      28.882  43.889  53.943  1.00  0.00     0.093 A 
HETATM   16  C   UNL     1      29.286  45.587  55.675  1.00  0.00     0.040 A 
HETATM   17  N   UNL     1      28.000  43.685  52.910  1.00  0.00    -0.221 NA
HETATM   18  C   UNL     1      29.961  43.122  54.398  1.00  0.00     0.034 A 
HETATM   19  C   UNL     1      30.697  43.600  55.494  1.00  0.00     0.002 A 
HETATM   20  C   UNL     1      30.361  44.808  56.120  1.00  0.00     0.003 A 
ENDBRANCH   7  12
BRANCH   8  21
HETATM   21  O   UNL     1      25.246  42.887  52.017  1.00  0.00    -0.359 OA
HETATM   22  H   UNL     1      24.536  42.390  51.561  1.00  0.00     0.218 HD
ENDBRANCH   8  21
ENDBRANCH   2   5
BRANCH   1  23
HETATM   23  N   UNL     1      22.767  48.337  49.287  1.00  0.00    -0.299 N 
HETATM   24  C   UNL     1      21.942  47.747  48.333  1.00  0.00     0.257 C 
HETATM   25  O   UNL     1      22.337  47.146  47.342  1.00  0.00    -0.267 OA
HETATM   26  H   UNL     1      22.431  48.268  50.239  1.00  0.00     0.171 HD
BRANCH  24  27
HETATM   27  C   UNL     1      20.481  47.814  48.638  1.00  0.00     0.035 A 
HETATM   28  C   UNL     1      20.000  48.860  49.437  1.00  0.00     0.053 A 
HETATM   29  C   UNL     1      18.645  48.937  49.772  1.00  0.00     0.069 A 
HETATM   30  C   UNL     1      17.764  47.960  49.301  1.00  0.00     0.037 A 
HETATM   31  C   UNL     1      18.237  46.905  48.518  1.00  0.00     0.004 A 
HETATM   32  C   UNL     1      19.592  46.826  48.193  1.00  0.00     0.017 A 
BRANCH  29  33
HETATM   33  O   UNL     1      18.305  50.004  50.559  1.00  0.00    -0.351 OA
BRANCH  33  34
HETATM   34  C   UNL     1      17.664  51.105  49.916  1.00  0.00     0.175 C 
BRANCH  34  35
HETATM   35  C   UNL     1      18.659  52.257  49.776  1.00  0.00     0.026 C 
BRANCH  35  36
HETATM   36  C   UNL     1      19.145  52.433  48.336  1.00  0.00    -0.002 C 
HETATM   37  C   UNL     1      18.258  51.679  47.358  1.00  0.00     0.005 C 
ENDBRANCH  35  36
ENDBRANCH  34  35
ENDBRANCH  33  34
ENDBRANCH  29  33
ENDBRANCH  24  27
ENDBRANCH   1  23
TORSDOF 9
ENDMDL
MODEL 3
REMARK VINA RESULT:      -9.1      1.585      2.240
REMARK  9 active torsions:
REMARK  status: ('A' for Active; 'I' for Inactive)
REMARK    1  A    between atoms: C_2  and  C_3 
REMARK    2  A    between atoms: C_3  and  C_4 
REMARK    3  A    between atoms: C_4  and  O_5 
REMARK    4  A    between atoms: O_5  and  C_6 
REMARK    5  A    between atoms: C_8  and  C_9 
REMARK       I    between atoms: C_9  and  N_10 
REMARK    6  A    between atoms: N_10  and  C_11 
REMARK    7  A    between atoms: N_12  and  C_13 
REMARK    8  A    between atoms: C_15  and  C_16 
REMARK    9  A    between atoms: C_25  and  O_26 
ROOT
HETATM    1  C   UNL     1      24.342  42.192  48.458  1.00  0.00     0.179 C 
HETATM    2  N   UNL     1      25.126  41.094  48.529  1.00  0.00    -0.333 N 
HETATM    3  S   UNL     1      22.781  42.017  47.873  1.00  0.00    -0.040 SA
HETATM    4  H   UNL     1      24.780  40.330  47.958  1.00  0.00     0.168 HD
ENDROOT
BRANCH   2   5
HETATM    5  C   UNL     1      26.216  40.758  49.359  1.00  0.00     0.035 A 
HETATM    6  C   UNL     1      26.590  41.482  50.491  1.00  0.00     0.048 A 
HETATM    7  C   UNL     1      27.721  41.129  51.247  1.00  0.00     0.053 A 
HETATM    8  C   UNL     1      28.421  39.960  50.899  1.00  0.00     0.086 A 
HETATM    9  C   UNL     1      28.023  39.176  49.809  1.00  0.00    -0.026 A 
HETATM   10  C   UNL     1      28.730  37.895  49.469  1.00  0.00     0.051 C 
HETATM   11  C   UNL     1      26.918  39.586  49.048  1.00  0.00     0.039 A 
BRANCH   7  12
HETATM   12  C   UNL     1      28.177  41.978  52.343  1.00  0.00     0.183 A 
HETATM   13  O   UNL     1      27.445  43.109  52.610  1.00  0.00    -0.289 OA
HETATM   14  C   UNL     1      28.148  43.729  53.599  1.00  0.00     0.106 A 
HETATM   15  C   UNL     1      29.255  42.946  53.890  1.00  0.00     0.093 A 
HETATM   16  C   UNL     1      27.845  44.935  54.219  1.00  0.00     0.040 A 
HETATM   17  N   UNL     1      29.254  41.824  53.099  1.00  0.00    -0.221 NA
HETATM   18  C   UNL     1      30.154  43.383  54.869  1.00  0.00     0.034 A 
HETATM   19  C   UNL     1      29.889  44.600  55.517  1.00  0.00     0.002 A 
HETATM   20  C   UNL     1      28.753  45.357  55.198  1.00  0.00     0.003 A 
ENDBRANCH   7  12
BRANCH   8  21
HETATM   21  O   UNL     1      29.518  39.534  51.609  1.00  0.00    -0.359 OA
HETATM   22  H   UNL     1      29.657  40.141  52.365  1.00  0.00     0.218 HD
ENDBRANCH   8  21
ENDBRANCH   2   5
BRANCH   1  23
HETATM   23  N   UNL     1      24.740  43.438  48.833  1.00  0.00    -0.299 N 
HETATM   24  C   UNL     1      24.308  44.240  49.886  1.00  0.00     0.257 C 
HETATM   25  O   UNL     1      23.678  43.842  50.856  1.00  0.00    -0.267 OA
HETATM   26  H   UNL     1      25.647  43.684  48.457  1.00  0.00     0.171 HD
BRANCH  24  27
HETATM   27  C   UNL     1      24.746  45.667  49.808  1.00  0.00     0.035 A 
HETATM   28  C   UNL     1      23.854  46.627  49.315  1.00  0.00     0.053 A 
HETATM   29  C   UNL     1      24.240  47.965  49.195  1.00  0.00     0.069 A 
HETATM   30  C   UNL     1      25.529  48.345  49.575  1.00  0.00     0.037 A 
HETATM   31  C   UNL     1      26.431  47.392  50.053  1.00  0.00     0.004 A 
HETATM   32  C   UNL     1      26.046  46.056  50.162  1.00  0.00     0.017 A 
BRANCH  29  33
HETATM   33  O   UNL     1      23.277  48.802  48.698  1.00  0.00    -0.351 OA
BRANCH  33  34
HETATM   34  C   UNL     1      22.781  49.813  49.574  1.00  0.00     0.175 C 
BRANCH  34  35
HETATM   35  C   UNL     1      22.349  51.027  48.751  1.00  0.00     0.026 C 
BRANCH  35  36
HETATM   36  C   UNL     1      20.977  50.832  48.104  1.00  0.00    -0.002 C 
HETATM   37  C   UNL     1      19.923  51.702  48.770  1.00  0.00     0.005 C 
ENDBRANCH  35  36
ENDBRANCH  34  35
ENDBRANCH  33  34
ENDBRANCH  29  33
ENDBRANCH  24  27
ENDBRANCH   1  23
TORSDOF 9
ENDMDL
MODEL 4
REMARK VINA RESULT:      -9.1      2.456      7.503
REMARK  9 active torsions:
REMARK  status: ('A' for Active; 'I' for Inactive)
REMARK    1  A    between atoms: C_2  and  C_3 
REMARK    2  A    between atoms: C_3  and  C_4 
REMARK    3  A    between atoms: C_4  and  O_5 
REMARK    4  A    between atoms: O_5  and  C_6 
REMARK    5  A    between atoms: C_8  and  C_9 
REMARK       I    between atoms: C_9  and  N_10 
REMARK    6  A    between atoms: N_10  and  C_11 
REMARK    7  A    between atoms: N_12  and  C_13 
REMARK    8  A    between atoms: C_15  and  C_16 
REMARK    9  A    between atoms: C_25  and  O_26 
ROOT
HETATM    1  C   UNL     1      24.279  41.979  48.748  1.00  0.00     0.179 C 
HETATM    2  N   UNL     1      23.471  43.062  48.732  1.00  0.00    -0.333 N 
HETATM    3  S   UNL     1      24.045  40.797  47.582  1.00  0.00    -0.040 SA
HETATM    4  H   UNL     1      22.628  42.911  48.188  1.00  0.00     0.168 HD
ENDROOT
BRANCH   2   5
HETATM    5  C   UNL     1      23.654  44.388  49.177  1.00  0.00     0.035 A 
HETATM    6  C   UNL     1      24.485  44.751  50.236  1.00  0.00     0.048 A 
HETATM    7  C   UNL     1      24.582  46.084  50.669  1.00  0.00     0.053 A 
HETATM    8  C   UNL     1      23.897  47.075  49.944  1.00  0.00     0.086 A 
HETATM    9  C   UNL     1      23.112  46.745  48.832  1.00  0.00    -0.026 A 
HETATM   10  C   UNL     1      22.426  47.806  48.018  1.00  0.00     0.051 C 
HETATM   11  C   UNL     1      23.000  45.398  48.459  1.00  0.00     0.039 A 
BRANCH   7  12
HETATM   12  C   UNL     1      25.347  46.424  51.865  1.00  0.00     0.183 A 
HETATM   13  O   UNL     1      26.211  45.474  52.351  1.00  0.00    -0.289 OA
HETATM   14  C   UNL     1      26.701  46.030  53.495  1.00  0.00     0.106 A 
HETATM   15  C   UNL     1      26.125  47.282  53.640  1.00  0.00     0.093 A 
HETATM   16  C   UNL     1      27.606  45.466  54.385  1.00  0.00     0.040 A 
HETATM   17  N   UNL     1      25.280  47.533  52.587  1.00  0.00    -0.221 NA
HETATM   18  C   UNL     1      26.456  48.054  54.760  1.00  0.00     0.034 A 
HETATM   19  C   UNL     1      27.364  47.519  55.687  1.00  0.00     0.002 A 
HETATM   20  C   UNL     1      27.929  46.250  55.499  1.00  0.00     0.003 A 
ENDBRANCH   7  12
BRANCH   8  21
HETATM   21  O   UNL     1      23.968  48.404  50.288  1.00  0.00    -0.359 OA
HETATM   22  H   UNL     1      24.577  48.499  51.050  1.00  0.00     0.218 HD
ENDBRANCH   8  21
ENDBRANCH   2   5
BRANCH   1  23
HETATM   23  N   UNL     1      25.275  41.784  49.653  1.00  0.00    -0.299 N 
HETATM   24  C   UNL     1      26.621  42.136  49.597  1.00  0.00     0.257 C 
HETATM   25  O   UNL     1      27.099  42.957  48.825  1.00  0.00    -0.267 OA
HETATM   26  H   UNL     1      24.922  41.606  50.585  1.00  0.00     0.171 HD
BRANCH  24  27
HETATM   27  C   UNL     1      27.482  41.490  50.635  1.00  0.00     0.035 A 
HETATM   28  C   UNL     1      27.775  42.193  51.810  1.00  0.00     0.053 A 
HETATM   29  C   UNL     1      28.604  41.635  52.787  1.00  0.00     0.069 A 
HETATM   30  C   UNL     1      29.142  40.362  52.587  1.00  0.00     0.037 A 
HETATM   31  C   UNL     1      28.868  39.660  51.411  1.00  0.00     0.004 A 
HETATM   32  C   UNL     1      28.048  40.223  50.433  1.00  0.00     0.017 A 
BRANCH  29  33
HETATM   33  O   UNL     1      28.813  42.425  53.886  1.00  0.00    -0.351 OA
BRANCH  33  34
HETATM   34  C   UNL     1      30.112  42.998  54.035  1.00  0.00     0.175 C 
BRANCH  34  35
HETATM   35  C   UNL     1      30.488  43.020  55.516  1.00  0.00     0.026 C 
BRANCH  35  36
HETATM   36  C   UNL     1      31.077  44.365  55.947  1.00  0.00    -0.002 C 
HETATM   37  C   UNL     1      30.990  44.549  57.454  1.00  0.00     0.005 C 
ENDBRANCH  35  36
ENDBRANCH  34  35
ENDBRANCH  33  34
ENDBRANCH  29  33
ENDBRANCH  24  27
ENDBRANCH   1  23
TORSDOF 9
ENDMDL
MODEL 5
REMARK VINA RESULT:      -8.9      2.384      4.208
REMARK  9 active torsions:
REMARK  status: ('A' for Active; 'I' for Inactive)
REMARK    1  A    between atoms: C_2  and  C_3 
REMARK    2  A    between atoms: C_3  and  C_4 
REMARK    3  A    between atoms: C_4  and  O_5 
REMARK    4  A    between atoms: O_5  and  C_6 
REMARK    5  A    between atoms: C_8  and  C_9 
REMARK       I    between atoms: C_9  and  N_10 
REMARK    6  A    between atoms: N_10  and  C_11 
REMARK    7  A    between atoms: N_12  and  C_13 
REMARK    8  A    between atoms: C_15  and  C_16 
REMARK    9  A    between atoms: C_25  and  O_26 
ROOT
HETATM    1  C   UNL     1      25.600  42.840  49.700  1.00  0.00     0.179 C 
HETATM    2  N   UNL     1      26.632  43.026  50.552  1.00  0.00    -0.333 N 
HETATM    3  S   UNL     1      25.346  41.300  49.085  1.00  0.00    -0.040 SA
HETATM    4  H   UNL     1      27.313  42.275  50.510  1.00  0.00     0.168 HD
ENDROOT
BRANCH   2   5
HETATM    5  C   UNL     1      26.852  43.960  51.587  1.00  0.00     0.035 A 
HETATM    6  C   UNL     1      27.834  43.824  52.567  1.00  0.00     0.048 A 
HETATM    7  C   UNL     1      27.968  44.761  53.606  1.00  0.00     0.053 A 
HETATM    8  C   UNL     1      27.152  45.906  53.585  1.00  0.00     0.086 A 
HETATM    9  C   UNL     1      26.206  46.101  52.571  1.00  0.00    -0.026 A 
HETATM   10  C   UNL     1      25.373  47.350  52.510  1.00  0.00     0.051 C 
HETATM   11  C   UNL     1      26.068  45.120  51.577  1.00  0.00     0.039 A 
BRANCH   7  12
HETATM   12  C   UNL     1      28.908  44.530  54.699  1.00  0.00     0.183 A 
HETATM   13  O   UNL     1      28.868  45.401  55.759  1.00  0.00    -0.289 OA
HETATM   14  C   UNL     1      29.894  44.995  56.558  1.00  0.00     0.106 A 
HETATM   15  C   UNL     1      30.494  43.900  55.955  1.00  0.00     0.093 A 
HETATM   16  C   UNL     1      30.302  45.560  57.760  1.00  0.00     0.040 A 
HETATM   17  N   UNL     1      29.847  43.599  54.782  1.00  0.00    -0.221 NA
HETATM   18  C   UNL     1      31.598  43.305  56.577  1.00  0.00     0.034 A 
HETATM   19  C   UNL     1      32.046  43.849  57.791  1.00  0.00     0.002 A 
HETATM   20  C   UNL     1      31.405  44.953  58.370  1.00  0.00     0.003 A 
ENDBRANCH   7  12
BRANCH   8  21
HETATM   21  O   UNL     1      27.246  46.881  54.549  1.00  0.00    -0.359 OA
HETATM   22  H   UNL     1      27.866  46.576  55.244  1.00  0.00     0.218 HD
ENDBRANCH   8  21
ENDBRANCH   2   5
BRANCH   1  23
HETATM   23  N   UNL     1      24.749  43.825  49.307  1.00  0.00    -0.299 N 
HETATM   24  C   UNL     1      23.421  44.057  49.655  1.00  0.00     0.257 C 
HETATM   25  O   UNL     1      22.855  43.565  50.623  1.00  0.00    -0.267 OA
HETATM   26  H   UNL     1      25.235  44.629  48.931  1.00  0.00     0.171 HD
BRANCH  24  27
HETATM   27  C   UNL     1      22.711  45.050  48.794  1.00  0.00     0.035 A 
HETATM   28  C   UNL     1      23.169  46.373  48.760  1.00  0.00     0.053 A 
HETATM   29  C   UNL     1      22.510  47.338  47.993  1.00  0.00     0.069 A 
HETATM   30  C   UNL     1      21.384  46.974  47.251  1.00  0.00     0.037 A 
HETATM   31  C   UNL     1      20.910  45.661  47.290  1.00  0.00     0.004 A 
HETATM   32  C   UNL     1      21.564  44.703  48.065  1.00  0.00     0.017 A 
BRANCH  29  33
HETATM   33  O   UNL     1      23.057  48.592  48.048  1.00  0.00    -0.351 OA
BRANCH  33  34
HETATM   34  C   UNL     1      24.236  48.751  48.836  1.00  0.00     0.175 C 
BRANCH  34  35
HETATM   35  C   UNL     1      25.133  49.810  48.195  1.00  0.00     0.026 C 
BRANCH  35  36
HETATM   36  C   UNL     1      26.593  49.677  48.633  1.00  0.00    -0.002 C 
HETATM   37  C   UNL     1      26.857  48.322  49.270  1.00  0.00     0.005 C 
ENDBRANCH  35  36
ENDBRANCH  34  35
ENDBRANCH  33  34
ENDBRANCH  29  33
ENDBRANCH  24  27
ENDBRANCH   1  23
TORSDOF 9
ENDMDL
MODEL 6
REMARK VINA RESULT:      -8.9      3.540      5.328
REMARK  9 active torsions:
REMARK  status: ('A' for Active; 'I' for Inactive)
REMARK    1  A    between atoms: C_2  and  C_3 
REMARK    2  A    between atoms: C_3  and  C_4 
REMARK    3  A    between atoms: C_4  and  O_5 
REMARK    4  A    between atoms: O_5  and  C_6 
REMARK    5  A    between atoms: C_8  and  C_9 
REMARK       I    between atoms: C_9  and  N_10 
REMARK    6  A    between atoms: N_10  and  C_11 
REMARK    7  A    between atoms: N_12  and  C_13 
REMARK    8  A    between atoms: C_15  and  C_16 
REMARK    9  A    between atoms: C_25  and  O_26 
ROOT
HETATM    1  C   UNL     1      24.305  48.729  48.928  1.00  0.00     0.179 C 
HETATM    2  N   UNL     1      25.078  48.178  49.890  1.00  0.00    -0.333 N 
HETATM    3  S   UNL     1      24.933  50.003  48.038  1.00  0.00    -0.040 SA
HETATM    4  H   UNL     1      25.851  48.777  50.160  1.00  0.00     0.168 HD
ENDROOT
BRANCH   2   5
HETATM    5  C   UNL     1      25.112  46.886  50.456  1.00  0.00     0.035 A 
HETATM    6  C   UNL     1      26.045  46.473  51.407  1.00  0.00     0.048 A 
HETATM    7  C   UNL     1      26.063  45.154  51.893  1.00  0.00     0.053 A 
HETATM    8  C   UNL     1      25.050  44.273  51.475  1.00  0.00     0.086 A 
HETATM    9  C   UNL     1      24.059  44.684  50.575  1.00  0.00    -0.026 A 
HETATM   10  C   UNL     1      22.941  43.766  50.171  1.00  0.00     0.051 C 
HETATM   11  C   UNL     1      24.102  45.994  50.074  1.00  0.00     0.039 A 
BRANCH   7  12
HETATM   12  C   UNL     1      27.130  44.704  52.781  1.00  0.00     0.183 A 
HETATM   13  O   UNL     1      27.421  45.491  53.867  1.00  0.00    -0.289 OA
HETATM   14  C   UNL     1      28.492  44.876  54.442  1.00  0.00     0.106 A 
HETATM   15  C   UNL     1      28.790  43.750  53.691  1.00  0.00     0.093 A 
HETATM   16  C   UNL     1      29.192  45.284  55.571  1.00  0.00     0.040 A 
HETATM   17  N   UNL     1      27.905  43.638  52.646  1.00  0.00    -0.221 NA
HETATM   18  C   UNL     1      29.875  42.951  54.069  1.00  0.00     0.034 A 
HETATM   19  C   UNL     1      30.612  43.330  55.202  1.00  0.00     0.002 A 
HETATM   20  C   UNL     1      30.273  44.474  55.938  1.00  0.00     0.003 A 
ENDBRANCH   7  12
BRANCH   8  21
HETATM   21  O   UNL     1      24.983  42.978  51.930  1.00  0.00    -0.359 OA
HETATM   22  H   UNL     1      25.001  42.989  52.910  1.00  0.00     0.218 HD
ENDBRANCH   8  21
ENDBRANCH   2   5
BRANCH   1  23
HETATM   23  N   UNL     1      23.044  48.314  48.634  1.00  0.00    -0.299 N 
HETATM   24  C   UNL     1      21.813  48.805  49.062  1.00  0.00     0.257 C 
HETATM   25  O   UNL     1      21.637  49.906  49.567  1.00  0.00    -0.267 OA
HETATM   26  H   UNL     1      23.007  47.755  47.791  1.00  0.00     0.171 HD
BRANCH  24  27
HETATM   27  C   UNL     1      20.649  47.911  48.783  1.00  0.00     0.035 A 
HETATM   28  C   UNL     1      20.886  46.580  48.418  1.00  0.00     0.053 A 
HETATM   29  C   UNL     1      19.823  45.723  48.116  1.00  0.00     0.069 A 
HETATM   30  C   UNL     1      18.513  46.203  48.183  1.00  0.00     0.037 A 
HETATM   31  C   UNL     1      18.268  47.533  48.530  1.00  0.00     0.004 A 
HETATM   32  C   UNL     1      19.331  48.388  48.821  1.00  0.00     0.017 A 
BRANCH  29  33
HETATM   33  O   UNL     1      20.188  44.449  47.772  1.00  0.00    -0.351 OA
BRANCH  33  34
HETATM   34  C   UNL     1      19.619  43.910  46.579  1.00  0.00     0.175 C 
BRANCH  34  35
HETATM   35  C   UNL     1      20.234  44.607  45.366  1.00  0.00     0.026 C 
BRANCH  35  36
HETATM   36  C   UNL     1      19.179  45.276  44.483  1.00  0.00    -0.002 C 
HETATM   37  C   UNL     1      19.301  46.791  44.526  1.00  0.00     0.005 C 
ENDBRANCH  35  36
ENDBRANCH  34  35
ENDBRANCH  33  34
ENDBRANCH  29  33
ENDBRANCH  24  27
ENDBRANCH   1  23
TORSDOF 9
ENDMDL
MODEL 7
REMARK VINA RESULT:      -8.8      2.905     10.423
REMARK  9 active torsions:
REMARK  status: ('A' for Active; 'I' for Inactive)
REMARK    1  A    between atoms: C_2  and  C_3 
REMARK    2  A    between atoms: C_3  and  C_4 
REMARK    3  A    between atoms: C_4  and  O_5 
REMARK    4  A    between atoms: O_5  and  C_6 
REMARK    5  A    between atoms: C_8  and  C_9 
REMARK       I    between atoms: C_9  and  N_10 
REMARK    6  A    between atoms: N_10  and  C_11 
REMARK    7  A    between atoms: N_12  and  C_13 
REMARK    8  A    between atoms: C_15  and  C_16 
REMARK    9  A    between atoms: C_25  and  O_26 
ROOT
HETATM    1  C   UNL     1      22.973  44.776  48.382  1.00  0.00     0.179 C 
HETATM    2  N   UNL     1      22.043  45.733  48.171  1.00  0.00    -0.333 N 
HETATM    3  S   UNL     1      22.952  43.418  47.399  1.00  0.00    -0.040 SA
HETATM    4  H   UNL     1      21.257  45.399  47.623  1.00  0.00     0.168 HD
ENDROOT
BRANCH   2   5
HETATM    5  C   UNL     1      22.037  47.122  48.418  1.00  0.00     0.035 A 
HETATM    6  C   UNL     1      20.895  47.855  48.739  1.00  0.00     0.048 A 
HETATM    7  C   UNL     1      20.943  49.248  48.919  1.00  0.00     0.053 A 
HETATM    8  C   UNL     1      22.195  49.886  48.869  1.00  0.00     0.086 A 
HETATM    9  C   UNL     1      23.368  49.161  48.620  1.00  0.00    -0.026 A 
HETATM   10  C   UNL     1      24.714  49.828  48.624  1.00  0.00     0.051 C 
HETATM   11  C   UNL     1      23.274  47.780  48.397  1.00  0.00     0.039 A 
BRANCH   7  12
HETATM   12  C   UNL     1      19.717  50.015  49.116  1.00  0.00     0.183 A 
HETATM   13  O   UNL     1      18.566  49.516  48.559  1.00  0.00    -0.289 OA
HETATM   14  C   UNL     1      17.631  50.471  48.826  1.00  0.00     0.106 A 
HETATM   15  C   UNL     1      18.252  51.488  49.535  1.00  0.00     0.093 A 
HETATM   16  C   UNL     1      16.292  50.465  48.459  1.00  0.00     0.040 A 
HETATM   17  N   UNL     1      19.576  51.179  49.732  1.00  0.00    -0.221 NA
HETATM   18  C   UNL     1      17.500  52.605  49.914  1.00  0.00     0.034 A 
HETATM   19  C   UNL     1      16.143  52.641  49.558  1.00  0.00     0.002 A 
HETATM   20  C   UNL     1      15.552  51.588  48.847  1.00  0.00     0.003 A 
ENDBRANCH   7  12
BRANCH   8  21
HETATM   21  O   UNL     1      22.327  51.240  49.066  1.00  0.00    -0.359 OA
HETATM   22  H   UNL     1      22.538  51.401  50.010  1.00  0.00     0.218 HD
ENDBRANCH   8  21
ENDBRANCH   2   5
BRANCH   1  23
HETATM   23  N   UNL     1      23.931  44.844  49.346  1.00  0.00    -0.299 N 
HETATM   24  C   UNL     1      23.974  44.265  50.612  1.00  0.00     0.257 C 
HETATM   25  O   UNL     1      23.268  43.336  50.981  1.00  0.00    -0.267 OA
HETATM   26  H   UNL     1      24.830  45.128  48.978  1.00  0.00     0.171 HD
BRANCH  24  27
HETATM   27  C   UNL     1      25.037  44.807  51.513  1.00  0.00     0.035 A 
HETATM   28  C   UNL     1      26.024  43.941  51.998  1.00  0.00     0.053 A 
HETATM   29  C   UNL     1      27.014  44.404  52.870  1.00  0.00     0.069 A 
HETATM   30  C   UNL     1      27.015  45.746  53.257  1.00  0.00     0.037 A 
HETATM   31  C   UNL     1      26.025  46.614  52.790  1.00  0.00     0.004 A 
HETATM   32  C   UNL     1      25.033  46.146  51.928  1.00  0.00     0.017 A 
BRANCH  29  33
HETATM   33  O   UNL     1      27.917  43.458  53.273  1.00  0.00    -0.351 OA
BRANCH  33  34
HETATM   34  C   UNL     1      29.147  43.386  52.551  1.00  0.00     0.175 C 
BRANCH  34  35
HETATM   35  C   UNL     1      30.243  42.852  53.473  1.00  0.00     0.026 C 
BRANCH  35  36
HETATM   36  C   UNL     1      29.874  42.981  54.951  1.00  0.00    -0.002 C 
HETATM   37  C   UNL     1      30.965  43.695  55.733  1.00  0.00     0.005 C 
ENDBRANCH  35  36
ENDBRANCH  34  35
ENDBRANCH  33  34
ENDBRANCH  29  33
ENDBRANCH  24  27
ENDBRANCH   1  23
TORSDOF 9
ENDMDL
MODEL 8
REMARK VINA RESULT:      -8.5      2.637      4.346
REMARK  9 active torsions:
REMARK  status: ('A' for Active; 'I' for Inactive)
REMARK    1  A    between atoms: C_2  and  C_3 
REMARK    2  A    between atoms: C_3  and  C_4 
REMARK    3  A    between atoms: C_4  and  O_5 
REMARK    4  A    between atoms: O_5  and  C_6 
REMARK    5  A    between atoms: C_8  and  C_9 
REMARK       I    between atoms: C_9  and  N_10 
REMARK    6  A    between atoms: N_10  and  C_11 
REMARK    7  A    between atoms: N_12  and  C_13 
REMARK    8  A    between atoms: C_15  and  C_16 
REMARK    9  A    between atoms: C_25  and  O_26 
ROOT
HETATM    1  C   UNL     1      23.788  42.726  48.127  1.00  0.00     0.179 C 
HETATM    2  N   UNL     1      24.995  43.040  48.646  1.00  0.00    -0.333 N 
HETATM    3  S   UNL     1      23.537  41.156  47.593  1.00  0.00    -0.040 SA
HETATM    4  H   UNL     1      25.713  42.365  48.400  1.00  0.00     0.168 HD
ENDROOT
BRANCH   2   5
HETATM    5  C   UNL     1      25.402  44.012  49.583  1.00  0.00     0.035 A 
HETATM    6  C   UNL     1      26.386  43.804  50.549  1.00  0.00     0.048 A 
HETATM    7  C   UNL     1      26.709  44.794  51.493  1.00  0.00     0.053 A 
HETATM    8  C   UNL     1      26.088  46.051  51.384  1.00  0.00     0.086 A 
HETATM    9  C   UNL     1      25.148  46.309  50.378  1.00  0.00    -0.026 A 
HETATM   10  C   UNL     1      24.526  47.667  50.220  1.00  0.00     0.051 C 
HETATM   11  C   UNL     1      24.816  45.280  49.484  1.00  0.00     0.039 A 
BRANCH   7  12
HETATM   12  C   UNL     1      27.639  44.509  52.582  1.00  0.00     0.183 A 
HETATM   13  O   UNL     1      27.612  45.347  53.669  1.00  0.00    -0.289 OA
HETATM   14  C   UNL     1      28.627  44.894  54.457  1.00  0.00     0.106 A 
HETATM   15  C   UNL     1      29.207  43.807  53.822  1.00  0.00     0.093 A 
HETATM   16  C   UNL     1      29.041  45.412  55.678  1.00  0.00     0.040 A 
HETATM   17  N   UNL     1      28.559  43.557  52.638  1.00  0.00    -0.221 NA
HETATM   18  C   UNL     1      30.296  43.171  54.429  1.00  0.00     0.034 A 
HETATM   19  C   UNL     1      30.750  43.666  55.661  1.00  0.00     0.002 A 
HETATM   20  C   UNL     1      30.130  44.764  56.273  1.00  0.00     0.003 A 
ENDBRANCH   7  12
BRANCH   8  21
HETATM   21  O   UNL     1      26.374  47.079  52.251  1.00  0.00    -0.359 OA
HETATM   22  H   UNL     1      25.572  47.278  52.778  1.00  0.00     0.218 HD
ENDBRANCH   8  21
ENDBRANCH   2   5
BRANCH   1  23
HETATM   23  N   UNL     1      22.758  43.606  48.008  1.00  0.00    -0.299 N 
HETATM   24  C   UNL     1      22.457  44.506  46.988  1.00  0.00     0.257 C 
HETATM   25  O   UNL     1      22.921  44.461  45.857  1.00  0.00    -0.267 OA
HETATM   26  H   UNL     1      21.980  43.375  48.612  1.00  0.00     0.171 HD
BRANCH  24  27
HETATM   27  C   UNL     1      21.425  45.528  47.338  1.00  0.00     0.035 A 
HETATM   28  C   UNL     1      21.838  46.822  47.680  1.00  0.00     0.053 A 
HETATM   29  C   UNL     1      20.903  47.796  48.046  1.00  0.00     0.069 A 
HETATM   30  C   UNL     1      19.545  47.471  48.068  1.00  0.00     0.037 A 
HETATM   31  C   UNL     1      19.126  46.179  47.744  1.00  0.00     0.004 A 
HETATM   32  C   UNL     1      20.061  45.207  47.389  1.00  0.00     0.017 A 
BRANCH  29  33
HETATM   33  O   UNL     1      21.435  49.018  48.359  1.00  0.00    -0.351 OA
BRANCH  33  34
HETATM   34  C   UNL     1      20.587  49.938  49.046  1.00  0.00     0.175 C 
BRANCH  34  35
HETATM   35  C   UNL     1      20.725  51.322  48.412  1.00  0.00     0.026 C 
BRANCH  35  36
HETATM   36  C   UNL     1      19.498  52.200  48.661  1.00  0.00    -0.002 C 
HETATM   37  C   UNL     1      18.648  51.652  49.797  1.00  0.00     0.005 C 
ENDBRANCH  35  36
ENDBRANCH  34  35
ENDBRANCH  33  34
ENDBRANCH  29  33
ENDBRANCH  24  27
ENDBRANCH   1  23
TORSDOF 9
ENDMDL
MODEL 9
REMARK VINA RESULT:      -8.5      3.414      8.571
REMARK  9 active torsions:
REMARK  status: ('A' for Active; 'I' for Inactive)
REMARK    1  A    between atoms: C_2  and  C_3 
REMARK    2  A    between atoms: C_3  and  C_4 
REMARK    3  A    between atoms: C_4  and  O_5 
REMARK    4  A    between atoms: O_5  and  C_6 
REMARK    5  A    between atoms: C_8  and  C_9 
REMARK       I    between atoms: C_9  and  N_10 
REMARK    6  A    between atoms: N_10  and  C_11 
REMARK    7  A    between atoms: N_12  and  C_13 
REMARK    8  A    between atoms: C_15  and  C_16 
REMARK    9  A    between atoms: C_25  and  O_26 
ROOT
HETATM    1  C   UNL     1      25.320  45.077  52.261  1.00  0.00     0.179 C 
HETATM    2  N   UNL     1      25.844  46.281  51.944  1.00  0.00    -0.333 N 
HETATM    3  S   UNL     1      25.365  44.588  53.864  1.00  0.00    -0.040 SA
HETATM    4  H   UNL     1      26.461  46.640  52.666  1.00  0.00     0.168 HD
ENDROOT
BRANCH   2   5
HETATM    5  C   UNL     1      25.570  47.191  50.902  1.00  0.00     0.035 A 
HETATM    6  C   UNL     1      24.288  47.490  50.441  1.00  0.00     0.048 A 
HETATM    7  C   UNL     1      24.083  48.364  49.359  1.00  0.00     0.053 A 
HETATM    8  C   UNL     1      25.197  49.021  48.808  1.00  0.00     0.086 A 
HETATM    9  C   UNL     1      26.488  48.792  49.301  1.00  0.00    -0.026 A 
HETATM   10  C   UNL     1      27.675  49.535  48.755  1.00  0.00     0.051 C 
HETATM   11  C   UNL     1      26.660  47.876  50.349  1.00  0.00     0.039 A 
BRANCH   7  12
HETATM   12  C   UNL     1      22.747  48.556  48.802  1.00  0.00     0.183 A 
HETATM   13  O   UNL     1      21.762  48.981  49.657  1.00  0.00    -0.289 OA
HETATM   14  C   UNL     1      20.637  48.980  48.889  1.00  0.00     0.106 A 
HETATM   15  C   UNL     1      20.992  48.570  47.614  1.00  0.00     0.093 A 
HETATM   16  C   UNL     1      19.347  49.314  49.284  1.00  0.00     0.040 A 
HETATM   17  N   UNL     1      22.342  48.321  47.562  1.00  0.00    -0.221 NA
HETATM   18  C   UNL     1      19.998  48.467  46.634  1.00  0.00     0.034 A 
HETATM   19  C   UNL     1      18.680  48.790  46.993  1.00  0.00     0.002 A 
HETATM   20  C   UNL     1      18.364  49.208  48.293  1.00  0.00     0.003 A 
ENDBRANCH   7  12
BRANCH   8  21
HETATM   21  O   UNL     1      25.072  49.913  47.770  1.00  0.00    -0.359 OA
HETATM   22  H   UNL     1      24.131  50.175  47.693  1.00  0.00     0.218 HD
ENDBRANCH   8  21
ENDBRANCH   2   5
BRANCH   1  23
HETATM   23  N   UNL     1      24.755  44.231  51.358  1.00  0.00    -0.299 N 
HETATM   24  C   UNL     1      25.254  43.065  50.784  1.00  0.00     0.257 C 
HETATM   25  O   UNL     1      26.203  42.423  51.216  1.00  0.00    -0.267 OA
HETATM   26  H   UNL     1      23.748  44.327  51.316  1.00  0.00     0.171 HD
BRANCH  24  27
HETATM   27  C   UNL     1      24.484  42.566  49.604  1.00  0.00     0.035 A 
HETATM   28  C   UNL     1      23.323  43.245  49.214  1.00  0.00     0.053 A 
HETATM   29  C   UNL     1      22.558  42.788  48.136  1.00  0.00     0.069 A 
HETATM   30  C   UNL     1      22.961  41.644  47.443  1.00  0.00     0.037 A 
HETATM   31  C   UNL     1      24.109  40.952  47.836  1.00  0.00     0.004 A 
HETATM   32  C   UNL     1      24.864  41.404  48.917  1.00  0.00     0.017 A 
BRANCH  29  33
HETATM   33  O   UNL     1      21.447  43.538  47.858  1.00  0.00    -0.351 OA
BRANCH  33  34
HETATM   34  C   UNL     1      21.468  44.905  48.268  1.00  0.00     0.175 C 
BRANCH  34  35
HETATM   35  C   UNL     1      20.060  45.330  48.684  1.00  0.00     0.026 C 
BRANCH  35  36
HETATM   36  C   UNL     1      19.016  45.011  47.612  1.00  0.00    -0.002 C 
HETATM   37  C   UNL     1      17.641  45.523  48.011  1.00  0.00     0.005 C 
ENDBRANCH  35  36
ENDBRANCH  34  35
ENDBRANCH  33  34
ENDBRANCH  29  33
ENDBRANCH  24  27
ENDBRANCH   1  23
TORSDOF 9
ENDMDL
MODEL 10
REMARK VINA RESULT:      -8.4     16.899     19.510
REMARK  9 active torsions:
REMARK  status: ('A' for Active; 'I' for Inactive)
REMARK    1  A    between atoms: C_2  and  C_3 
REMARK    2  A    between atoms: C_3  and  C_4 
REMARK    3  A    between atoms: C_4  and  O_5 
REMARK    4  A    between atoms: O_5  and  C_6 
REMARK    5  A    between atoms: C_8  and  C_9 
REMARK       I    between atoms: C_9  and  N_10 
REMARK    6  A    between atoms: N_10  and  C_11 
REMARK    7  A    between atoms: N_12  and  C_13 
REMARK    8  A    between atoms: C_15  and  C_16 
REMARK    9  A    between atoms: C_25  and  O_26 
ROOT
HETATM    1  C   UNL     1      35.866  46.877  68.915  1.00  0.00     0.179 C 
HETATM    2  N   UNL     1      35.512  46.041  67.915  1.00  0.00    -0.333 N 
HETATM    3  S   UNL     1      35.541  46.411  70.492  1.00  0.00    -0.040 SA
HETATM    4  H   UNL     1      34.833  45.346  68.210  1.00  0.00     0.168 HD
ENDROOT
BRANCH   2   5
HETATM    5  C   UNL     1      36.020  45.848  66.613  1.00  0.00     0.035 A 
HETATM    6  C   UNL     1      36.455  44.619  66.118  1.00  0.00     0.048 A 
HETATM    7  C   UNL     1      37.005  44.501  64.829  1.00  0.00     0.053 A 
HETATM    8  C   UNL     1      37.017  45.636  63.999  1.00  0.00     0.086 A 
HETATM    9  C   UNL     1      36.520  46.866  64.449  1.00  0.00    -0.026 A 
HETATM   10  C   UNL     1      36.475  48.066  63.547  1.00  0.00     0.051 C 
HETATM   11  C   UNL     1      36.023  46.957  65.758  1.00  0.00     0.039 A 
BRANCH   7  12
HETATM   12  C   UNL     1      37.583  43.237  64.381  1.00  0.00     0.183 A 
HETATM   13  O   UNL     1      37.984  42.350  65.348  1.00  0.00    -0.289 OA
HETATM   14  C   UNL     1      38.550  41.330  64.643  1.00  0.00     0.106 A 
HETATM   15  C   UNL     1      38.456  41.640  63.296  1.00  0.00     0.093 A 
HETATM   16  C   UNL     1      39.137  40.178  65.153  1.00  0.00     0.040 A 
HETATM   17  N   UNL     1      37.821  42.847  63.137  1.00  0.00    -0.221 NA
HETATM   18  C   UNL     1      38.990  40.749  62.357  1.00  0.00     0.034 A 
HETATM   19  C   UNL     1      39.596  39.575  62.830  1.00  0.00     0.002 A 
HETATM   20  C   UNL     1      39.664  39.296  64.202  1.00  0.00     0.003 A 
ENDBRANCH   7  12
BRANCH   8  21
HETATM   21  O   UNL     1      37.510  45.591  62.717  1.00  0.00    -0.359 OA
HETATM   22  H   UNL     1      38.416  45.964  62.716  1.00  0.00     0.218 HD
ENDBRANCH   8  21
ENDBRANCH   2   5
BRANCH   1  23
HETATM   23  N   UNL     1      36.473  48.079  68.723  1.00  0.00    -0.299 N 
HETATM   24  C   UNL     1      35.954  49.369  68.791  1.00  0.00     0.257 C 
HETATM   25  O   UNL     1      34.896  49.670  69.328  1.00  0.00    -0.267 OA
HETATM   26  H   UNL     1      37.480  48.023  68.812  1.00  0.00     0.171 HD
BRANCH  24  27
HETATM   27  C   UNL     1      36.836  50.432  68.220  1.00  0.00     0.035 A 
HETATM   28  C   UNL     1      37.710  50.102  67.177  1.00  0.00     0.053 A 
HETATM   29  C   UNL     1      38.575  51.061  66.640  1.00  0.00     0.069 A 
HETATM   30  C   UNL     1      38.562  52.361  67.151  1.00  0.00     0.037 A 
HETATM   31  C   UNL     1      37.704  52.695  68.202  1.00  0.00     0.004 A 
HETATM   32  C   UNL     1      36.850  51.733  68.742  1.00  0.00     0.017 A 
BRANCH  29  33
HETATM   33  O   UNL     1      39.379  50.611  65.628  1.00  0.00    -0.351 OA
BRANCH  33  34
HETATM   34  C   UNL     1      39.044  49.353  65.043  1.00  0.00     0.175 C 
BRANCH  34  35
HETATM   35  C   UNL     1      40.322  48.551  64.802  1.00  0.00     0.026 C 
BRANCH  35  36
HETATM   36  C   UNL     1      40.169  47.081  65.196  1.00  0.00    -0.002 C 
HETATM   37  C   UNL     1      39.618  46.941  66.607  1.00  0.00     0.005 C 
ENDBRANCH  35  36
ENDBRANCH  34  35
ENDBRANCH  33  34
ENDBRANCH  29  33
ENDBRANCH  24  27
ENDBRANCH   1  23
TORSDOF 9
ENDMDL
