MODEL 1
REMARK VINA RESULT:      -9.7      0.000      0.000
REMARK  9 active torsions:
REMARK  status: ('A' for Active; 'I' for Inactive)
REMARK    1  A    between atoms: C_5  and  N_6 
REMARK       I    between atoms: N_6  and  C_7 
REMARK    2  A    between atoms: C_7  and  C_8 
REMARK    3  A    between atoms: C_8  and  S_9 
REMARK    4  A    between atoms: S_9  and  C_10 
REMARK    5  A    between atoms: C_11  and  C_12 
REMARK       I    between atoms: C_12  and  N_13 
REMARK    6  A    between atoms: N_13  and  C_14 
REMARK    7  A    between atoms: C_14  and  C_15 
REMARK    8  A    between atoms: C_15  and  N_16 
REMARK    9  A    between atoms: C_15  and  C_22 
ROOT
HETATM    1  C   UNL     1      25.511  47.809  49.721  1.00  0.00     0.016 A 
HETATM    2  C   UNL     1      24.779  48.850  49.096  1.00  0.00     0.048 A 
HETATM    3  C   UNL     1      25.449  49.892  48.426  1.00  0.00     0.018 A 
HETATM    4  C   UNL     1      26.839  49.951  48.414  1.00  0.00     0.001 A 
HETATM    5  C   UNL     1      27.568  48.969  49.070  1.00  0.00     0.001 A 
HETATM    6  C   UNL     1      26.912  47.912  49.713  1.00  0.00     0.019 A 
ENDROOT
BRANCH   2   7
HETATM    7  C   UNL     1      23.295  49.021  49.176  1.00  0.00     0.253 C 
HETATM    8  N   UNL     1      22.560  48.201  48.359  1.00  0.00    -0.354 N 
HETATM    9  H   UNL     1      23.062  47.670  47.651  1.00  0.00     0.162 HD
HETATM   10  O   UNL     1      22.755  49.717  50.031  1.00  0.00    -0.268 OA
BRANCH   8  11
HETATM   11  C   UNL     1      21.116  48.132  48.375  1.00  0.00     0.161 C 
BRANCH  11  12
HETATM   12  C   UNL     1      20.345  49.438  48.011  1.00  0.00     0.245 C 
BRANCH  12  13
HETATM   13  N   UNL     1      19.793  50.173  49.233  1.00  0.00    -0.061 N 
HETATM   14  H   UNL     1      20.424  49.916  50.007  1.00  0.00     0.280 HD
HETATM   15  C   UNL     1      18.425  49.812  49.778  1.00  0.00     0.236 C 
HETATM   16  C   UNL     1      17.579  51.048  49.547  1.00  0.00     0.029 C 
HETATM   17  C   UNL     1      18.568  52.170  49.786  1.00  0.00     0.029 C 
HETATM   18  C   UNL     1      19.812  51.683  49.072  1.00  0.00     0.236 C 
ENDBRANCH  12  13
BRANCH  12  19
HETATM   19  C   UNL     1      19.419  49.320  46.811  1.00  0.00     0.015 A 
HETATM   20  S   UNL     1      18.860  47.809  46.210  1.00  0.00    -0.104 SA
HETATM   21  C   UNL     1      17.973  48.537  44.953  1.00  0.00     0.050 A 
HETATM   22  C   UNL     1      18.109  49.904  44.956  1.00  0.00     0.008 A 
HETATM   23  C   UNL     1      18.941  50.356  46.021  1.00  0.00     0.017 A 
ENDBRANCH  12  19
ENDBRANCH  11  12
ENDBRANCH   8  11
ENDBRANCH   2   7
BRANCH   1  24
HETATM   24  S   UNL     1      24.666  46.411  50.495  1.00  0.00    -0.120 SA
BRANCH  24  25
HETATM   25  C   UNL     1      25.947  45.472  51.412  1.00  0.00     0.182 C 
BRANCH  25  26
HETATM   26  C   UNL     1      25.392  44.236  52.109  1.00  0.00     0.231 C 
HETATM   27  N   UNL     1      26.198  43.449  52.884  1.00  0.00    -0.327 N 
HETATM   28  H   UNL     1      25.805  42.520  53.000  1.00  0.00     0.169 HD
HETATM   29  O   UNL     1      24.262  43.804  51.864  1.00  0.00    -0.272 OA
BRANCH  27  30
HETATM   30  C   UNL     1      27.380  43.700  53.595  1.00  0.00     0.034 A 
HETATM   31  C   UNL     1      27.548  44.766  54.476  1.00  0.00     0.030 A 
HETATM   32  C   UNL     1      28.740  44.903  55.200  1.00  0.00     0.009 A 
HETATM   33  C   UNL     1      29.776  43.975  55.055  1.00  0.00    -0.062 A 
HETATM   34  C   UNL     1      31.034  44.090  55.864  1.00  0.00     0.048 C 
HETATM   35  C   UNL     1      29.591  42.888  54.197  1.00  0.00     0.009 A 
HETATM   36  C   UNL     1      28.399  42.747  53.483  1.00  0.00     0.030 A 
ENDBRANCH  27  30
ENDBRANCH  25  26
ENDBRANCH  24  25
ENDBRANCH   1  24
TORSDOF 9
ENDMDL
MODEL 2
REMARK VINA RESULT:      -9.4      2.079      3.107
REMARK  9 active torsions:
REMARK  status: ('A' for Active; 'I' for Inactive)
REMARK    1  A    between atoms: C_5  and  N_6 
REMARK       I    between atoms: N_6  and  C_7 
REMARK    2  A    between atoms: C_7  and  C_8 
REMARK    3  A    between atoms: C_8  and  S_9 
REMARK    4  A    between atoms: S_9  and  C_10 
REMARK    5  A    between atoms: C_11  and  C_12 
REMARK       I    between atoms: C_12  and  N_13 
REMARK    6  A    between atoms: N_13  and  C_14 
REMARK    7  A    between atoms: C_14  and  C_15 
REMARK    8  A    between atoms: C_15  and  N_16 
REMARK    9  A    between atoms: C_15  and  C_22 
ROOT
HETATM    1  C   UNL     1      25.596  47.834  49.825  1.00  0.00     0.016 A 
HETATM    2  C   UNL     1      24.880  48.844  49.133  1.00  0.00     0.048 A 
HETATM    3  C   UNL     1      25.566  49.830  48.398  1.00  0.00     0.018 A 
HETATM    4  C   UNL     1      26.957  49.866  48.384  1.00  0.00     0.001 A 
HETATM    5  C   UNL     1      27.670  48.918  49.103  1.00  0.00     0.001 A 
HETATM    6  C   UNL     1      26.998  47.915  49.812  1.00  0.00     0.019 A 
ENDROOT
BRANCH   2   7
HETATM    7  C   UNL     1      23.399  49.042  49.200  1.00  0.00     0.253 C 
HETATM    8  N   UNL     1      22.646  48.112  48.530  1.00  0.00    -0.354 N 
HETATM    9  H   UNL     1      23.134  47.470  47.909  1.00  0.00     0.162 HD
HETATM   10  O   UNL     1      22.876  49.870  49.940  1.00  0.00    -0.268 OA
BRANCH   8  11
HETATM   11  C   UNL     1      21.202  48.063  48.571  1.00  0.00     0.161 C 
BRANCH  11  12
HETATM   12  C   UNL     1      20.529  46.744  48.079  1.00  0.00     0.245 C 
BRANCH  12  13
HETATM   13  N   UNL     1      19.173  46.477  48.735  1.00  0.00    -0.061 N 
HETATM   14  H   UNL     1      19.375  45.827  49.510  1.00  0.00     0.280 HD
HETATM   15  C   UNL     1      18.088  45.756  47.961  1.00  0.00     0.236 C 
HETATM   16  C   UNL     1      16.992  46.786  47.781  1.00  0.00     0.029 C 
HETATM   17  C   UNL     1      17.050  47.556  49.084  1.00  0.00     0.029 C 
HETATM   18  C   UNL     1      18.538  47.733  49.306  1.00  0.00     0.236 C 
ENDBRANCH  12  13
BRANCH  12  19
HETATM   19  C   UNL     1      21.469  45.556  47.951  1.00  0.00     0.015 A 
HETATM   20  S   UNL     1      22.198  45.101  46.461  1.00  0.00    -0.104 SA
HETATM   21  C   UNL     1      23.006  43.775  47.159  1.00  0.00     0.050 A 
HETATM   22  C   UNL     1      22.717  43.648  48.496  1.00  0.00     0.008 A 
HETATM   23  C   UNL     1      21.833  44.668  48.953  1.00  0.00     0.017 A 
ENDBRANCH  12  19
ENDBRANCH  11  12
ENDBRANCH   8  11
ENDBRANCH   2   7
BRANCH   1  24
HETATM   24  S   UNL     1      24.729  46.502  50.687  1.00  0.00    -0.120 SA
BRANCH  24  25
HETATM   25  C   UNL     1      26.004  45.272  51.158  1.00  0.00     0.182 C 
BRANCH  25  26
HETATM   26  C   UNL     1      25.425  44.065  51.887  1.00  0.00     0.231 C 
HETATM   27  N   UNL     1      26.204  43.310  52.718  1.00  0.00    -0.327 N 
HETATM   28  H   UNL     1      25.806  42.386  52.860  1.00  0.00     0.169 HD
HETATM   29  O   UNL     1      24.302  43.625  51.624  1.00  0.00    -0.272 OA
BRANCH  27  30
HETATM   30  C   UNL     1      27.364  43.588  53.454  1.00  0.00     0.034 A 
HETATM   31  C   UNL     1      27.488  44.657  54.339  1.00  0.00     0.030 A 
HETATM   32  C   UNL     1      28.660  44.822  55.090  1.00  0.00     0.009 A 
HETATM   33  C   UNL     1      29.721  43.918  54.966  1.00  0.00    -0.062 A 
HETATM   34  C   UNL     1      30.958  44.062  55.804  1.00  0.00     0.048 C 
HETATM   35  C   UNL     1      29.580  42.827  54.105  1.00  0.00     0.009 A 
HETATM   36  C   UNL     1      28.408  42.659  53.365  1.00  0.00     0.030 A 
ENDBRANCH  27  30
ENDBRANCH  25  26
ENDBRANCH  24  25
ENDBRANCH   1  24
TORSDOF 9
ENDMDL
MODEL 3
REMARK VINA RESULT:      -9.3      1.789      2.281
REMARK  9 active torsions:
REMARK  status: ('A' for Active; 'I' for Inactive)
REMARK    1  A    between atoms: C_5  and  N_6 
REMARK       I    between atoms: N_6  and  C_7 
REMARK    2  A    between atoms: C_7  and  C_8 
REMARK    3  A    between atoms: C_8  and  S_9 
REMARK    4  A    between atoms: S_9  and  C_10 
REMARK    5  A    between atoms: C_11  and  C_12 
REMARK       I    between atoms: C_12  and  N_13 
REMARK    6  A    between atoms: N_13  and  C_14 
REMARK    7  A    between atoms: C_14  and  C_15 
REMARK    8  A    between atoms: C_15  and  N_16 
REMARK    9  A    between atoms: C_15  and  C_22 
ROOT
HETATM    1  C   UNL     1      25.599  47.931  49.779  1.00  0.00     0.016 A 
HETATM    2  C   UNL     1      24.706  48.828  49.138  1.00  0.00     0.048 A 
HETATM    3  C   UNL     1      25.198  49.867  48.325  1.00  0.00     0.018 A 
HETATM    4  C   UNL     1      26.567  50.069  48.182  1.00  0.00     0.001 A 
HETATM    5  C   UNL     1      27.452  49.235  48.848  1.00  0.00     0.001 A 
HETATM    6  C   UNL     1      26.974  48.179  49.635  1.00  0.00     0.019 A 
ENDROOT
BRANCH   2   7
HETATM    7  C   UNL     1      23.224  48.849  49.338  1.00  0.00     0.253 C 
HETATM    8  N   UNL     1      22.527  47.849  48.709  1.00  0.00    -0.354 N 
HETATM    9  H   UNL     1      23.029  47.281  48.030  1.00  0.00     0.162 HD
HETATM   10  O   UNL     1      22.676  49.596  50.144  1.00  0.00    -0.268 OA
BRANCH   8  11
HETATM   11  C   UNL     1      21.108  47.629  48.873  1.00  0.00     0.161 C 
BRANCH  11  12
HETATM   12  C   UNL     1      20.195  47.992  47.660  1.00  0.00     0.245 C 
BRANCH  12  13
HETATM   13  N   UNL     1      19.517  49.354  47.801  1.00  0.00    -0.061 N 
HETATM   14  H   UNL     1      18.645  49.277  47.255  1.00  0.00     0.280 HD
HETATM   15  C   UNL     1      20.174  50.590  47.217  1.00  0.00     0.236 C 
HETATM   16  C   UNL     1      20.527  51.443  48.418  1.00  0.00     0.029 C 
HETATM   17  C   UNL     1      19.365  51.186  49.355  1.00  0.00     0.029 C 
HETATM   18  C   UNL     1      19.161  49.690  49.239  1.00  0.00     0.236 C 
ENDBRANCH  12  13
BRANCH  12  19
HETATM   19  C   UNL     1      19.331  46.850  47.148  1.00  0.00     0.015 A 
HETATM   20  S   UNL     1      17.736  47.084  46.551  1.00  0.00    -0.104 SA
HETATM   21  C   UNL     1      17.514  45.425  46.238  1.00  0.00     0.050 A 
HETATM   22  C   UNL     1      18.614  44.686  46.601  1.00  0.00     0.008 A 
HETATM   23  C   UNL     1      19.658  45.502  47.125  1.00  0.00     0.017 A 
ENDBRANCH  12  19
ENDBRANCH  11  12
ENDBRANCH   8  11
ENDBRANCH   2   7
BRANCH   1  24
HETATM   24  S   UNL     1      24.981  46.530  50.741  1.00  0.00    -0.120 SA
BRANCH  24  25
HETATM   25  C   UNL     1      26.240  46.191  52.031  1.00  0.00     0.182 C 
BRANCH  25  26
HETATM   26  C   UNL     1      26.017  46.997  53.305  1.00  0.00     0.231 C 
HETATM   27  N   UNL     1      26.599  46.620  54.482  1.00  0.00    -0.327 N 
HETATM   28  H   UNL     1      26.116  47.023  55.279  1.00  0.00     0.169 HD
HETATM   29  O   UNL     1      25.178  47.900  53.364  1.00  0.00    -0.272 OA
BRANCH  27  30
HETATM   30  C   UNL     1      27.749  45.877  54.784  1.00  0.00     0.034 A 
HETATM   31  C   UNL     1      28.809  46.358  55.550  1.00  0.00     0.030 A 
HETATM   32  C   UNL     1      29.891  45.524  55.864  1.00  0.00     0.009 A 
HETATM   33  C   UNL     1      29.924  44.198  55.419  1.00  0.00    -0.062 A 
HETATM   34  C   UNL     1      31.055  43.286  55.794  1.00  0.00     0.048 C 
HETATM   35  C   UNL     1      28.843  43.708  54.681  1.00  0.00     0.009 A 
HETATM   36  C   UNL     1      27.762  44.537  54.377  1.00  0.00     0.030 A 
ENDBRANCH  27  30
ENDBRANCH  25  26
ENDBRANCH  24  25
ENDBRANCH   1  24
TORSDOF 9
ENDMDL
MODEL 4
REMARK VINA RESULT:      -9.1      2.437      4.040
REMARK  9 active torsions:
REMARK  status: ('A' for Active; 'I' for Inactive)
REMARK    1  A    between atoms: C_5  and  N_6 
REMARK       I    between atoms: N_6  and  C_7 
REMARK    2  A    between atoms: C_7  and  C_8 
REMARK    3  A    between atoms: C_8  and  S_9 
REMARK    4  A    between atoms: S_9  and  C_10 
REMARK    5  A    between atoms: C_11  and  C_12 
REMARK       I    between atoms: C_12  and  N_13 
REMARK    6  A    between atoms: N_13  and  C_14 
REMARK    7  A    between atoms: C_14  and  C_15 
REMARK    8  A    between atoms: C_15  and  N_16 
REMARK    9  A    between atoms: C_15  and  C_22 
ROOT
HETATM    1  C   UNL     1      24.909  45.184  51.741  1.00  0.00     0.016 A 
HETATM    2  C   UNL     1      25.262  46.542  51.532  1.00  0.00     0.048 A 
HETATM    3  C   UNL     1      25.905  47.277  52.546  1.00  0.00     0.018 A 
HETATM    4  C   UNL     1      26.152  46.705  53.790  1.00  0.00     0.001 A 
HETATM    5  C   UNL     1      25.762  45.395  54.028  1.00  0.00     0.001 A 
HETATM    6  C   UNL     1      25.150  44.645  53.016  1.00  0.00     0.019 A 
ENDROOT
BRANCH   2   7
HETATM    7  C   UNL     1      24.903  47.343  50.321  1.00  0.00     0.253 C 
HETATM    8  N   UNL     1      23.571  47.631  50.176  1.00  0.00    -0.354 N 
HETATM    9  H   UNL     1      22.916  47.150  50.788  1.00  0.00     0.162 HD
HETATM   10  O   UNL     1      25.749  47.859  49.595  1.00  0.00    -0.268 OA
BRANCH   8  11
HETATM   11  C   UNL     1      23.039  48.488  49.140  1.00  0.00     0.161 C 
BRANCH  11  12
HETATM   12  C   UNL     1      21.504  48.403  48.875  1.00  0.00     0.245 C 
BRANCH  12  13
HETATM   13  N   UNL     1      21.148  47.552  47.655  1.00  0.00    -0.061 N 
HETATM   14  H   UNL     1      21.224  48.193  46.851  1.00  0.00     0.280 HD
HETATM   15  C   UNL     1      19.748  46.990  47.509  1.00  0.00     0.236 C 
HETATM   16  C   UNL     1      19.923  45.488  47.609  1.00  0.00     0.029 C 
HETATM   17  C   UNL     1      21.248  45.266  46.910  1.00  0.00     0.029 C 
HETATM   18  C   UNL     1      22.107  46.393  47.445  1.00  0.00     0.236 C 
ENDBRANCH  12  13
BRANCH  12  19
HETATM   19  C   UNL     1      20.756  49.717  49.031  1.00  0.00     0.015 A 
HETATM   20  S   UNL     1      19.538  49.961  50.220  1.00  0.00    -0.104 SA
HETATM   21  C   UNL     1      19.242  51.560  49.718  1.00  0.00     0.050 A 
HETATM   22  C   UNL     1      20.026  51.912  48.646  1.00  0.00     0.008 A 
HETATM   23  C   UNL     1      20.895  50.855  48.249  1.00  0.00     0.017 A 
ENDBRANCH  12  19
ENDBRANCH  11  12
ENDBRANCH   8  11
ENDBRANCH   2   7
BRANCH   1  24
HETATM   24  S   UNL     1      24.179  44.197  50.414  1.00  0.00    -0.120 SA
BRANCH  24  25
HETATM   25  C   UNL     1      24.408  42.440  50.888  1.00  0.00     0.182 C 
BRANCH  25  26
HETATM   26  C   UNL     1      25.387  41.703  49.982  1.00  0.00     0.231 C 
HETATM   27  N   UNL     1      26.736  41.852  50.143  1.00  0.00    -0.327 N 
HETATM   28  H   UNL     1      27.240  41.591  49.300  1.00  0.00     0.169 HD
HETATM   29  O   UNL     1      25.011  41.096  48.976  1.00  0.00    -0.272 OA
BRANCH  27  30
HETATM   30  C   UNL     1      27.535  42.202  51.241  1.00  0.00     0.034 A 
HETATM   31  C   UNL     1      28.095  43.464  51.427  1.00  0.00     0.030 A 
HETATM   32  C   UNL     1      28.822  43.751  52.590  1.00  0.00     0.009 A 
HETATM   33  C   UNL     1      28.996  42.781  53.582  1.00  0.00    -0.062 A 
HETATM   34  C   UNL     1      29.732  43.098  54.851  1.00  0.00     0.048 C 
HETATM   35  C   UNL     1      28.404  41.527  53.410  1.00  0.00     0.009 A 
HETATM   36  C   UNL     1      27.671  41.245  52.255  1.00  0.00     0.030 A 
ENDBRANCH  27  30
ENDBRANCH  25  26
ENDBRANCH  24  25
ENDBRANCH   1  24
TORSDOF 9
ENDMDL
MODEL 5
REMARK VINA RESULT:      -9.1      1.339      2.039
REMARK  9 active torsions:
REMARK  status: ('A' for Active; 'I' for Inactive)
REMARK    1  A    between atoms: C_5  and  N_6 
REMARK       I    between atoms: N_6  and  C_7 
REMARK    2  A    between atoms: C_7  and  C_8 
REMARK    3  A    between atoms: C_8  and  S_9 
REMARK    4  A    between atoms: S_9  and  C_10 
REMARK    5  A    between atoms: C_11  and  C_12 
REMARK       I    between atoms: C_12  and  N_13 
REMARK    6  A    between atoms: N_13  and  C_14 
REMARK    7  A    between atoms: C_14  and  C_15 
REMARK    8  A    between atoms: C_15  and  N_16 
REMARK    9  A    between atoms: C_15  and  C_22 
ROOT
HETATM    1  C   UNL     1      25.455  47.959  49.516  1.00  0.00     0.016 A 
HETATM    2  C   UNL     1      24.877  49.024  48.779  1.00  0.00     0.048 A 
HETATM    3  C   UNL     1      25.688  50.038  48.233  1.00  0.00     0.018 A 
HETATM    4  C   UNL     1      27.061  50.045  48.455  1.00  0.00     0.001 A 
HETATM    5  C   UNL     1      27.633  49.041  49.222  1.00  0.00     0.001 A 
HETATM    6  C   UNL     1      26.841  48.010  49.743  1.00  0.00     0.019 A 
ENDROOT
BRANCH   2   7
HETATM    7  C   UNL     1      23.408  49.249  48.609  1.00  0.00     0.253 C 
HETATM    8  N   UNL     1      22.654  49.119  49.746  1.00  0.00    -0.354 N 
HETATM    9  H   UNL     1      23.105  48.722  50.567  1.00  0.00     0.162 HD
HETATM   10  O   UNL     1      22.923  49.688  47.570  1.00  0.00    -0.268 OA
BRANCH   8  11
HETATM   11  C   UNL     1      21.239  49.410  49.813  1.00  0.00     0.161 C 
BRANCH  11  12
HETATM   12  C   UNL     1      20.382  49.021  48.568  1.00  0.00     0.245 C 
BRANCH  12  13
HETATM   13  N   UNL     1      19.199  49.961  48.334  1.00  0.00    -0.061 N 
HETATM   14  H   UNL     1      18.507  49.397  47.817  1.00  0.00     0.280 HD
HETATM   15  C   UNL     1      19.367  51.182  47.451  1.00  0.00     0.236 C 
HETATM   16  C   UNL     1      19.195  52.362  48.387  1.00  0.00     0.029 C 
HETATM   17  C   UNL     1      18.130  51.867  49.344  1.00  0.00     0.029 C 
HETATM   18  C   UNL     1      18.564  50.444  49.626  1.00  0.00     0.236 C 
ENDBRANCH  12  13
BRANCH  12  19
HETATM   19  C   UNL     1      20.110  47.533  48.420  1.00  0.00     0.015 A 
HETATM   20  S   UNL     1      18.522  46.882  48.314  1.00  0.00    -0.104 SA
HETATM   21  C   UNL     1      19.090  45.281  48.198  1.00  0.00     0.050 A 
HETATM   22  C   UNL     1      20.461  45.220  48.265  1.00  0.00     0.008 A 
HETATM   23  C   UNL     1      21.049  46.512  48.394  1.00  0.00     0.017 A 
ENDBRANCH  12  19
ENDBRANCH  11  12
ENDBRANCH   8  11
ENDBRANCH   2   7
BRANCH   1  24
HETATM   24  S   UNL     1      24.441  46.595  50.134  1.00  0.00    -0.120 SA
BRANCH  24  25
HETATM   25  C   UNL     1      25.598  45.384  50.879  1.00  0.00     0.182 C 
BRANCH  25  26
HETATM   26  C   UNL     1      24.887  44.292  51.670  1.00  0.00     0.231 C 
HETATM   27  N   UNL     1      25.591  43.436  52.469  1.00  0.00    -0.327 N 
HETATM   28  H   UNL     1      25.065  42.588  52.656  1.00  0.00     0.169 HD
HETATM   29  O   UNL     1      23.695  44.029  51.486  1.00  0.00    -0.272 OA
BRANCH  27  30
HETATM   30  C   UNL     1      26.825  43.540  53.127  1.00  0.00     0.034 A 
HETATM   31  C   UNL     1      27.156  44.570  54.005  1.00  0.00     0.030 A 
HETATM   32  C   UNL     1      28.386  44.560  54.676  1.00  0.00     0.009 A 
HETATM   33  C   UNL     1      29.299  43.518  54.479  1.00  0.00    -0.062 A 
HETATM   34  C   UNL     1      30.596  43.477  55.232  1.00  0.00     0.048 C 
HETATM   35  C   UNL     1      28.950  42.469  53.626  1.00  0.00     0.009 A 
HETATM   36  C   UNL     1      27.720  42.475  52.965  1.00  0.00     0.030 A 
ENDBRANCH  27  30
ENDBRANCH  25  26
ENDBRANCH  24  25
ENDBRANCH   1  24
TORSDOF 9
ENDMDL
MODEL 6
REMARK VINA RESULT:      -9.0      1.652      2.808
REMARK  9 active torsions:
REMARK  status: ('A' for Active; 'I' for Inactive)
REMARK    1  A    between atoms: C_5  and  N_6 
REMARK       I    between atoms: N_6  and  C_7 
REMARK    2  A    between atoms: C_7  and  C_8 
REMARK    3  A    between atoms: C_8  and  S_9 
REMARK    4  A    between atoms: S_9  and  C_10 
REMARK    5  A    between atoms: C_11  and  C_12 
REMARK       I    between atoms: C_12  and  N_13 
REMARK    6  A    between atoms: N_13  and  C_14 
REMARK    7  A    between atoms: C_14  and  C_15 
REMARK    8  A    between atoms: C_15  and  N_16 
REMARK    9  A    between atoms: C_15  and  C_22 
ROOT
HETATM    1  C   UNL     1      25.391  48.010  49.467  1.00  0.00     0.016 A 
HETATM    2  C   UNL     1      24.913  49.025  48.599  1.00  0.00     0.048 A 
HETATM    3  C   UNL     1      25.788  50.010  48.102  1.00  0.00     0.018 A 
HETATM    4  C   UNL     1      27.122  50.041  48.499  1.00  0.00     0.001 A 
HETATM    5  C   UNL     1      27.589  49.088  49.392  1.00  0.00     0.001 A 
HETATM    6  C   UNL     1      26.735  48.085  49.868  1.00  0.00     0.019 A 
ENDROOT
BRANCH   2   7
HETATM    7  C   UNL     1      23.479  49.228  48.227  1.00  0.00     0.253 C 
HETATM    8  N   UNL     1      22.939  50.435  48.591  1.00  0.00    -0.354 N 
HETATM    9  H   UNL     1      23.480  51.022  49.222  1.00  0.00     0.162 HD
HETATM   10  O   UNL     1      22.869  48.452  47.497  1.00  0.00    -0.268 OA
BRANCH   8  11
HETATM   11  C   UNL     1      21.609  50.867  48.223  1.00  0.00     0.161 C 
BRANCH  11  12
HETATM   12  C   UNL     1      20.415  50.120  48.893  1.00  0.00     0.245 C 
BRANCH  12  13
HETATM   13  N   UNL     1      20.182  48.721  48.323  1.00  0.00    -0.061 N 
HETATM   14  H   UNL     1      21.116  48.388  48.040  1.00  0.00     0.280 HD
HETATM   15  C   UNL     1      19.363  48.547  47.059  1.00  0.00     0.236 C 
HETATM   16  C   UNL     1      18.126  47.791  47.500  1.00  0.00     0.029 C 
HETATM   17  C   UNL     1      18.674  46.860  48.562  1.00  0.00     0.029 C 
HETATM   18  C   UNL     1      19.612  47.754  49.346  1.00  0.00     0.236 C 
ENDBRANCH  12  13
BRANCH  12  19
HETATM   19  C   UNL     1      19.180  50.974  49.130  1.00  0.00     0.015 A 
HETATM   20  S   UNL     1      18.929  52.486  48.352  1.00  0.00    -0.104 SA
HETATM   21  C   UNL     1      17.442  52.746  49.139  1.00  0.00     0.050 A 
HETATM   22  C   UNL     1      17.137  51.723  50.005  1.00  0.00     0.008 A 
HETATM   23  C   UNL     1      18.135  50.706  50.003  1.00  0.00     0.017 A 
ENDBRANCH  12  19
ENDBRANCH  11  12
ENDBRANCH   8  11
ENDBRANCH   2   7
BRANCH   1  24
HETATM   24  S   UNL     1      24.304  46.679  50.030  1.00  0.00    -0.120 SA
BRANCH  24  25
HETATM   25  C   UNL     1      25.398  45.320  50.596  1.00  0.00     0.182 C 
BRANCH  25  26
HETATM   26  C   UNL     1      24.675  44.300  51.467  1.00  0.00     0.231 C 
HETATM   27  N   UNL     1      25.296  43.738  52.548  1.00  0.00    -0.327 N 
HETATM   28  H   UNL     1      24.849  42.867  52.819  1.00  0.00     0.169 HD
HETATM   29  O   UNL     1      23.589  43.817  51.137  1.00  0.00    -0.272 OA
BRANCH  27  30
HETATM   30  C   UNL     1      26.344  44.163  53.376  1.00  0.00     0.034 A 
HETATM   31  C   UNL     1      27.564  43.500  53.493  1.00  0.00     0.030 A 
HETATM   32  C   UNL     1      28.585  44.033  54.291  1.00  0.00     0.009 A 
HETATM   33  C   UNL     1      28.401  45.237  54.978  1.00  0.00    -0.062 A 
HETATM   34  C   UNL     1      29.508  45.837  55.794  1.00  0.00     0.048 C 
HETATM   35  C   UNL     1      27.190  45.919  54.831  1.00  0.00     0.009 A 
HETATM   36  C   UNL     1      26.176  45.391  54.028  1.00  0.00     0.030 A 
ENDBRANCH  27  30
ENDBRANCH  25  26
ENDBRANCH  24  25
ENDBRANCH   1  24
TORSDOF 9
ENDMDL
MODEL 7
REMARK VINA RESULT:      -9.0      2.523      9.112
REMARK  9 active torsions:
REMARK  status: ('A' for Active; 'I' for Inactive)
REMARK    1  A    between atoms: C_5  and  N_6 
REMARK       I    between atoms: N_6  and  C_7 
REMARK    2  A    between atoms: C_7  and  C_8 
REMARK    3  A    between atoms: C_8  and  S_9 
REMARK    4  A    between atoms: S_9  and  C_10 
REMARK    5  A    between atoms: C_11  and  C_12 
REMARK       I    between atoms: C_12  and  N_13 
REMARK    6  A    between atoms: N_13  and  C_14 
REMARK    7  A    between atoms: C_14  and  C_15 
REMARK    8  A    between atoms: C_15  and  N_16 
REMARK    9  A    between atoms: C_15  and  C_22 
ROOT
HETATM    1  C   UNL     1      22.303  48.338  48.397  1.00  0.00     0.016 A 
HETATM    2  C   UNL     1      23.376  48.948  49.095  1.00  0.00     0.048 A 
HETATM    3  C   UNL     1      23.467  50.351  49.178  1.00  0.00     0.018 A 
HETATM    4  C   UNL     1      22.541  51.163  48.531  1.00  0.00     0.001 A 
HETATM    5  C   UNL     1      21.518  50.580  47.798  1.00  0.00     0.001 A 
HETATM    6  C   UNL     1      21.400  49.186  47.734  1.00  0.00     0.019 A 
ENDROOT
BRANCH   2   7
HETATM    7  C   UNL     1      24.539  48.217  49.686  1.00  0.00     0.253 C 
HETATM    8  N   UNL     1      24.254  47.429  50.771  1.00  0.00    -0.354 N 
HETATM    9  H   UNL     1      23.334  47.527  51.195  1.00  0.00     0.162 HD
HETATM   10  O   UNL     1      25.640  48.178  49.143  1.00  0.00    -0.268 OA
BRANCH   8  11
HETATM   11  C   UNL     1      25.214  46.557  51.409  1.00  0.00     0.161 C 
BRANCH  11  12
HETATM   12  C   UNL     1      24.700  45.155  51.861  1.00  0.00     0.245 C 
BRANCH  12  13
HETATM   13  N   UNL     1      25.215  44.739  53.239  1.00  0.00    -0.061 N 
HETATM   14  H   UNL     1      24.391  44.360  53.729  1.00  0.00     0.280 HD
HETATM   15  C   UNL     1      25.729  45.790  54.203  1.00  0.00     0.236 C 
HETATM   16  C   UNL     1      27.206  45.489  54.353  1.00  0.00     0.029 C 
HETATM   17  C   UNL     1      27.238  43.975  54.298  1.00  0.00     0.029 C 
HETATM   18  C   UNL     1      26.279  43.658  53.169  1.00  0.00     0.236 C 
ENDBRANCH  12  13
BRANCH  12  19
HETATM   19  C   UNL     1      24.715  44.089  50.777  1.00  0.00     0.015 A 
HETATM   20  S   UNL     1      25.861  44.080  49.495  1.00  0.00    -0.104 SA
HETATM   21  C   UNL     1      25.197  42.679  48.793  1.00  0.00     0.050 A 
HETATM   22  C   UNL     1      24.105  42.226  49.491  1.00  0.00     0.008 A 
HETATM   23  C   UNL     1      23.825  43.036  50.630  1.00  0.00     0.017 A 
ENDBRANCH  12  19
ENDBRANCH  11  12
ENDBRANCH   8  11
ENDBRANCH   2   7
BRANCH   1  24
HETATM   24  S   UNL     1      22.114  46.540  48.368  1.00  0.00    -0.120 SA
BRANCH  24  25
HETATM   25  C   UNL     1      20.595  46.193  47.401  1.00  0.00     0.182 C 
BRANCH  25  26
HETATM   26  C   UNL     1      19.454  45.659  48.258  1.00  0.00     0.231 C 
HETATM   27  N   UNL     1      18.807  46.472  49.147  1.00  0.00    -0.327 N 
HETATM   28  H   UNL     1      18.327  45.931  49.860  1.00  0.00     0.169 HD
HETATM   29  O   UNL     1      19.191  44.455  48.313  1.00  0.00    -0.272 OA
BRANCH  27  30
HETATM   30  C   UNL     1      18.617  47.860  49.209  1.00  0.00     0.034 A 
HETATM   31  C   UNL     1      17.866  48.586  48.287  1.00  0.00     0.030 A 
HETATM   32  C   UNL     1      17.668  49.962  48.463  1.00  0.00     0.009 A 
HETATM   33  C   UNL     1      18.216  50.628  49.564  1.00  0.00    -0.062 A 
HETATM   34  C   UNL     1      17.966  52.091  49.784  1.00  0.00     0.048 C 
HETATM   35  C   UNL     1      18.939  49.891  50.506  1.00  0.00     0.009 A 
HETATM   36  C   UNL     1      19.128  48.518  50.334  1.00  0.00     0.030 A 
ENDBRANCH  27  30
ENDBRANCH  25  26
ENDBRANCH  24  25
ENDBRANCH   1  24
TORSDOF 9
ENDMDL
MODEL 8
REMARK VINA RESULT:      -8.9     12.220     16.355
REMARK  9 active torsions:
REMARK  status: ('A' for Active; 'I' for Inactive)
REMARK    1  A    between atoms: C_5  and  N_6 
REMARK       I    between atoms: N_6  and  C_7 
REMARK    2  A    between atoms: C_7  and  C_8 
REMARK    3  A    between atoms: C_8  and  S_9 
REMARK    4  A    between atoms: S_9  and  C_10 
REMARK    5  A    between atoms: C_11  and  C_12 
REMARK       I    between atoms: C_12  and  N_13 
REMARK    6  A    between atoms: N_13  and  C_14 
REMARK    7  A    between atoms: C_14  and  C_15 
REMARK    8  A    between atoms: C_15  and  N_16 
REMARK    9  A    between atoms: C_15  and  C_22 
ROOT
HETATM    1  C   UNL     1      31.472  51.560  41.431  1.00  0.00     0.016 A 
HETATM    2  C   UNL     1      31.661  52.430  40.327  1.00  0.00     0.048 A 
HETATM    3  C   UNL     1      30.628  53.293  39.913  1.00  0.00     0.018 A 
HETATM    4  C   UNL     1      29.388  53.268  40.541  1.00  0.00     0.001 A 
HETATM    5  C   UNL     1      29.170  52.382  41.586  1.00  0.00     0.001 A 
HETATM    6  C   UNL     1      30.200  51.541  42.026  1.00  0.00     0.019 A 
ENDROOT
BRANCH   2   7
HETATM    7  C   UNL     1      32.869  52.444  39.444  1.00  0.00     0.253 C 
HETATM    8  N   UNL     1      33.959  53.109  39.943  1.00  0.00    -0.354 N 
HETATM    9  H   UNL     1      33.823  53.678  40.775  1.00  0.00     0.162 HD
HETATM   10  O   UNL     1      32.949  51.765  38.424  1.00  0.00    -0.268 OA
BRANCH   8  11
HETATM   11  C   UNL     1      35.252  53.137  39.296  1.00  0.00     0.161 C 
BRANCH  11  12
HETATM   12  C   UNL     1      36.258  54.227  39.781  1.00  0.00     0.245 C 
BRANCH  12  13
HETATM   13  N   UNL     1      36.524  54.177  41.285  1.00  0.00    -0.061 N 
HETATM   14  H   UNL     1      35.626  54.434  41.724  1.00  0.00     0.280 HD
HETATM   15  C   UNL     1      37.500  55.152  41.913  1.00  0.00     0.236 C 
HETATM   16  C   UNL     1      38.643  54.289  42.409  1.00  0.00     0.029 C 
HETATM   17  C   UNL     1      37.929  53.036  42.872  1.00  0.00     0.029 C 
HETATM   18  C   UNL     1      36.921  52.793  41.768  1.00  0.00     0.236 C 
ENDBRANCH  12  13
BRANCH  12  19
HETATM   19  C   UNL     1      36.050  55.604  39.171  1.00  0.00     0.015 A 
HETATM   20  S   UNL     1      37.221  56.366  38.170  1.00  0.00    -0.104 SA
HETATM   21  C   UNL     1      36.266  57.760  37.961  1.00  0.00     0.050 A 
HETATM   22  C   UNL     1      35.084  57.678  38.656  1.00  0.00     0.008 A 
HETATM   23  C   UNL     1      34.958  56.441  39.353  1.00  0.00     0.017 A 
ENDBRANCH  12  19
ENDBRANCH  11  12
ENDBRANCH   8  11
ENDBRANCH   2   7
BRANCH   1  24
HETATM   24  S   UNL     1      32.821  50.521  42.039  1.00  0.00    -0.120 SA
BRANCH  24  25
HETATM   25  C   UNL     1      32.084  48.888  42.429  1.00  0.00     0.182 C 
BRANCH  25  26
HETATM   26  C   UNL     1      32.308  47.856  41.330  1.00  0.00     0.231 C 
HETATM   27  N   UNL     1      31.333  47.594  40.408  1.00  0.00    -0.327 N 
HETATM   28  H   UNL     1      31.475  46.690  39.968  1.00  0.00     0.169 HD
HETATM   29  O   UNL     1      33.287  47.105  41.334  1.00  0.00    -0.272 OA
BRANCH  27  30
HETATM   30  C   UNL     1      30.261  48.348  39.910  1.00  0.00     0.034 A 
HETATM   31  C   UNL     1      28.977  48.328  40.451  1.00  0.00     0.030 A 
HETATM   32  C   UNL     1      27.979  49.167  39.936  1.00  0.00     0.009 A 
HETATM   33  C   UNL     1      28.254  50.037  38.877  1.00  0.00    -0.062 A 
HETATM   34  C   UNL     1      27.203  50.973  38.355  1.00  0.00     0.048 C 
HETATM   35  C   UNL     1      29.551  50.081  38.359  1.00  0.00     0.009 A 
HETATM   36  C   UNL     1      30.547  49.252  38.880  1.00  0.00     0.030 A 
ENDBRANCH  27  30
ENDBRANCH  25  26
ENDBRANCH  24  25
ENDBRANCH   1  24
TORSDOF 9
ENDMDL
MODEL 9
REMARK VINA RESULT:      -8.7      3.137      4.905
REMARK  9 active torsions:
REMARK  status: ('A' for Active; 'I' for Inactive)
REMARK    1  A    between atoms: C_5  and  N_6 
REMARK       I    between atoms: N_6  and  C_7 
REMARK    2  A    between atoms: C_7  and  C_8 
REMARK    3  A    between atoms: C_8  and  S_9 
REMARK    4  A    between atoms: S_9  and  C_10 
REMARK    5  A    between atoms: C_11  and  C_12 
REMARK       I    between atoms: C_12  and  N_13 
REMARK    6  A    between atoms: N_13  and  C_14 
REMARK    7  A    between atoms: C_14  and  C_15 
REMARK    8  A    between atoms: C_15  and  N_16 
REMARK    9  A    between atoms: C_15  and  C_22 
ROOT
HETATM    1  C   UNL     1      26.285  44.901  52.799  1.00  0.00     0.016 A 
HETATM    2  C   UNL     1      25.765  45.878  51.912  1.00  0.00     0.048 A 
HETATM    3  C   UNL     1      25.529  47.194  52.357  1.00  0.00     0.018 A 
HETATM    4  C   UNL     1      25.748  47.544  53.685  1.00  0.00     0.001 A 
HETATM    5  C   UNL     1      26.203  46.585  54.577  1.00  0.00     0.001 A 
HETATM    6  C   UNL     1      26.470  45.281  54.139  1.00  0.00     0.019 A 
ENDROOT
BRANCH   2   7
HETATM    7  C   UNL     1      25.314  45.609  50.512  1.00  0.00     0.253 C 
HETATM    8  N   UNL     1      24.016  45.951  50.232  1.00  0.00    -0.354 N 
HETATM    9  H   UNL     1      23.414  46.196  51.015  1.00  0.00     0.162 HD
HETATM   10  O   UNL     1      26.089  45.269  49.622  1.00  0.00    -0.268 OA
BRANCH   8  11
HETATM   11  C   UNL     1      23.430  45.878  48.912  1.00  0.00     0.161 C 
BRANCH  11  12
HETATM   12  C   UNL     1      22.287  46.891  48.593  1.00  0.00     0.245 C 
BRANCH  12  13
HETATM   13  N   UNL     1      21.478  46.516  47.351  1.00  0.00    -0.061 N 
HETATM   14  H   UNL     1      21.472  47.368  46.769  1.00  0.00     0.280 HD
HETATM   15  C   UNL     1      20.005  46.184  47.480  1.00  0.00     0.236 C 
HETATM   16  C   UNL     1      19.905  44.719  47.108  1.00  0.00     0.029 C 
HETATM   17  C   UNL     1      20.943  44.589  46.012  1.00  0.00     0.029 C 
HETATM   18  C   UNL     1      22.110  45.388  46.554  1.00  0.00     0.236 C 
ENDBRANCH  12  13
BRANCH  12  19
HETATM   19  C   UNL     1      22.672  48.355  48.739  1.00  0.00     0.015 A 
HETATM   20  S   UNL     1      21.542  49.577  49.171  1.00  0.00    -0.104 SA
HETATM   21  C   UNL     1      22.712  50.811  49.094  1.00  0.00     0.050 A 
HETATM   22  C   UNL     1      23.941  50.326  48.720  1.00  0.00     0.008 A 
HETATM   23  C   UNL     1      23.920  48.916  48.514  1.00  0.00     0.017 A 
ENDBRANCH  12  19
ENDBRANCH  11  12
ENDBRANCH   8  11
ENDBRANCH   2   7
BRANCH   1  24
HETATM   24  S   UNL     1      26.690  43.238  52.219  1.00  0.00    -0.120 SA
BRANCH  24  25
HETATM   25  C   UNL     1      27.557  42.402  53.602  1.00  0.00     0.182 C 
BRANCH  25  26
HETATM   26  C   UNL     1      28.996  42.030  53.263  1.00  0.00     0.231 C 
HETATM   27  N   UNL     1      30.043  42.731  53.792  1.00  0.00    -0.327 N 
HETATM   28  H   UNL     1      30.888  42.604  53.242  1.00  0.00     0.169 HD
HETATM   29  O   UNL     1      29.264  41.213  52.377  1.00  0.00    -0.272 OA
BRANCH  27  30
HETATM   30  C   UNL     1      30.189  43.496  54.958  1.00  0.00     0.034 A 
HETATM   31  C   UNL     1      31.011  43.142  56.025  1.00  0.00     0.030 A 
HETATM   32  C   UNL     1      31.154  44.000  57.123  1.00  0.00     0.009 A 
HETATM   33  C   UNL     1      30.478  45.224  57.167  1.00  0.00    -0.062 A 
HETATM   34  C   UNL     1      30.665  46.168  58.318  1.00  0.00     0.048 C 
HETATM   35  C   UNL     1      29.681  45.593  56.080  1.00  0.00     0.009 A 
HETATM   36  C   UNL     1      29.548  44.741  54.981  1.00  0.00     0.030 A 
ENDBRANCH  27  30
ENDBRANCH  25  26
ENDBRANCH  24  25
ENDBRANCH   1  24
TORSDOF 9
ENDMDL
MODEL 10
REMARK VINA RESULT:      -8.7     12.128     16.425
REMARK  9 active torsions:
REMARK  status: ('A' for Active; 'I' for Inactive)
REMARK    1  A    between atoms: C_5  and  N_6 
REMARK       I    between atoms: N_6  and  C_7 
REMARK    2  A    between atoms: C_7  and  C_8 
REMARK    3  A    between atoms: C_8  and  S_9 
REMARK    4  A    between atoms: S_9  and  C_10 
REMARK    5  A    between atoms: C_11  and  C_12 
REMARK       I    between atoms: C_12  and  N_13 
REMARK    6  A    between atoms: N_13  and  C_14 
REMARK    7  A    between atoms: C_14  and  C_15 
REMARK    8  A    between atoms: C_15  and  N_16 
REMARK    9  A    between atoms: C_15  and  C_22 
ROOT
HETATM    1  C   UNL     1      31.242  51.533  41.404  1.00  0.00     0.016 A 
HETATM    2  C   UNL     1      31.437  52.400  40.298  1.00  0.00     0.048 A 
HETATM    3  C   UNL     1      30.386  53.215  39.835  1.00  0.00     0.018 A 
HETATM    4  C   UNL     1      29.124  53.144  40.415  1.00  0.00     0.001 A 
HETATM    5  C   UNL     1      28.903  52.259  41.461  1.00  0.00     0.001 A 
HETATM    6  C   UNL     1      29.949  51.467  41.950  1.00  0.00     0.019 A 
ENDROOT
BRANCH   2   7
HETATM    7  C   UNL     1      32.677  52.456  39.463  1.00  0.00     0.253 C 
HETATM    8  N   UNL     1      33.723  53.158  40.002  1.00  0.00    -0.354 N 
HETATM    9  H   UNL     1      33.536  53.721  40.829  1.00  0.00     0.162 HD
HETATM   10  O   UNL     1      32.819  51.781  38.446  1.00  0.00    -0.268 OA
BRANCH   8  11
HETATM   11  C   UNL     1      35.038  53.230  39.406  1.00  0.00     0.161 C 
BRANCH  11  12
HETATM   12  C   UNL     1      36.219  52.627  40.229  1.00  0.00     0.245 C 
BRANCH  12  13
HETATM   13  N   UNL     1      36.315  53.188  41.648  1.00  0.00    -0.061 N 
HETATM   14  H   UNL     1      35.460  53.753  41.770  1.00  0.00     0.280 HD
HETATM   15  C   UNL     1      37.420  54.165  42.000  1.00  0.00     0.236 C 
HETATM   16  C   UNL     1      38.281  53.427  43.005  1.00  0.00     0.029 C 
HETATM   17  C   UNL     1      37.259  52.632  43.791  1.00  0.00     0.029 C 
HETATM   18  C   UNL     1      36.337  52.105  42.711  1.00  0.00     0.236 C 
ENDBRANCH  12  13
BRANCH  12  19
HETATM   19  C   UNL     1      37.524  52.483  39.463  1.00  0.00     0.015 A 
HETATM   20  S   UNL     1      37.908  53.443  38.089  1.00  0.00    -0.104 SA
HETATM   21  C   UNL     1      39.411  52.676  37.862  1.00  0.00     0.050 A 
HETATM   22  C   UNL     1      39.623  51.684  38.789  1.00  0.00     0.008 A 
HETATM   23  C   UNL     1      38.540  51.570  39.708  1.00  0.00     0.017 A 
ENDBRANCH  12  19
ENDBRANCH  11  12
ENDBRANCH   8  11
ENDBRANCH   2   7
BRANCH   1  24
HETATM   24  S   UNL     1      32.609  50.558  42.075  1.00  0.00    -0.120 SA
BRANCH  24  25
HETATM   25  C   UNL     1      31.934  48.888  42.422  1.00  0.00     0.182 C 
BRANCH  25  26
HETATM   26  C   UNL     1      32.228  47.886  41.312  1.00  0.00     0.231 C 
HETATM   27  N   UNL     1      31.280  47.583  40.375  1.00  0.00    -0.327 N 
HETATM   28  H   UNL     1      31.478  46.694  39.924  1.00  0.00     0.169 HD
HETATM   29  O   UNL     1      33.247  47.191  41.318  1.00  0.00    -0.272 OA
BRANCH  27  30
HETATM   30  C   UNL     1      30.173  48.282  39.874  1.00  0.00     0.034 A 
HETATM   31  C   UNL     1      28.884  48.176  40.394  1.00  0.00     0.030 A 
HETATM   32  C   UNL     1      27.847  48.965  39.879  1.00  0.00     0.009 A 
HETATM   33  C   UNL     1      28.086  49.871  38.841  1.00  0.00    -0.062 A 
HETATM   34  C   UNL     1      26.990  50.754  38.319  1.00  0.00     0.048 C 
HETATM   35  C   UNL     1      29.386  50.001  38.345  1.00  0.00     0.009 A 
HETATM   36  C   UNL     1      30.421  49.221  38.866  1.00  0.00     0.030 A 
ENDBRANCH  27  30
ENDBRANCH  25  26
ENDBRANCH  24  25
ENDBRANCH   1  24
TORSDOF 9
ENDMDL
