MODEL 1
REMARK VINA RESULT:      -9.5      0.000      0.000
REMARK  6 active torsions:
REMARK  status: ('A' for Active; 'I' for Inactive)
REMARK    1  A    between atoms: O_2  and  C_3 
REMARK    2  A    between atoms: C_5  and  C_6 
REMARK    3  A    between atoms: C_12  and  C_13 
REMARK       I    between atoms: C_13  and  N_14 
REMARK    4  A    between atoms: N_14  and  C_15 
REMARK    5  A    between atoms: C_15  and  C_16 
REMARK    6  A    between atoms: C_23  and  C_24 
ROOT
HETATM    1  C   UNL     1      26.751  43.741  54.451  1.00  0.00     0.118 C 
HETATM    2  N   UNL     1      26.615  42.810  53.317  1.00  0.00    -0.365 N 
HETATM    3  C   UNL     1      26.761  43.270  52.042  1.00  0.00     0.138 A 
HETATM    4  N   UNL     1      26.774  44.622  51.777  1.00  0.00    -0.240 N 
HETATM    5  N   UNL     1      26.966  44.917  50.485  1.00  0.00    -0.181 NA
HETATM    6  C   UNL     1      27.021  43.718  49.900  1.00  0.00     0.160 A 
HETATM    7  C   UNL     1      26.914  42.644  50.818  1.00  0.00     0.096 A 
HETATM    8  C   UNL     1      26.635  45.656  52.787  1.00  0.00     0.221 C 
HETATM    9  C   UNL     1      26.039  45.051  54.074  1.00  0.00     0.066 C 
HETATM   10  H   UNL     1      25.961  42.044  53.489  1.00  0.00     0.161 HD
ENDROOT
BRANCH   7  11
HETATM   11  C   UNL     1      27.020  41.235  50.483  1.00  0.00     0.257 C 
HETATM   12  N   UNL     1      28.247  40.836  50.008  1.00  0.00    -0.352 N 
HETATM   13  H   UNL     1      28.910  41.566  49.784  1.00  0.00     0.163 HD
HETATM   14  O   UNL     1      26.062  40.474  50.578  1.00  0.00    -0.267 OA
BRANCH  12  15
HETATM   15  C   UNL     1      28.427  39.531  49.422  1.00  0.00     0.161 C 
BRANCH  15  16
HETATM   16  C   UNL     1      28.301  39.580  47.923  1.00  0.00    -0.041 A 
HETATM   17  C   UNL     1      28.254  38.391  47.182  1.00  0.00     0.009 A 
HETATM   18  C   UNL     1      28.119  38.423  45.793  1.00  0.00     0.001 A 
HETATM   19  C   UNL     1      28.042  39.646  45.130  1.00  0.00     0.000 A 
HETATM   20  C   UNL     1      28.104  40.836  45.854  1.00  0.00     0.001 A 
HETATM   21  C   UNL     1      28.233  40.805  47.243  1.00  0.00     0.009 A 
ENDBRANCH  15  16
ENDBRANCH  12  15
ENDBRANCH   7  11
BRANCH   1  22
HETATM   22  C   UNL     1      28.211  43.904  54.877  1.00  0.00    -0.033 A 
HETATM   23  C   UNL     1      28.633  45.006  55.651  1.00  0.00     0.046 A 
HETATM   24  C   UNL     1      29.966  45.162  56.038  1.00  0.00     0.068 A 
HETATM   25  C   UNL     1      30.909  44.220  55.630  1.00  0.00     0.037 A 
HETATM   26  C   UNL     1      30.527  43.139  54.840  1.00  0.00     0.003 A 
HETATM   27  C   UNL     1      29.192  42.988  54.457  1.00  0.00     0.009 A 
BRANCH  24  28
HETATM   28  O   UNL     1      30.467  46.185  56.795  1.00  0.00    -0.356 OA
HETATM   29  C   UNL     1      30.371  46.048  58.207  1.00  0.00     0.210 C 
ENDBRANCH  24  28
ENDBRANCH   1  22
BRANCH   8  30
HETATM   30  C   UNL     1      25.759  46.800  52.322  1.00  0.00     0.409 C 
HETATM   31  F   UNL     1      24.659  46.375  51.661  1.00  0.00    -0.169 F 
HETATM   32  F   UNL     1      25.307  47.490  53.408  1.00  0.00    -0.169 F 
HETATM   33  F   UNL     1      26.400  47.702  51.553  1.00  0.00    -0.169 F 
ENDBRANCH   8  30
TORSDOF 6
ENDMDL
MODEL 2
REMARK VINA RESULT:      -9.5      1.232      2.127
REMARK  6 active torsions:
REMARK  status: ('A' for Active; 'I' for Inactive)
REMARK    1  A    between atoms: O_2  and  C_3 
REMARK    2  A    between atoms: C_5  and  C_6 
REMARK    3  A    between atoms: C_12  and  C_13 
REMARK       I    between atoms: C_13  and  N_14 
REMARK    4  A    between atoms: N_14  and  C_15 
REMARK    5  A    between atoms: C_15  and  C_16 
REMARK    6  A    between atoms: C_23  and  C_24 
ROOT
HETATM    1  C   UNL     1      26.411  43.852  54.123  1.00  0.00     0.118 C 
HETATM    2  N   UNL     1      26.245  42.929  52.986  1.00  0.00    -0.365 N 
HETATM    3  C   UNL     1      26.465  43.373  51.716  1.00  0.00     0.138 A 
HETATM    4  N   UNL     1      26.586  44.719  51.450  1.00  0.00    -0.240 N 
HETATM    5  N   UNL     1      26.841  44.995  50.165  1.00  0.00    -0.181 NA
HETATM    6  C   UNL     1      26.826  43.793  49.583  1.00  0.00     0.160 A 
HETATM    7  C   UNL     1      26.611  42.733  50.498  1.00  0.00     0.096 A 
HETATM    8  C   UNL     1      26.490  45.764  52.454  1.00  0.00     0.221 C 
HETATM    9  C   UNL     1      25.811  45.209  53.721  1.00  0.00     0.066 C 
HETATM   10  H   UNL     1      25.531  42.214  53.138  1.00  0.00     0.161 HD
ENDROOT
BRANCH   7  11
HETATM   11  C   UNL     1      26.624  41.320  50.168  1.00  0.00     0.257 C 
HETATM   12  N   UNL     1      27.523  40.953  49.195  1.00  0.00    -0.352 N 
HETATM   13  H   UNL     1      27.978  41.700  48.688  1.00  0.00     0.163 HD
HETATM   14  O   UNL     1      25.850  40.526  50.695  1.00  0.00    -0.267 OA
BRANCH  12  15
HETATM   15  C   UNL     1      27.483  39.637  48.607  1.00  0.00     0.161 C 
BRANCH  15  16
HETATM   16  C   UNL     1      28.177  38.625  49.477  1.00  0.00    -0.041 A 
HETATM   17  C   UNL     1      27.627  37.346  49.645  1.00  0.00     0.009 A 
HETATM   18  C   UNL     1      28.271  36.393  50.436  1.00  0.00     0.001 A 
HETATM   19  C   UNL     1      29.467  36.713  51.075  1.00  0.00     0.000 A 
HETATM   20  C   UNL     1      30.017  37.985  50.928  1.00  0.00     0.001 A 
HETATM   21  C   UNL     1      29.376  38.938  50.134  1.00  0.00     0.009 A 
ENDBRANCH  15  16
ENDBRANCH  12  15
ENDBRANCH   7  11
BRANCH   1  22
HETATM   22  C   UNL     1      27.865  43.909  54.596  1.00  0.00    -0.033 A 
HETATM   23  C   UNL     1      28.351  44.997  55.352  1.00  0.00     0.046 A 
HETATM   24  C   UNL     1      29.679  45.056  55.782  1.00  0.00     0.068 A 
HETATM   25  C   UNL     1      30.553  44.027  55.436  1.00  0.00     0.037 A 
HETATM   26  C   UNL     1      30.109  42.956  54.665  1.00  0.00     0.003 A 
HETATM   27  C   UNL     1      28.780  42.903  54.239  1.00  0.00     0.009 A 
BRANCH  24  28
HETATM   28  O   UNL     1      30.238  46.058  56.526  1.00  0.00    -0.356 OA
HETATM   29  C   UNL     1      30.501  45.775  57.894  1.00  0.00     0.210 C 
ENDBRANCH  24  28
ENDBRANCH   1  22
BRANCH   8  30
HETATM   30  C   UNL     1      25.716  46.969  51.960  1.00  0.00     0.409 C 
HETATM   31  F   UNL     1      24.653  46.624  51.199  1.00  0.00    -0.169 F 
HETATM   32  F   UNL     1      25.215  47.650  53.029  1.00  0.00    -0.169 F 
HETATM   33  F   UNL     1      26.465  47.856  51.275  1.00  0.00    -0.169 F 
ENDBRANCH   8  30
TORSDOF 6
ENDMDL
MODEL 3
REMARK VINA RESULT:      -9.1      3.413      6.784
REMARK  6 active torsions:
REMARK  status: ('A' for Active; 'I' for Inactive)
REMARK    1  A    between atoms: O_2  and  C_3 
REMARK    2  A    between atoms: C_5  and  C_6 
REMARK    3  A    between atoms: C_12  and  C_13 
REMARK       I    between atoms: C_13  and  N_14 
REMARK    4  A    between atoms: N_14  and  C_15 
REMARK    5  A    between atoms: C_15  and  C_16 
REMARK    6  A    between atoms: C_23  and  C_24 
ROOT
HETATM    1  C   UNL     1      24.124  43.195  51.065  1.00  0.00     0.118 C 
HETATM    2  N   UNL     1      25.335  42.430  51.410  1.00  0.00    -0.365 N 
HETATM    3  C   UNL     1      26.154  41.974  50.419  1.00  0.00     0.138 A 
HETATM    4  N   UNL     1      25.744  41.987  49.104  1.00  0.00    -0.240 N 
HETATM    5  N   UNL     1      26.672  41.547  48.245  1.00  0.00    -0.181 NA
HETATM    6  C   UNL     1      27.683  41.190  49.041  1.00  0.00     0.160 A 
HETATM    7  C   UNL     1      27.431  41.443  50.412  1.00  0.00     0.096 A 
HETATM    8  C   UNL     1      24.448  42.464  48.655  1.00  0.00     0.221 C 
HETATM    9  C   UNL     1      23.472  42.522  49.846  1.00  0.00     0.066 C 
HETATM   10  H   UNL     1      25.242  41.873  52.263  1.00  0.00     0.161 HD
ENDROOT
BRANCH   7  11
HETATM   11  C   UNL     1      28.374  41.233  51.495  1.00  0.00     0.257 C 
HETATM   12  N   UNL     1      28.783  42.372  52.146  1.00  0.00    -0.352 N 
HETATM   13  H   UNL     1      28.526  43.256  51.727  1.00  0.00     0.163 HD
HETATM   14  O   UNL     1      28.804  40.117  51.770  1.00  0.00    -0.267 OA
BRANCH  12  15
HETATM   15  C   UNL     1      29.883  42.340  53.078  1.00  0.00     0.161 C 
BRANCH  15  16
HETATM   16  C   UNL     1      29.752  43.418  54.120  1.00  0.00    -0.041 A 
HETATM   17  C   UNL     1      30.677  43.498  55.170  1.00  0.00     0.009 A 
HETATM   18  C   UNL     1      30.576  44.504  56.132  1.00  0.00     0.001 A 
HETATM   19  C   UNL     1      29.542  45.434  56.060  1.00  0.00     0.000 A 
HETATM   20  C   UNL     1      28.606  45.357  55.029  1.00  0.00     0.001 A 
HETATM   21  C   UNL     1      28.709  44.354  54.063  1.00  0.00     0.009 A 
ENDBRANCH  15  16
ENDBRANCH  12  15
ENDBRANCH   7  11
BRANCH   1  22
HETATM   22  C   UNL     1      24.428  44.684  50.889  1.00  0.00    -0.033 A 
HETATM   23  C   UNL     1      25.165  45.403  51.855  1.00  0.00     0.046 A 
HETATM   24  C   UNL     1      25.440  46.765  51.701  1.00  0.00     0.068 A 
HETATM   25  C   UNL     1      24.955  47.436  50.580  1.00  0.00     0.037 A 
HETATM   26  C   UNL     1      24.200  46.758  49.627  1.00  0.00     0.003 A 
HETATM   27  C   UNL     1      23.929  45.397  49.785  1.00  0.00     0.009 A 
BRANCH  24  28
HETATM   28  O   UNL     1      26.153  47.542  52.572  1.00  0.00    -0.356 OA
HETATM   29  C   UNL     1      25.878  47.376  53.957  1.00  0.00     0.210 C 
ENDBRANCH  24  28
ENDBRANCH   1  22
BRANCH   8  30
HETATM   30  C   UNL     1      23.858  41.589  47.568  1.00  0.00     0.409 C 
HETATM   31  F   UNL     1      24.014  40.271  47.823  1.00  0.00    -0.169 F 
HETATM   32  F   UNL     1      22.513  41.806  47.498  1.00  0.00    -0.169 F 
HETATM   33  F   UNL     1      24.339  41.848  46.336  1.00  0.00    -0.169 F 
ENDBRANCH   8  30
TORSDOF 6
ENDMDL
MODEL 4
REMARK VINA RESULT:      -8.7      5.414      8.730
REMARK  6 active torsions:
REMARK  status: ('A' for Active; 'I' for Inactive)
REMARK    1  A    between atoms: O_2  and  C_3 
REMARK    2  A    between atoms: C_5  and  C_6 
REMARK    3  A    between atoms: C_12  and  C_13 
REMARK       I    between atoms: C_13  and  N_14 
REMARK    4  A    between atoms: N_14  and  C_15 
REMARK    5  A    between atoms: C_15  and  C_16 
REMARK    6  A    between atoms: C_23  and  C_24 
ROOT
HETATM    1  C   UNL     1      26.298  45.702  50.086  1.00  0.00     0.118 C 
HETATM    2  N   UNL     1      25.491  46.757  49.448  1.00  0.00    -0.365 N 
HETATM    3  C   UNL     1      24.171  46.535  49.187  1.00  0.00     0.138 A 
HETATM    4  N   UNL     1      23.640  45.267  49.266  1.00  0.00    -0.240 N 
HETATM    5  N   UNL     1      22.324  45.217  49.023  1.00  0.00    -0.181 NA
HETATM    6  C   UNL     1      22.018  46.482  48.724  1.00  0.00     0.160 A 
HETATM    7  C   UNL     1      23.124  47.361  48.821  1.00  0.00     0.096 A 
HETATM    8  C   UNL     1      24.400  44.081  49.617  1.00  0.00     0.221 C 
HETATM    9  C   UNL     1      25.907  44.358  49.448  1.00  0.00     0.066 C 
HETATM   10  H   UNL     1      26.023  47.354  48.811  1.00  0.00     0.161 HD
ENDROOT
BRANCH   7  11
HETATM   11  C   UNL     1      23.075  48.800  48.634  1.00  0.00     0.257 C 
HETATM   12  N   UNL     1      22.500  49.507  49.663  1.00  0.00    -0.352 N 
HETATM   13  H   UNL     1      22.025  48.970  50.377  1.00  0.00     0.163 HD
HETATM   14  O   UNL     1      23.480  49.332  47.605  1.00  0.00    -0.267 OA
BRANCH  12  15
HETATM   15  C   UNL     1      22.175  50.904  49.514  1.00  0.00     0.161 C 
BRANCH  15  16
HETATM   16  C   UNL     1      20.724  51.097  49.167  1.00  0.00    -0.041 A 
HETATM   17  C   UNL     1      20.305  51.035  47.831  1.00  0.00     0.009 A 
HETATM   18  C   UNL     1      18.959  51.195  47.499  1.00  0.00     0.001 A 
HETATM   19  C   UNL     1      18.019  51.429  48.500  1.00  0.00     0.000 A 
HETATM   20  C   UNL     1      18.424  51.508  49.831  1.00  0.00     0.001 A 
HETATM   21  C   UNL     1      19.770  51.344  50.165  1.00  0.00     0.009 A 
ENDBRANCH  15  16
ENDBRANCH  12  15
ENDBRANCH   7  11
BRANCH   1  22
HETATM   22  C   UNL     1      26.183  45.746  51.611  1.00  0.00    -0.033 A 
HETATM   23  C   UNL     1      25.932  46.955  52.295  1.00  0.00     0.046 A 
HETATM   24  C   UNL     1      25.831  47.001  53.687  1.00  0.00     0.068 A 
HETATM   25  C   UNL     1      26.007  45.830  54.422  1.00  0.00     0.037 A 
HETATM   26  C   UNL     1      26.286  44.629  53.776  1.00  0.00     0.003 A 
HETATM   27  C   UNL     1      26.385  44.589  52.383  1.00  0.00     0.009 A 
BRANCH  24  28
HETATM   28  O   UNL     1      25.579  48.117  54.437  1.00  0.00    -0.356 OA
HETATM   29  C   UNL     1      26.492  48.407  55.487  1.00  0.00     0.210 C 
ENDBRANCH  24  28
ENDBRANCH   1  22
BRANCH   8  30
HETATM   30  C   UNL     1      24.016  42.881  48.776  1.00  0.00     0.409 C 
HETATM   31  F   UNL     1      23.907  43.183  47.463  1.00  0.00    -0.169 F 
HETATM   32  F   UNL     1      24.994  41.936  48.870  1.00  0.00    -0.169 F 
HETATM   33  F   UNL     1      22.879  42.276  49.174  1.00  0.00    -0.169 F 
ENDBRANCH   8  30
TORSDOF 6
ENDMDL
MODEL 5
REMARK VINA RESULT:      -8.6      4.375      8.124
REMARK  6 active torsions:
REMARK  status: ('A' for Active; 'I' for Inactive)
REMARK    1  A    between atoms: O_2  and  C_3 
REMARK    2  A    between atoms: C_5  and  C_6 
REMARK    3  A    between atoms: C_12  and  C_13 
REMARK       I    between atoms: C_13  and  N_14 
REMARK    4  A    between atoms: N_14  and  C_15 
REMARK    5  A    between atoms: C_15  and  C_16 
REMARK    6  A    between atoms: C_23  and  C_24 
ROOT
HETATM    1  C   UNL     1      24.628  43.736  51.833  1.00  0.00     0.118 C 
HETATM    2  N   UNL     1      23.949  44.772  51.034  1.00  0.00    -0.365 N 
HETATM    3  C   UNL     1      24.539  45.990  50.863  1.00  0.00     0.138 A 
HETATM    4  N   UNL     1      25.623  46.362  51.626  1.00  0.00    -0.240 N 
HETATM    5  N   UNL     1      26.116  47.567  51.313  1.00  0.00    -0.181 NA
HETATM    6  C   UNL     1      25.287  48.000  50.360  1.00  0.00     0.160 A 
HETATM    7  C   UNL     1      24.286  47.057  50.020  1.00  0.00     0.096 A 
HETATM    8  C   UNL     1      26.224  45.532  52.655  1.00  0.00     0.221 C 
HETATM    9  C   UNL     1      25.241  44.418  53.067  1.00  0.00     0.066 C 
HETATM   10  H   UNL     1      22.929  44.724  51.078  1.00  0.00     0.161 HD
ENDROOT
BRANCH   7  11
HETATM   11  C   UNL     1      23.299  47.218  48.967  1.00  0.00     0.257 C 
HETATM   12  N   UNL     1      22.894  48.511  48.737  1.00  0.00    -0.352 N 
HETATM   13  H   UNL     1      23.188  49.209  49.406  1.00  0.00     0.163 HD
HETATM   14  O   UNL     1      22.833  46.255  48.366  1.00  0.00    -0.267 OA
BRANCH  12  15
HETATM   15  C   UNL     1      21.760  48.794  47.892  1.00  0.00     0.161 C 
BRANCH  15  16
HETATM   16  C   UNL     1      20.812  49.760  48.549  1.00  0.00    -0.041 A 
HETATM   17  C   UNL     1      20.679  51.064  48.051  1.00  0.00     0.009 A 
HETATM   18  C   UNL     1      19.790  51.963  48.641  1.00  0.00     0.001 A 
HETATM   19  C   UNL     1      19.033  51.572  49.742  1.00  0.00     0.000 A 
HETATM   20  C   UNL     1      19.167  50.283  50.257  1.00  0.00     0.001 A 
HETATM   21  C   UNL     1      20.052  49.380  49.664  1.00  0.00     0.009 A 
ENDBRANCH  15  16
ENDBRANCH  12  15
ENDBRANCH   7  11
BRANCH   1  22
HETATM   22  C   UNL     1      25.616  42.929  50.989  1.00  0.00    -0.033 A 
HETATM   23  C   UNL     1      26.617  42.135  51.588  1.00  0.00     0.046 A 
HETATM   24  C   UNL     1      27.525  41.400  50.821  1.00  0.00     0.068 A 
HETATM   25  C   UNL     1      27.457  41.471  49.431  1.00  0.00     0.037 A 
HETATM   26  C   UNL     1      26.499  42.270  48.814  1.00  0.00     0.003 A 
HETATM   27  C   UNL     1      25.594  43.002  49.585  1.00  0.00     0.009 A 
BRANCH  24  28
HETATM   28  O   UNL     1      28.518  40.595  51.307  1.00  0.00    -0.356 OA
HETATM   29  C   UNL     1      28.964  40.851  52.633  1.00  0.00     0.210 C 
ENDBRANCH  24  28
ENDBRANCH   1  22
BRANCH   8  30
HETATM   30  C   UNL     1      26.617  46.329  53.881  1.00  0.00     0.409 C 
HETATM   31  F   UNL     1      25.649  47.190  54.271  1.00  0.00    -0.169 F 
HETATM   32  F   UNL     1      26.812  45.477  54.928  1.00  0.00    -0.169 F 
HETATM   33  F   UNL     1      27.770  47.014  53.743  1.00  0.00    -0.169 F 
ENDBRANCH   8  30
TORSDOF 6
ENDMDL
MODEL 6
REMARK VINA RESULT:      -8.4      7.792     11.165
REMARK  6 active torsions:
REMARK  status: ('A' for Active; 'I' for Inactive)
REMARK    1  A    between atoms: O_2  and  C_3 
REMARK    2  A    between atoms: C_5  and  C_6 
REMARK    3  A    between atoms: C_12  and  C_13 
REMARK       I    between atoms: C_13  and  N_14 
REMARK    4  A    between atoms: N_14  and  C_15 
REMARK    5  A    between atoms: C_15  and  C_16 
REMARK    6  A    between atoms: C_23  and  C_24 
ROOT
HETATM    1  C   UNL     1      18.852  49.223  50.290  1.00  0.00     0.118 C 
HETATM    2  N   UNL     1      20.296  48.932  50.234  1.00  0.00    -0.365 N 
HETATM    3  C   UNL     1      20.808  48.251  49.169  1.00  0.00     0.138 A 
HETATM    4  N   UNL     1      19.978  47.607  48.278  1.00  0.00    -0.240 N 
HETATM    5  N   UNL     1      20.626  47.019  47.264  1.00  0.00    -0.181 NA
HETATM    6  C   UNL     1      21.911  47.246  47.548  1.00  0.00     0.160 A 
HETATM    7  C   UNL     1      22.096  48.023  48.718  1.00  0.00     0.096 A 
HETATM    8  C   UNL     1      18.529  47.584  48.377  1.00  0.00     0.221 C 
HETATM    9  C   UNL     1      18.099  47.974  49.805  1.00  0.00     0.066 C 
HETATM   10  H   UNL     1      20.725  48.799  51.152  1.00  0.00     0.161 HD
ENDROOT
BRANCH   7  11
HETATM   11  C   UNL     1      23.372  48.492  49.226  1.00  0.00     0.257 C 
HETATM   12  N   UNL     1      24.362  47.540  49.294  1.00  0.00    -0.352 N 
HETATM   13  H   UNL     1      24.084  46.580  49.141  1.00  0.00     0.163 HD
HETATM   14  O   UNL     1      23.531  49.648  49.607  1.00  0.00    -0.267 OA
BRANCH  12  15
HETATM   15  C   UNL     1      25.597  47.803  49.989  1.00  0.00     0.161 C 
BRANCH  15  16
HETATM   16  C   UNL     1      25.869  46.761  51.041  1.00  0.00    -0.041 A 
HETATM   17  C   UNL     1      25.591  47.032  52.388  1.00  0.00     0.009 A 
HETATM   18  C   UNL     1      25.821  46.067  53.370  1.00  0.00     0.001 A 
HETATM   19  C   UNL     1      26.343  44.825  53.015  1.00  0.00     0.000 A 
HETATM   20  C   UNL     1      26.638  44.548  51.681  1.00  0.00     0.001 A 
HETATM   21  C   UNL     1      26.403  45.511  50.697  1.00  0.00     0.009 A 
ENDBRANCH  15  16
ENDBRANCH  12  15
ENDBRANCH   7  11
BRANCH   1  22
HETATM   22  C   UNL     1      18.507  50.512  49.540  1.00  0.00    -0.033 A 
HETATM   23  C   UNL     1      17.167  50.893  49.312  1.00  0.00     0.046 A 
HETATM   24  C   UNL     1      16.847  52.066  48.623  1.00  0.00     0.068 A 
HETATM   25  C   UNL     1      17.874  52.867  48.127  1.00  0.00     0.037 A 
HETATM   26  C   UNL     1      19.204  52.499  48.311  1.00  0.00     0.003 A 
HETATM   27  C   UNL     1      19.518  51.326  49.001  1.00  0.00     0.009 A 
BRANCH  24  28
HETATM   28  O   UNL     1      15.585  52.524  48.364  1.00  0.00    -0.356 OA
HETATM   29  C   UNL     1      14.845  53.032  49.466  1.00  0.00     0.210 C 
ENDBRANCH  24  28
ENDBRANCH   1  22
BRANCH   8  30
HETATM   30  C   UNL     1      17.951  46.227  48.034  1.00  0.00     0.409 C 
HETATM   31  F   UNL     1      18.731  45.209  48.460  1.00  0.00    -0.169 F 
HETATM   32  F   UNL     1      16.752  46.078  48.667  1.00  0.00    -0.169 F 
HETATM   33  F   UNL     1      17.699  46.056  46.721  1.00  0.00    -0.169 F 
ENDBRANCH   8  30
TORSDOF 6
ENDMDL
MODEL 7
REMARK VINA RESULT:      -8.2     16.422     17.869
REMARK  6 active torsions:
REMARK  status: ('A' for Active; 'I' for Inactive)
REMARK    1  A    between atoms: O_2  and  C_3 
REMARK    2  A    between atoms: C_5  and  C_6 
REMARK    3  A    between atoms: C_12  and  C_13 
REMARK       I    between atoms: C_13  and  N_14 
REMARK    4  A    between atoms: N_14  and  C_15 
REMARK    5  A    between atoms: C_15  and  C_16 
REMARK    6  A    between atoms: C_23  and  C_24 
ROOT
HETATM    1  C   UNL     1      36.167  47.300  65.041  1.00  0.00     0.118 C 
HETATM    2  N   UNL     1      36.743  46.132  64.353  1.00  0.00    -0.365 N 
HETATM    3  C   UNL     1      38.078  45.876  64.454  1.00  0.00     0.138 A 
HETATM    4  N   UNL     1      38.940  46.820  64.967  1.00  0.00    -0.240 N 
HETATM    5  N   UNL     1      40.212  46.406  65.041  1.00  0.00    -0.181 NA
HETATM    6  C   UNL     1      40.169  45.183  64.508  1.00  0.00     0.160 A 
HETATM    7  C   UNL     1      38.863  44.783  64.133  1.00  0.00     0.096 A 
HETATM    8  C   UNL     1      38.534  48.135  65.429  1.00  0.00     0.221 C 
HETATM    9  C   UNL     1      37.140  48.478  64.866  1.00  0.00     0.066 C 
HETATM   10  H   UNL     1      36.262  45.887  63.484  1.00  0.00     0.161 HD
ENDROOT
BRANCH   7  11
HETATM   11  C   UNL     1      38.500  43.481  63.604  1.00  0.00     0.257 C 
HETATM   12  N   UNL     1      39.437  42.491  63.786  1.00  0.00    -0.352 N 
HETATM   13  H   UNL     1      40.346  42.779  64.123  1.00  0.00     0.163 HD
HETATM   14  O   UNL     1      37.448  43.300  62.998  1.00  0.00    -0.267 OA
BRANCH  12  15
HETATM   15  C   UNL     1      39.315  41.221  63.115  1.00  0.00     0.161 C 
BRANCH  15  16
HETATM   16  C   UNL     1      39.832  40.096  63.970  1.00  0.00    -0.041 A 
HETATM   17  C   UNL     1      40.357  38.942  63.371  1.00  0.00     0.009 A 
HETATM   18  C   UNL     1      40.856  37.900  64.154  1.00  0.00     0.001 A 
HETATM   19  C   UNL     1      40.827  37.997  65.543  1.00  0.00     0.000 A 
HETATM   20  C   UNL     1      40.294  39.133  66.151  1.00  0.00     0.001 A 
HETATM   21  C   UNL     1      39.798  40.178  65.369  1.00  0.00     0.009 A 
ENDBRANCH  15  16
ENDBRANCH  12  15
ENDBRANCH   7  11
BRANCH   1  22
HETATM   22  C   UNL     1      35.803  46.979  66.492  1.00  0.00    -0.033 A 
HETATM   23  C   UNL     1      35.748  45.648  66.959  1.00  0.00     0.046 A 
HETATM   24  C   UNL     1      35.410  45.349  68.281  1.00  0.00     0.068 A 
HETATM   25  C   UNL     1      35.097  46.388  69.156  1.00  0.00     0.037 A 
HETATM   26  C   UNL     1      35.114  47.709  68.715  1.00  0.00     0.003 A 
HETATM   27  C   UNL     1      35.453  48.001  67.391  1.00  0.00     0.009 A 
BRANCH  24  28
HETATM   28  O   UNL     1      35.342  44.098  68.828  1.00  0.00    -0.356 OA
HETATM   29  C   UNL     1      34.213  43.812  69.645  1.00  0.00     0.210 C 
ENDBRANCH  24  28
ENDBRANCH   1  22
BRANCH   8  30
HETATM   30  C   UNL     1      39.515  49.216  65.025  1.00  0.00     0.409 C 
HETATM   31  F   UNL     1      39.779  49.206  63.699  1.00  0.00    -0.169 F 
HETATM   32  F   UNL     1      38.973  50.438  65.295  1.00  0.00    -0.169 F 
HETATM   33  F   UNL     1      40.683  49.173  65.696  1.00  0.00    -0.169 F 
ENDBRANCH   8  30
TORSDOF 6
ENDMDL
MODEL 8
REMARK VINA RESULT:      -8.1      6.512      9.585
REMARK  6 active torsions:
REMARK  status: ('A' for Active; 'I' for Inactive)
REMARK    1  A    between atoms: O_2  and  C_3 
REMARK    2  A    between atoms: C_5  and  C_6 
REMARK    3  A    between atoms: C_12  and  C_13 
REMARK       I    between atoms: C_13  and  N_14 
REMARK    4  A    between atoms: N_14  and  C_15 
REMARK    5  A    between atoms: C_15  and  C_16 
REMARK    6  A    between atoms: C_23  and  C_24 
ROOT
HETATM    1  C   UNL     1      19.517  47.736  49.092  1.00  0.00     0.118 C 
HETATM    2  N   UNL     1      20.206  46.446  49.270  1.00  0.00    -0.365 N 
HETATM    3  C   UNL     1      20.626  45.747  48.177  1.00  0.00     0.138 A 
HETATM    4  N   UNL     1      20.196  46.087  46.914  1.00  0.00    -0.240 N 
HETATM    5  N   UNL     1      20.727  45.335  45.942  1.00  0.00    -0.181 NA
HETATM    6  C   UNL     1      21.475  44.452  46.610  1.00  0.00     0.160 A 
HETATM    7  C   UNL     1      21.468  44.662  48.010  1.00  0.00     0.096 A 
HETATM    8  C   UNL     1      19.283  47.179  46.626  1.00  0.00     0.221 C 
HETATM    9  C   UNL     1      18.541  47.592  47.912  1.00  0.00     0.066 C 
HETATM   10  H   UNL     1      19.902  45.927  50.096  1.00  0.00     0.161 HD
ENDROOT
BRANCH   7  11
HETATM   11  C   UNL     1      22.248  43.912  48.979  1.00  0.00     0.257 C 
HETATM   12  N   UNL     1      22.936  44.673  49.893  1.00  0.00    -0.352 N 
HETATM   13  H   UNL     1      22.971  45.670  49.725  1.00  0.00     0.163 HD
HETATM   14  O   UNL     1      22.317  42.687  48.944  1.00  0.00    -0.267 OA
BRANCH  12  15
HETATM   15  C   UNL     1      23.925  44.080  50.758  1.00  0.00     0.161 C 
BRANCH  15  16
HETATM   16  C   UNL     1      24.719  45.130  51.487  1.00  0.00    -0.041 A 
HETATM   17  C   UNL     1      25.007  46.353  50.865  1.00  0.00     0.009 A 
HETATM   18  C   UNL     1      25.727  47.341  51.538  1.00  0.00     0.001 A 
HETATM   19  C   UNL     1      26.175  47.113  52.837  1.00  0.00     0.000 A 
HETATM   20  C   UNL     1      25.909  45.895  53.462  1.00  0.00     0.001 A 
HETATM   21  C   UNL     1      25.185  44.907  52.791  1.00  0.00     0.009 A 
ENDBRANCH  15  16
ENDBRANCH  12  15
ENDBRANCH   7  11
BRANCH   1  22
HETATM   22  C   UNL     1      20.508  48.895  48.966  1.00  0.00    -0.033 A 
HETATM   23  C   UNL     1      21.886  48.714  49.216  1.00  0.00     0.046 A 
HETATM   24  C   UNL     1      22.794  49.770  49.108  1.00  0.00     0.068 A 
HETATM   25  C   UNL     1      22.327  51.038  48.769  1.00  0.00     0.037 A 
HETATM   26  C   UNL     1      20.970  51.252  48.547  1.00  0.00     0.003 A 
HETATM   27  C   UNL     1      20.066  50.192  48.656  1.00  0.00     0.009 A 
BRANCH  24  28
HETATM   28  O   UNL     1      24.143  49.691  49.317  1.00  0.00    -0.356 OA
HETATM   29  C   UNL     1      24.984  49.893  48.188  1.00  0.00     0.210 C 
ENDBRANCH  24  28
ENDBRANCH   1  22
BRANCH   8  30
HETATM   30  C   UNL     1      18.270  46.816  45.560  1.00  0.00     0.409 C 
HETATM   31  F   UNL     1      17.762  45.574  45.729  1.00  0.00    -0.169 F 
HETATM   32  F   UNL     1      17.212  47.673  45.636  1.00  0.00    -0.169 F 
HETATM   33  F   UNL     1      18.739  46.920  44.301  1.00  0.00    -0.169 F 
ENDBRANCH   8  30
TORSDOF 6
ENDMDL
MODEL 9
REMARK VINA RESULT:      -8.0      3.633      7.652
REMARK  6 active torsions:
REMARK  status: ('A' for Active; 'I' for Inactive)
REMARK    1  A    between atoms: O_2  and  C_3 
REMARK    2  A    between atoms: C_5  and  C_6 
REMARK    3  A    between atoms: C_12  and  C_13 
REMARK       I    between atoms: C_13  and  N_14 
REMARK    4  A    between atoms: N_14  and  C_15 
REMARK    5  A    between atoms: C_15  and  C_16 
REMARK    6  A    between atoms: C_23  and  C_24 
ROOT
HETATM    1  C   UNL     1      26.213  41.079  51.245  1.00  0.00     0.118 C 
HETATM    2  N   UNL     1      25.279  42.190  50.990  1.00  0.00    -0.365 N 
HETATM    3  C   UNL     1      25.700  43.478  51.142  1.00  0.00     0.138 A 
HETATM    4  N   UNL     1      26.891  43.760  51.773  1.00  0.00    -0.240 N 
HETATM    5  N   UNL     1      27.188  45.066  51.808  1.00  0.00    -0.181 NA
HETATM    6  C   UNL     1      26.127  45.637  51.232  1.00  0.00     0.160 A 
HETATM    7  C   UNL     1      25.166  44.701  50.779  1.00  0.00     0.096 A 
HETATM    8  C   UNL     1      27.785  42.757  52.325  1.00  0.00     0.221 C 
HETATM    9  C   UNL     1      27.027  41.426  52.503  1.00  0.00     0.066 C 
HETATM   10  H   UNL     1      24.305  41.965  51.202  1.00  0.00     0.161 HD
ENDROOT
BRANCH   7  11
HETATM   11  C   UNL     1      23.954  45.024  50.047  1.00  0.00     0.257 C 
HETATM   12  N   UNL     1      23.948  46.256  49.438  1.00  0.00    -0.352 N 
HETATM   13  H   UNL     1      24.703  46.887  49.674  1.00  0.00     0.163 HD
HETATM   14  O   UNL     1      22.993  44.262  50.021  1.00  0.00    -0.267 OA
BRANCH  12  15
HETATM   15  C   UNL     1      22.736  46.801  48.879  1.00  0.00     0.161 C 
BRANCH  15  16
HETATM   16  C   UNL     1      22.811  48.300  48.760  1.00  0.00    -0.041 A 
HETATM   17  C   UNL     1      21.641  49.069  48.815  1.00  0.00     0.009 A 
HETATM   18  C   UNL     1      21.700  50.461  48.724  1.00  0.00     0.001 A 
HETATM   19  C   UNL     1      22.930  51.096  48.566  1.00  0.00     0.000 A 
HETATM   20  C   UNL     1      24.100  50.341  48.494  1.00  0.00     0.001 A 
HETATM   21  C   UNL     1      24.043  48.949  48.590  1.00  0.00     0.009 A 
ENDBRANCH  15  16
ENDBRANCH  12  15
ENDBRANCH   7  11
BRANCH   1  22
HETATM   22  C   UNL     1      27.053  40.752  50.008  1.00  0.00    -0.033 A 
HETATM   23  C   UNL     1      28.090  39.796  50.055  1.00  0.00     0.046 A 
HETATM   24  C   UNL     1      28.863  39.498  48.930  1.00  0.00     0.068 A 
HETATM   25  C   UNL     1      28.620  40.177  47.737  1.00  0.00     0.037 A 
HETATM   26  C   UNL     1      27.624  41.147  47.670  1.00  0.00     0.003 A 
HETATM   27  C   UNL     1      26.854  41.440  48.798  1.00  0.00     0.009 A 
BRANCH  24  28
HETATM   28  O   UNL     1      29.877  38.582  48.873  1.00  0.00    -0.356 OA
HETATM   29  C   UNL     1      30.146  37.844  50.058  1.00  0.00     0.210 C 
ENDBRANCH  24  28
ENDBRANCH   1  22
BRANCH   8  30
HETATM   30  C   UNL     1      28.372  43.178  53.656  1.00  0.00     0.409 C 
HETATM   31  F   UNL     1      27.439  43.672  54.501  1.00  0.00    -0.169 F 
HETATM   32  F   UNL     1      28.907  42.087  54.275  1.00  0.00    -0.169 F 
HETATM   33  F   UNL     1      29.374  44.073  53.552  1.00  0.00    -0.169 F 
ENDBRANCH   8  30
TORSDOF 6
ENDMDL
MODEL 10
REMARK VINA RESULT:      -8.0      6.091     10.622
REMARK  6 active torsions:
REMARK  status: ('A' for Active; 'I' for Inactive)
REMARK    1  A    between atoms: O_2  and  C_3 
REMARK    2  A    between atoms: C_5  and  C_6 
REMARK    3  A    between atoms: C_12  and  C_13 
REMARK       I    between atoms: C_13  and  N_14 
REMARK    4  A    between atoms: N_14  and  C_15 
REMARK    5  A    between atoms: C_15  and  C_16 
REMARK    6  A    between atoms: C_23  and  C_24 
ROOT
HETATM    1  C   UNL     1      21.971  45.059  48.667  1.00  0.00     0.118 C 
HETATM    2  N   UNL     1      22.224  46.509  48.733  1.00  0.00    -0.365 N 
HETATM    3  C   UNL     1      23.459  46.965  49.090  1.00  0.00     0.138 A 
HETATM    4  N   UNL     1      24.394  46.114  49.638  1.00  0.00    -0.240 N 
HETATM    5  N   UNL     1      25.570  46.699  49.896  1.00  0.00    -0.181 NA
HETATM    6  C   UNL     1      25.361  47.974  49.556  1.00  0.00     0.160 A 
HETATM    7  C   UNL     1      24.066  48.206  49.031  1.00  0.00     0.096 A 
HETATM    8  C   UNL     1      24.169  44.701  49.887  1.00  0.00     0.221 C 
HETATM    9  C   UNL     1      22.657  44.404  49.878  1.00  0.00     0.066 C 
HETATM   10  H   UNL     1      21.404  47.059  48.997  1.00  0.00     0.161 HD
ENDROOT
BRANCH   7  11
HETATM   11  C   UNL     1      23.584  49.471  48.506  1.00  0.00     0.257 C 
HETATM   12  N   UNL     1      22.690  50.137  49.310  1.00  0.00    -0.352 N 
HETATM   13  H   UNL     1      22.328  49.632  50.107  1.00  0.00     0.163 HD
HETATM   14  O   UNL     1      23.923  49.883  47.400  1.00  0.00    -0.267 OA
BRANCH  12  15
HETATM   15  C   UNL     1      21.958  51.277  48.819  1.00  0.00     0.161 C 
BRANCH  15  16
HETATM   16  C   UNL     1      20.500  51.194  49.185  1.00  0.00    -0.041 A 
HETATM   17  C   UNL     1      19.587  52.115  48.653  1.00  0.00     0.009 A 
HETATM   18  C   UNL     1      18.231  52.036  48.971  1.00  0.00     0.001 A 
HETATM   19  C   UNL     1      17.775  51.042  49.834  1.00  0.00     0.000 A 
HETATM   20  C   UNL     1      18.675  50.129  50.382  1.00  0.00     0.001 A 
HETATM   21  C   UNL     1      20.032  50.204  50.061  1.00  0.00     0.009 A 
ENDBRANCH  15  16
ENDBRANCH  12  15
ENDBRANCH   7  11
BRANCH   1  22
HETATM   22  C   UNL     1      22.371  44.476  47.310  1.00  0.00    -0.033 A 
HETATM   23  C   UNL     1      22.414  45.278  46.150  1.00  0.00     0.046 A 
HETATM   24  C   UNL     1      22.774  44.749  44.907  1.00  0.00     0.068 A 
HETATM   25  C   UNL     1      23.073  43.392  44.805  1.00  0.00     0.037 A 
HETATM   26  C   UNL     1      23.008  42.571  45.928  1.00  0.00     0.003 A 
HETATM   27  C   UNL     1      22.649  43.105  47.167  1.00  0.00     0.009 A 
BRANCH  24  28
HETATM   28  O   UNL     1      22.857  45.445  43.733  1.00  0.00    -0.356 OA
HETATM   29  C   UNL     1      23.825  45.005  42.790  1.00  0.00     0.210 C 
ENDBRANCH  24  28
ENDBRANCH   1  22
BRANCH   8  30
HETATM   30  C   UNL     1      24.759  44.249  51.206  1.00  0.00     0.409 C 
HETATM   31  F   UNL     1      26.110  44.288  51.210  1.00  0.00    -0.169 F 
HETATM   32  F   UNL     1      24.351  45.096  52.194  1.00  0.00    -0.169 F 
HETATM   33  F   UNL     1      24.364  43.018  51.588  1.00  0.00    -0.169 F 
ENDBRANCH   8  30
TORSDOF 6
ENDMDL
