MODEL 1
REMARK VINA RESULT:      -8.4      0.000      0.000
REMARK  9 active torsions:
REMARK  status: ('A' for Active; 'I' for Inactive)
REMARK    1  A    between atoms: C_5  and  C_6 
REMARK    2  A    between atoms: C_8  and  C_9 
REMARK    3  A    between atoms: C_9  and  C_10 
REMARK       I    between atoms: C_10  and  N_11 
REMARK    4  A    between atoms: N_11  and  C_12 
REMARK    5  A    between atoms: C_12  and  C_13 
REMARK    6  A    between atoms: C_13  and  N_14 
REMARK    7  A    between atoms: C_28  and  C_29 
REMARK    8  A    between atoms: C_29  and  O_30 
REMARK    9  A    between atoms: O_30  and  C_31 
ROOT
HETATM    1  C   UNL     1      26.358  42.277  50.847  1.00  0.00     0.166 C 
HETATM    2  N   UNL     1      25.468  43.362  50.396  1.00  0.00    -0.319 N 
HETATM    3  C   UNL     1      25.439  44.644  50.241  1.00  0.00     0.011 C 
HETATM    4  C   UNL     1      24.150  42.719  49.885  1.00  0.00     0.170 C 
HETATM    5  S   UNL     1      22.844  43.841  49.950  1.00  0.00    -0.086 SA
HETATM    6  C   UNL     1      24.040  45.221  50.057  1.00  0.00     0.135 C 
HETATM    7  N   UNL     1      24.105  41.541  49.359  1.00  0.00    -0.229 NA
HETATM    8  C   UNL     1      25.330  40.926  49.089  1.00  0.00     0.048 C 
HETATM    9  C   UNL     1      25.269  39.950  47.936  1.00  0.00     0.071 C 
HETATM   10  C   UNL     1      26.471  41.294  49.729  1.00  0.00     0.069 C 
ENDROOT
BRANCH   3  11
HETATM   11  C   UNL     1      26.688  45.484  50.231  1.00  0.00     0.156 C 
BRANCH  11  12
HETATM   12  C   UNL     1      26.408  46.979  50.355  1.00  0.00     0.223 C 
HETATM   13  N   UNL     1      26.519  47.695  49.193  1.00  0.00    -0.359 N 
HETATM   14  H   UNL     1      26.848  47.202  48.364  1.00  0.00     0.162 HD
HETATM   15  O   UNL     1      26.096  47.507  51.418  1.00  0.00    -0.273 OA
BRANCH  13  16
HETATM   16  C   UNL     1      26.571  49.161  49.092  1.00  0.00     0.150 C 
BRANCH  16  17
HETATM   17  C   UNL     1      25.519  49.882  48.212  1.00  0.00     0.254 C 
BRANCH  17  18
HETATM   18  N   UNL     1      24.104  49.823  48.764  1.00  0.00    -0.070 N 
HETATM   19  H   UNL     1      24.215  49.789  49.797  1.00  0.00     0.279 HD
HETATM   20  C   UNL     1      23.257  51.032  48.438  1.00  0.00     0.235 C 
HETATM   21  C   UNL     1      21.923  50.931  49.166  1.00  0.00     0.028 C 
HETATM   22  C   UNL     1      21.187  49.646  48.817  1.00  0.00     0.003 C 
HETATM   23  C   UNL     1      22.067  48.428  49.065  1.00  0.00     0.028 C 
HETATM   24  C   UNL     1      23.407  48.541  48.351  1.00  0.00     0.235 C 
ENDBRANCH  17  18
ENDBRANCH  16  17
ENDBRANCH  13  16
ENDBRANCH  11  12
ENDBRANCH   3  11
BRANCH   1  25
HETATM   25  C   UNL     1      27.414  42.669  51.868  1.00  0.00    -0.030 A 
HETATM   26  C   UNL     1      26.967  42.950  53.184  1.00  0.00     0.010 A 
HETATM   27  C   UNL     1      27.858  43.198  54.231  1.00  0.00     0.007 A 
HETATM   28  C   UNL     1      29.231  43.183  54.001  1.00  0.00    -0.062 A 
HETATM   29  C   UNL     1      30.199  43.319  55.140  1.00  0.00     0.048 C 
HETATM   30  C   UNL     1      29.690  42.944  52.702  1.00  0.00     0.007 A 
HETATM   31  C   UNL     1      28.795  42.706  51.648  1.00  0.00     0.010 A 
ENDBRANCH   1  25
BRANCH  10  32
HETATM   32  C   UNL     1      27.773  40.939  49.180  1.00  0.00     0.294 C 
HETATM   33  O   UNL     1      28.231  41.565  48.236  1.00  0.00    -0.259 OA
BRANCH  32  34
HETATM   34  O   UNL     1      28.307  39.907  49.853  1.00  0.00    -0.313 OA
BRANCH  34  35
HETATM   35  C   UNL     1      28.600  38.664  49.168  1.00  0.00     0.124 C 
HETATM   36  C   UNL     1      30.033  38.188  49.394  1.00  0.00     0.040 C 
HETATM   37  C   UNL     1      27.565  37.593  49.495  1.00  0.00     0.040 C 
ENDBRANCH  34  35
ENDBRANCH  32  34
ENDBRANCH  10  32
TORSDOF 9
ENDMDL
MODEL 2
REMARK VINA RESULT:      -8.4      2.916      5.578
REMARK  9 active torsions:
REMARK  status: ('A' for Active; 'I' for Inactive)
REMARK    1  A    between atoms: C_5  and  C_6 
REMARK    2  A    between atoms: C_8  and  C_9 
REMARK    3  A    between atoms: C_9  and  C_10 
REMARK       I    between atoms: C_10  and  N_11 
REMARK    4  A    between atoms: N_11  and  C_12 
REMARK    5  A    between atoms: C_12  and  C_13 
REMARK    6  A    between atoms: C_13  and  N_14 
REMARK    7  A    between atoms: C_28  and  C_29 
REMARK    8  A    between atoms: C_29  and  O_30 
REMARK    9  A    between atoms: O_30  and  C_31 
ROOT
HETATM    1  C   UNL     1      25.893  44.776  51.131  1.00  0.00     0.166 C 
HETATM    2  N   UNL     1      24.871  45.605  50.466  1.00  0.00    -0.319 N 
HETATM    3  C   UNL     1      23.763  45.507  49.810  1.00  0.00     0.011 C 
HETATM    4  C   UNL     1      25.243  47.095  50.695  1.00  0.00     0.170 C 
HETATM    5  S   UNL     1      24.550  48.103  49.481  1.00  0.00    -0.086 SA
HETATM    6  C   UNL     1      23.368  46.772  49.057  1.00  0.00     0.135 C 
HETATM    7  N   UNL     1      25.873  47.506  51.743  1.00  0.00    -0.229 NA
HETATM    8  C   UNL     1      26.051  46.579  52.773  1.00  0.00     0.048 C 
HETATM    9  C   UNL     1      26.151  47.214  54.141  1.00  0.00     0.071 C 
HETATM   10  C   UNL     1      25.997  45.240  52.546  1.00  0.00     0.069 C 
ENDROOT
BRANCH   3  11
HETATM   11  C   UNL     1      22.936  44.250  49.808  1.00  0.00     0.156 C 
BRANCH  11  12
HETATM   12  C   UNL     1      21.798  44.281  48.790  1.00  0.00     0.223 C 
HETATM   13  N   UNL     1      20.792  45.169  49.061  1.00  0.00    -0.359 N 
HETATM   14  H   UNL     1      20.836  45.678  49.942  1.00  0.00     0.162 HD
HETATM   15  O   UNL     1      21.787  43.567  47.791  1.00  0.00    -0.273 OA
BRANCH  13  16
HETATM   16  C   UNL     1      19.478  45.199  48.403  1.00  0.00     0.150 C 
BRANCH  16  17
HETATM   17  C   UNL     1      18.759  46.563  48.243  1.00  0.00     0.254 C 
BRANCH  17  18
HETATM   18  N   UNL     1      19.329  47.669  49.116  1.00  0.00    -0.070 N 
HETATM   19  H   UNL     1      19.973  47.191  49.777  1.00  0.00     0.279 HD
HETATM   20  C   UNL     1      20.136  48.703  48.365  1.00  0.00     0.235 C 
HETATM   21  C   UNL     1      20.778  49.666  49.354  1.00  0.00     0.028 C 
HETATM   22  C   UNL     1      19.740  50.334  50.244  1.00  0.00     0.003 C 
HETATM   23  C   UNL     1      18.869  49.296  50.940  1.00  0.00     0.028 C 
HETATM   24  C   UNL     1      18.244  48.324  49.948  1.00  0.00     0.235 C 
ENDBRANCH  17  18
ENDBRANCH  16  17
ENDBRANCH  13  16
ENDBRANCH  11  12
ENDBRANCH   3  11
BRANCH   1  25
HETATM   25  C   UNL     1      26.056  43.366  50.587  1.00  0.00    -0.030 A 
HETATM   26  C   UNL     1      26.771  43.221  49.372  1.00  0.00     0.010 A 
HETATM   27  C   UNL     1      27.089  41.967  48.845  1.00  0.00     0.007 A 
HETATM   28  C   UNL     1      26.698  40.809  49.509  1.00  0.00    -0.062 A 
HETATM   29  C   UNL     1      27.144  39.460  49.022  1.00  0.00     0.048 C 
HETATM   30  C   UNL     1      25.960  40.931  50.690  1.00  0.00     0.007 A 
HETATM   31  C   UNL     1      25.630  42.190  51.214  1.00  0.00     0.010 A 
ENDBRANCH   1  25
BRANCH  10  32
HETATM   32  C   UNL     1      25.794  44.311  53.651  1.00  0.00     0.294 C 
HETATM   33  O   UNL     1      24.694  44.216  54.175  1.00  0.00    -0.259 OA
BRANCH  32  34
HETATM   34  O   UNL     1      26.929  43.654  53.934  1.00  0.00    -0.313 OA
BRANCH  34  35
HETATM   35  C   UNL     1      28.213  44.253  53.627  1.00  0.00     0.124 C 
HETATM   36  C   UNL     1      28.930  44.783  54.866  1.00  0.00     0.040 C 
HETATM   37  C   UNL     1      29.082  43.310  52.802  1.00  0.00     0.040 C 
ENDBRANCH  34  35
ENDBRANCH  32  34
ENDBRANCH  10  32
TORSDOF 9
ENDMDL
MODEL 3
REMARK VINA RESULT:      -8.1      2.950      6.868
REMARK  9 active torsions:
REMARK  status: ('A' for Active; 'I' for Inactive)
REMARK    1  A    between atoms: C_5  and  C_6 
REMARK    2  A    between atoms: C_8  and  C_9 
REMARK    3  A    between atoms: C_9  and  C_10 
REMARK       I    between atoms: C_10  and  N_11 
REMARK    4  A    between atoms: N_11  and  C_12 
REMARK    5  A    between atoms: C_12  and  C_13 
REMARK    6  A    between atoms: C_13  and  N_14 
REMARK    7  A    between atoms: C_28  and  C_29 
REMARK    8  A    between atoms: C_29  and  O_30 
REMARK    9  A    between atoms: O_30  and  C_31 
ROOT
HETATM    1  C   UNL     1      25.822  44.817  51.219  1.00  0.00     0.166 C 
HETATM    2  N   UNL     1      24.782  45.580  50.505  1.00  0.00    -0.319 N 
HETATM    3  C   UNL     1      23.687  45.412  49.839  1.00  0.00     0.011 C 
HETATM    4  C   UNL     1      25.096  47.091  50.673  1.00  0.00     0.170 C 
HETATM    5  S   UNL     1      24.385  48.019  49.407  1.00  0.00    -0.086 SA
HETATM    6  C   UNL     1      23.258  46.629  49.027  1.00  0.00     0.135 C 
HETATM    7  N   UNL     1      25.696  47.569  51.711  1.00  0.00    -0.229 NA
HETATM    8  C   UNL     1      25.892  46.694  52.783  1.00  0.00     0.048 C 
HETATM    9  C   UNL     1      25.949  47.392  54.122  1.00  0.00     0.071 C 
HETATM   10  C   UNL     1      25.889  45.346  52.614  1.00  0.00     0.069 C 
ENDROOT
BRANCH   3  11
HETATM   11  C   UNL     1      22.906  44.128  49.882  1.00  0.00     0.156 C 
BRANCH  11  12
HETATM   12  C   UNL     1      22.525  43.609  48.497  1.00  0.00     0.223 C 
HETATM   13  N   UNL     1      23.547  43.049  47.779  1.00  0.00    -0.359 N 
HETATM   14  H   UNL     1      24.482  43.087  48.181  1.00  0.00     0.162 HD
HETATM   15  O   UNL     1      21.381  43.680  48.058  1.00  0.00    -0.273 OA
BRANCH  13  16
HETATM   16  C   UNL     1      23.510  42.730  46.345  1.00  0.00     0.150 C 
BRANCH  16  17
HETATM   17  C   UNL     1      24.140  41.398  45.864  1.00  0.00     0.254 C 
BRANCH  17  18
HETATM   18  N   UNL     1      25.606  41.510  45.478  1.00  0.00    -0.070 N 
HETATM   19  H   UNL     1      25.866  42.497  45.675  1.00  0.00     0.279 HD
HETATM   20  C   UNL     1      26.532  40.627  46.282  1.00  0.00     0.235 C 
HETATM   21  C   UNL     1      27.978  40.935  45.915  1.00  0.00     0.028 C 
HETATM   22  C   UNL     1      28.229  40.764  44.424  1.00  0.00     0.003 C 
HETATM   23  C   UNL     1      27.242  41.588  43.606  1.00  0.00     0.028 C 
HETATM   24  C   UNL     1      25.799  41.290  43.990  1.00  0.00     0.235 C 
ENDBRANCH  17  18
ENDBRANCH  16  17
ENDBRANCH  13  16
ENDBRANCH  11  12
ENDBRANCH   3  11
BRANCH   1  25
HETATM   25  C   UNL     1      26.044  43.392  50.740  1.00  0.00    -0.030 A 
HETATM   26  C   UNL     1      27.245  43.127  50.035  1.00  0.00     0.010 A 
HETATM   27  C   UNL     1      27.612  41.833  49.657  1.00  0.00     0.007 A 
HETATM   28  C   UNL     1      26.788  40.755  49.962  1.00  0.00    -0.062 A 
HETATM   29  C   UNL     1      27.231  39.349  49.677  1.00  0.00     0.048 C 
HETATM   30  C   UNL     1      25.582  41.000  50.625  1.00  0.00     0.007 A 
HETATM   31  C   UNL     1      25.207  42.301  50.994  1.00  0.00     0.010 A 
ENDBRANCH   1  25
BRANCH  10  32
HETATM   32  C   UNL     1      25.703  44.459  53.756  1.00  0.00     0.294 C 
HETATM   33  O   UNL     1      24.604  43.976  53.982  1.00  0.00    -0.259 OA
BRANCH  32  34
HETATM   34  O   UNL     1      26.856  44.296  54.423  1.00  0.00    -0.313 OA
BRANCH  34  35
HETATM   35  C   UNL     1      27.971  43.617  53.795  1.00  0.00     0.124 C 
HETATM   36  C   UNL     1      29.317  43.996  54.409  1.00  0.00     0.040 C 
HETATM   37  C   UNL     1      27.748  42.109  53.750  1.00  0.00     0.040 C 
ENDBRANCH  34  35
ENDBRANCH  32  34
ENDBRANCH  10  32
TORSDOF 9
ENDMDL
MODEL 4
REMARK VINA RESULT:      -8.1      7.487     13.966
REMARK  9 active torsions:
REMARK  status: ('A' for Active; 'I' for Inactive)
REMARK    1  A    between atoms: C_5  and  C_6 
REMARK    2  A    between atoms: C_8  and  C_9 
REMARK    3  A    between atoms: C_9  and  C_10 
REMARK       I    between atoms: C_10  and  N_11 
REMARK    4  A    between atoms: N_11  and  C_12 
REMARK    5  A    between atoms: C_12  and  C_13 
REMARK    6  A    between atoms: C_13  and  N_14 
REMARK    7  A    between atoms: C_28  and  C_29 
REMARK    8  A    between atoms: C_29  and  O_30 
REMARK    9  A    between atoms: O_30  and  C_31 
ROOT
HETATM    1  C   UNL     1      16.105  52.599  47.991  1.00  0.00     0.166 C 
HETATM    2  N   UNL     1      15.419  51.758  46.993  1.00  0.00    -0.319 N 
HETATM    3  C   UNL     1      15.258  50.521  46.656  1.00  0.00     0.011 C 
HETATM    4  C   UNL     1      14.564  52.688  46.091  1.00  0.00     0.170 C 
HETATM    5  S   UNL     1      14.258  51.959  44.559  1.00  0.00    -0.086 SA
HETATM    6  C   UNL     1      14.688  50.324  45.256  1.00  0.00     0.135 C 
HETATM    7  N   UNL     1      14.051  53.794  46.513  1.00  0.00    -0.229 NA
HETATM    8  C   UNL     1      14.135  54.041  47.886  1.00  0.00     0.048 C 
HETATM    9  C   UNL     1      13.015  54.912  48.407  1.00  0.00     0.071 C 
HETATM   10  C   UNL     1      15.066  53.432  48.666  1.00  0.00     0.069 C 
ENDROOT
BRANCH   3  11
HETATM   11  C   UNL     1      15.592  49.383  47.582  1.00  0.00     0.156 C 
BRANCH  11  12
HETATM   12  C   UNL     1      16.717  48.493  47.058  1.00  0.00     0.223 C 
HETATM   13  N   UNL     1      16.497  47.146  47.164  1.00  0.00    -0.359 N 
HETATM   14  H   UNL     1      15.651  46.842  47.643  1.00  0.00     0.162 HD
HETATM   15  O   UNL     1      17.746  48.950  46.567  1.00  0.00    -0.273 OA
BRANCH  13  16
HETATM   16  C   UNL     1      17.512  46.097  46.992  1.00  0.00     0.150 C 
BRANCH  16  17
HETATM   17  C   UNL     1      18.458  45.779  48.178  1.00  0.00     0.254 C 
BRANCH  17  18
HETATM   18  N   UNL     1      19.886  46.260  47.978  1.00  0.00    -0.070 N 
HETATM   19  H   UNL     1      20.011  46.324  46.949  1.00  0.00     0.279 HD
HETATM   20  C   UNL     1      20.169  47.627  48.556  1.00  0.00     0.235 C 
HETATM   21  C   UNL     1      21.575  48.065  48.164  1.00  0.00     0.028 C 
HETATM   22  C   UNL     1      22.624  47.059  48.616  1.00  0.00     0.003 C 
HETATM   23  C   UNL     1      22.297  45.662  48.106  1.00  0.00     0.028 C 
HETATM   24  C   UNL     1      20.884  45.237  48.484  1.00  0.00     0.235 C 
ENDBRANCH  17  18
ENDBRANCH  16  17
ENDBRANCH  13  16
ENDBRANCH  11  12
ENDBRANCH   3  11
BRANCH   1  25
HETATM   25  C   UNL     1      17.377  52.017  48.584  1.00  0.00    -0.030 A 
HETATM   26  C   UNL     1      18.602  52.381  47.969  1.00  0.00     0.010 A 
HETATM   27  C   UNL     1      19.838  52.008  48.502  1.00  0.00     0.007 A 
HETATM   28  C   UNL     1      19.898  51.249  49.667  1.00  0.00    -0.062 A 
HETATM   29  C   UNL     1      21.217  50.953  50.320  1.00  0.00     0.048 C 
HETATM   30  C   UNL     1      18.701  50.850  50.269  1.00  0.00     0.007 A 
HETATM   31  C   UNL     1      17.459  51.214  49.727  1.00  0.00     0.010 A 
ENDBRANCH   1  25
BRANCH  10  32
HETATM   32  C   UNL     1      14.902  53.390  50.114  1.00  0.00     0.294 C 
HETATM   33  O   UNL     1      14.214  52.521  50.626  1.00  0.00    -0.259 OA
BRANCH  32  34
HETATM   34  O   UNL     1      15.592  54.381  50.699  1.00  0.00    -0.313 OA
BRANCH  34  35
HETATM   35  C   UNL     1      14.895  55.523  51.257  1.00  0.00     0.124 C 
HETATM   36  C   UNL     1      14.968  55.573  52.781  1.00  0.00     0.040 C 
HETATM   37  C   UNL     1      15.347  56.824  50.602  1.00  0.00     0.040 C 
ENDBRANCH  34  35
ENDBRANCH  32  34
ENDBRANCH  10  32
TORSDOF 9
ENDMDL
MODEL 5
REMARK VINA RESULT:      -8.1      3.487      7.342
REMARK  9 active torsions:
REMARK  status: ('A' for Active; 'I' for Inactive)
REMARK    1  A    between atoms: C_5  and  C_6 
REMARK    2  A    between atoms: C_8  and  C_9 
REMARK    3  A    between atoms: C_9  and  C_10 
REMARK       I    between atoms: C_10  and  N_11 
REMARK    4  A    between atoms: N_11  and  C_12 
REMARK    5  A    between atoms: C_12  and  C_13 
REMARK    6  A    between atoms: C_13  and  N_14 
REMARK    7  A    between atoms: C_28  and  C_29 
REMARK    8  A    between atoms: C_29  and  O_30 
REMARK    9  A    between atoms: O_30  and  C_31 
ROOT
HETATM    1  C   UNL     1      25.276  42.465  48.292  1.00  0.00     0.166 C 
HETATM    2  N   UNL     1      26.063  41.220  48.231  1.00  0.00    -0.319 N 
HETATM    3  C   UNL     1      26.632  40.348  48.997  1.00  0.00     0.011 C 
HETATM    4  C   UNL     1      26.188  40.805  46.741  1.00  0.00     0.170 C 
HETATM    5  S   UNL     1      27.565  39.799  46.488  1.00  0.00    -0.086 SA
HETATM    6  C   UNL     1      27.629  39.444  48.281  1.00  0.00     0.135 C 
HETATM    7  N   UNL     1      25.287  41.081  45.859  1.00  0.00    -0.229 NA
HETATM    8  C   UNL     1      24.085  41.612  46.336  1.00  0.00     0.048 C 
HETATM    9  C   UNL     1      22.899  41.293  45.455  1.00  0.00     0.071 C 
HETATM   10  C   UNL     1      24.006  42.230  47.543  1.00  0.00     0.069 C 
ENDROOT
BRANCH   3  11
HETATM   11  C   UNL     1      26.317  40.236  50.464  1.00  0.00     0.156 C 
BRANCH  11  12
HETATM   12  C   UNL     1      27.419  40.797  51.360  1.00  0.00     0.223 C 
HETATM   13  N   UNL     1      27.173  40.728  52.705  1.00  0.00    -0.359 N 
HETATM   14  H   UNL     1      26.260  40.385  53.001  1.00  0.00     0.162 HD
HETATM   15  O   UNL     1      28.458  41.270  50.910  1.00  0.00    -0.273 OA
BRANCH  13  16
HETATM   16  C   UNL     1      27.930  41.431  53.750  1.00  0.00     0.150 C 
BRANCH  16  17
HETATM   17  C   UNL     1      27.869  42.979  53.796  1.00  0.00     0.254 C 
BRANCH  17  18
HETATM   18  N   UNL     1      28.722  43.601  54.890  1.00  0.00    -0.070 N 
HETATM   19  H   UNL     1      28.339  43.226  55.781  1.00  0.00     0.279 HD
HETATM   20  C   UNL     1      30.184  43.225  54.830  1.00  0.00     0.235 C 
HETATM   21  C   UNL     1      30.904  43.777  56.054  1.00  0.00     0.028 C 
HETATM   22  C   UNL     1      30.738  45.286  56.170  1.00  0.00     0.003 C 
HETATM   23  C   UNL     1      29.267  45.677  56.147  1.00  0.00     0.028 C 
HETATM   24  C   UNL     1      28.547  45.106  54.932  1.00  0.00     0.235 C 
ENDBRANCH  17  18
ENDBRANCH  16  17
ENDBRANCH  13  16
ENDBRANCH  11  12
ENDBRANCH   3  11
BRANCH   1  25
HETATM   25  C   UNL     1      25.499  43.330  49.521  1.00  0.00    -0.030 A 
HETATM   26  C   UNL     1      26.480  44.349  49.426  1.00  0.00     0.010 A 
HETATM   27  C   UNL     1      26.682  45.280  50.446  1.00  0.00     0.007 A 
HETATM   28  C   UNL     1      25.917  45.224  51.607  1.00  0.00    -0.062 A 
HETATM   29  C   UNL     1      26.034  46.295  52.654  1.00  0.00     0.048 C 
HETATM   30  C   UNL     1      24.969  44.204  51.736  1.00  0.00     0.007 A 
HETATM   31  C   UNL     1      24.774  43.261  50.716  1.00  0.00     0.010 A 
ENDBRANCH   1  25
BRANCH  10  32
HETATM   32  C   UNL     1      22.714  42.424  48.190  1.00  0.00     0.294 C 
HETATM   33  O   UNL     1      22.281  41.578  48.958  1.00  0.00    -0.259 OA
BRANCH  32  34
HETATM   34  O   UNL     1      22.167  43.592  47.818  1.00  0.00    -0.313 OA
BRANCH  34  35
HETATM   35  C   UNL     1      21.914  44.624  48.804  1.00  0.00     0.124 C 
HETATM   36  C   UNL     1      22.930  45.762  48.743  1.00  0.00     0.040 C 
HETATM   37  C   UNL     1      20.473  45.116  48.734  1.00  0.00     0.040 C 
ENDBRANCH  34  35
ENDBRANCH  32  34
ENDBRANCH  10  32
TORSDOF 9
ENDMDL
MODEL 6
REMARK VINA RESULT:      -8.0      9.537     13.273
REMARK  9 active torsions:
REMARK  status: ('A' for Active; 'I' for Inactive)
REMARK    1  A    between atoms: C_5  and  C_6 
REMARK    2  A    between atoms: C_8  and  C_9 
REMARK    3  A    between atoms: C_9  and  C_10 
REMARK       I    between atoms: C_10  and  N_11 
REMARK    4  A    between atoms: N_11  and  C_12 
REMARK    5  A    between atoms: C_12  and  C_13 
REMARK    6  A    between atoms: C_13  and  N_14 
REMARK    7  A    between atoms: C_28  and  C_29 
REMARK    8  A    between atoms: C_29  and  O_30 
REMARK    9  A    between atoms: O_30  and  C_31 
ROOT
HETATM    1  C   UNL     1      18.210  49.785  46.678  1.00  0.00     0.166 C 
HETATM    2  N   UNL     1      19.213  50.125  47.704  1.00  0.00    -0.319 N 
HETATM    3  C   UNL     1      19.677  51.133  48.365  1.00  0.00     0.011 C 
HETATM    4  C   UNL     1      19.880  48.805  48.175  1.00  0.00     0.170 C 
HETATM    5  S   UNL     1      21.441  49.101  48.844  1.00  0.00    -0.086 SA
HETATM    6  C   UNL     1      21.010  50.866  49.056  1.00  0.00     0.135 C 
HETATM    7  N   UNL     1      19.264  47.671  48.178  1.00  0.00    -0.229 NA
HETATM    8  C   UNL     1      17.892  47.701  47.914  1.00  0.00     0.048 C 
HETATM    9  C   UNL     1      17.133  46.565  48.559  1.00  0.00     0.071 C 
HETATM   10  C   UNL     1      17.315  48.739  47.254  1.00  0.00     0.069 C 
ENDROOT
BRANCH   3  11
HETATM   11  C   UNL     1      18.949  52.446  48.452  1.00  0.00     0.156 C 
BRANCH  11  12
HETATM   12  C   UNL     1      17.761  52.412  49.410  1.00  0.00     0.223 C 
HETATM   13  N   UNL     1      16.859  53.432  49.264  1.00  0.00    -0.359 N 
HETATM   14  H   UNL     1      17.082  54.165  48.592  1.00  0.00     0.162 HD
HETATM   15  O   UNL     1      17.615  51.529  50.250  1.00  0.00    -0.273 OA
BRANCH  13  16
HETATM   16  C   UNL     1      15.797  53.780  50.219  1.00  0.00     0.150 C 
BRANCH  16  17
HETATM   17  C   UNL     1      14.806  54.911  49.847  1.00  0.00     0.254 C 
BRANCH  17  18
HETATM   18  N   UNL     1      14.635  55.966  50.929  1.00  0.00    -0.070 N 
HETATM   19  H   UNL     1      13.625  56.212  50.912  1.00  0.00     0.279 HD
HETATM   20  C   UNL     1      14.962  55.486  52.324  1.00  0.00     0.235 C 
HETATM   21  C   UNL     1      14.609  56.572  53.332  1.00  0.00     0.028 C 
HETATM   22  C   UNL     1      15.329  57.878  53.028  1.00  0.00     0.003 C 
HETATM   23  C   UNL     1      15.069  58.322  51.594  1.00  0.00     0.028 C 
HETATM   24  C   UNL     1      15.405  57.227  50.591  1.00  0.00     0.235 C 
ENDBRANCH  17  18
ENDBRANCH  16  17
ENDBRANCH  13  16
ENDBRANCH  11  12
ENDBRANCH   3  11
BRANCH   1  25
HETATM   25  C   UNL     1      17.855  50.899  45.706  1.00  0.00    -0.030 A 
HETATM   26  C   UNL     1      18.329  50.770  44.376  1.00  0.00     0.010 A 
HETATM   27  C   UNL     1      17.961  51.666  43.370  1.00  0.00     0.007 A 
HETATM   28  C   UNL     1      17.112  52.731  43.656  1.00  0.00    -0.062 A 
HETATM   29  C   UNL     1      16.607  53.623  42.559  1.00  0.00     0.048 C 
HETATM   30  C   UNL     1      16.664  52.895  44.970  1.00  0.00     0.007 A 
HETATM   31  C   UNL     1      17.042  52.002  45.983  1.00  0.00     0.010 A 
ENDBRANCH   1  25
BRANCH  10  32
HETATM   32  C   UNL     1      15.874  48.950  47.327  1.00  0.00     0.294 C 
HETATM   33  O   UNL     1      15.405  49.668  48.196  1.00  0.00    -0.259 OA
BRANCH  32  34
HETATM   34  O   UNL     1      15.245  48.278  46.349  1.00  0.00    -0.313 OA
BRANCH  34  35
HETATM   35  C   UNL     1      14.007  48.789  45.794  1.00  0.00     0.124 C 
HETATM   36  C   UNL     1      14.226  49.962  44.842  1.00  0.00     0.040 C 
HETATM   37  C   UNL     1      13.176  47.672  45.173  1.00  0.00     0.040 C 
ENDBRANCH  34  35
ENDBRANCH  32  34
ENDBRANCH  10  32
TORSDOF 9
ENDMDL
MODEL 7
REMARK VINA RESULT:      -8.0      9.459     13.199
REMARK  9 active torsions:
REMARK  status: ('A' for Active; 'I' for Inactive)
REMARK    1  A    between atoms: C_5  and  C_6 
REMARK    2  A    between atoms: C_8  and  C_9 
REMARK    3  A    between atoms: C_9  and  C_10 
REMARK       I    between atoms: C_10  and  N_11 
REMARK    4  A    between atoms: N_11  and  C_12 
REMARK    5  A    between atoms: C_12  and  C_13 
REMARK    6  A    between atoms: C_13  and  N_14 
REMARK    7  A    between atoms: C_28  and  C_29 
REMARK    8  A    between atoms: C_29  and  O_30 
REMARK    9  A    between atoms: O_30  and  C_31 
ROOT
HETATM    1  C   UNL     1      18.278  49.756  46.652  1.00  0.00     0.166 C 
HETATM    2  N   UNL     1      19.294  50.083  47.669  1.00  0.00    -0.319 N 
HETATM    3  C   UNL     1      19.765  51.082  48.338  1.00  0.00     0.011 C 
HETATM    4  C   UNL     1      19.973  48.758  48.110  1.00  0.00     0.170 C 
HETATM    5  S   UNL     1      21.542  49.049  48.760  1.00  0.00    -0.086 SA
HETATM    6  C   UNL     1      21.109  50.810  49.005  1.00  0.00     0.135 C 
HETATM    7  N   UNL     1      19.360  47.622  48.103  1.00  0.00    -0.229 NA
HETATM    8  C   UNL     1      17.985  47.652  47.860  1.00  0.00     0.048 C 
HETATM    9  C   UNL     1      17.238  46.503  48.499  1.00  0.00     0.071 C 
HETATM   10  C   UNL     1      17.394  48.698  47.224  1.00  0.00     0.069 C 
ENDROOT
BRANCH   3  11
HETATM   11  C   UNL     1      19.033  52.391  48.456  1.00  0.00     0.156 C 
BRANCH  11  12
HETATM   12  C   UNL     1      17.836  52.329  49.400  1.00  0.00     0.223 C 
HETATM   13  N   UNL     1      16.922  53.339  49.258  1.00  0.00    -0.359 N 
HETATM   14  H   UNL     1      17.142  54.084  48.599  1.00  0.00     0.162 HD
HETATM   15  O   UNL     1      17.693  51.432  50.226  1.00  0.00    -0.273 OA
BRANCH  13  16
HETATM   16  C   UNL     1      15.846  53.658  50.206  1.00  0.00     0.150 C 
BRANCH  16  17
HETATM   17  C   UNL     1      15.164  55.047  50.114  1.00  0.00     0.254 C 
BRANCH  17  18
HETATM   18  N   UNL     1      14.680  55.409  48.720  1.00  0.00    -0.070 N 
HETATM   19  H   UNL     1      15.533  55.696  48.200  1.00  0.00     0.279 HD
HETATM   20  C   UNL     1      14.051  54.263  47.962  1.00  0.00     0.235 C 
HETATM   21  C   UNL     1      13.746  54.701  46.535  1.00  0.00     0.028 C 
HETATM   22  C   UNL     1      12.847  55.929  46.503  1.00  0.00     0.003 C 
HETATM   23  C   UNL     1      13.436  57.059  47.336  1.00  0.00     0.028 C 
HETATM   24  C   UNL     1      13.757  56.611  48.756  1.00  0.00     0.235 C 
ENDBRANCH  17  18
ENDBRANCH  16  17
ENDBRANCH  13  16
ENDBRANCH  11  12
ENDBRANCH   3  11
BRANCH   1  25
HETATM   25  C   UNL     1      17.906  50.883  45.702  1.00  0.00    -0.030 A 
HETATM   26  C   UNL     1      18.377  50.787  44.369  1.00  0.00     0.010 A 
HETATM   27  C   UNL     1      17.995  51.697  43.381  1.00  0.00     0.007 A 
HETATM   28  C   UNL     1      17.133  52.744  43.689  1.00  0.00    -0.062 A 
HETATM   29  C   UNL     1      16.613  53.651  42.611  1.00  0.00     0.048 C 
HETATM   30  C   UNL     1      16.686  52.878  45.007  1.00  0.00     0.007 A 
HETATM   31  C   UNL     1      17.079  51.970  46.003  1.00  0.00     0.010 A 
ENDBRANCH   1  25
BRANCH  10  32
HETATM   32  C   UNL     1      15.954  48.903  47.321  1.00  0.00     0.294 C 
HETATM   33  O   UNL     1      15.487  49.522  48.264  1.00  0.00    -0.259 OA
BRANCH  32  34
HETATM   34  O   UNL     1      15.323  48.344  46.276  1.00  0.00    -0.313 OA
BRANCH  34  35
HETATM   35  C   UNL     1      14.039  48.857  45.842  1.00  0.00     0.124 C 
HETATM   36  C   UNL     1      14.167  50.020  44.862  1.00  0.00     0.040 C 
HETATM   37  C   UNL     1      13.144  47.739  45.317  1.00  0.00     0.040 C 
ENDBRANCH  34  35
ENDBRANCH  32  34
ENDBRANCH  10  32
TORSDOF 9
ENDMDL
MODEL 8
REMARK VINA RESULT:      -7.8      5.577     10.765
REMARK  9 active torsions:
REMARK  status: ('A' for Active; 'I' for Inactive)
REMARK    1  A    between atoms: C_5  and  C_6 
REMARK    2  A    between atoms: C_8  and  C_9 
REMARK    3  A    between atoms: C_9  and  C_10 
REMARK       I    between atoms: C_10  and  N_11 
REMARK    4  A    between atoms: N_11  and  C_12 
REMARK    5  A    between atoms: C_12  and  C_13 
REMARK    6  A    between atoms: C_13  and  N_14 
REMARK    7  A    between atoms: C_28  and  C_29 
REMARK    8  A    between atoms: C_29  and  O_30 
REMARK    9  A    between atoms: O_30  and  C_31 
ROOT
HETATM    1  C   UNL     1      18.108  48.760  46.627  1.00  0.00     0.166 C 
HETATM    2  N   UNL     1      18.664  47.521  46.053  1.00  0.00    -0.319 N 
HETATM    3  C   UNL     1      19.511  46.581  46.314  1.00  0.00     0.011 C 
HETATM    4  C   UNL     1      17.931  47.242  44.714  1.00  0.00     0.170 C 
HETATM    5  S   UNL     1      18.887  46.256  43.674  1.00  0.00    -0.086 SA
HETATM    6  C   UNL     1      19.903  45.739  45.105  1.00  0.00     0.135 C 
HETATM    7  N   UNL     1      16.710  47.602  44.497  1.00  0.00    -0.229 NA
HETATM    8  C   UNL     1      15.996  48.094  45.593  1.00  0.00     0.048 C 
HETATM    9  C   UNL     1      14.506  47.864  45.489  1.00  0.00     0.071 C 
HETATM   10  C   UNL     1      16.625  48.601  46.685  1.00  0.00     0.069 C 
ENDROOT
BRANCH   3  11
HETATM   11  C   UNL     1      20.045  46.338  47.699  1.00  0.00     0.156 C 
BRANCH  11  12
HETATM   12  C   UNL     1      21.562  46.485  47.794  1.00  0.00     0.223 C 
HETATM   13  N   UNL     1      22.163  45.743  48.775  1.00  0.00    -0.359 N 
HETATM   14  H   UNL     1      21.560  45.218  49.406  1.00  0.00     0.162 HD
HETATM   15  O   UNL     1      22.203  47.210  47.038  1.00  0.00    -0.273 OA
BRANCH  13  16
HETATM   16  C   UNL     1      23.546  45.909  49.247  1.00  0.00     0.150 C 
BRANCH  16  17
HETATM   17  C   UNL     1      23.945  47.248  49.917  1.00  0.00     0.254 C 
BRANCH  17  18
HETATM   18  N   UNL     1      25.047  48.000  49.190  1.00  0.00    -0.070 N 
HETATM   19  H   UNL     1      25.239  47.444  48.333  1.00  0.00     0.279 HD
HETATM   20  C   UNL     1      24.665  49.394  48.750  1.00  0.00     0.235 C 
HETATM   21  C   UNL     1      25.785  49.988  47.905  1.00  0.00     0.028 C 
HETATM   22  C   UNL     1      27.109  50.002  48.656  1.00  0.00     0.003 C 
HETATM   23  C   UNL     1      27.458  48.614  49.175  1.00  0.00     0.028 C 
HETATM   24  C   UNL     1      26.327  48.016  50.003  1.00  0.00     0.235 C 
ENDBRANCH  17  18
ENDBRANCH  16  17
ENDBRANCH  13  16
ENDBRANCH  11  12
ENDBRANCH   3  11
BRANCH   1  25
HETATM   25  C   UNL     1      19.014  49.509  47.590  1.00  0.00    -0.030 A 
HETATM   26  C   UNL     1      18.981  49.110  48.950  1.00  0.00     0.010 A 
HETATM   27  C   UNL     1      19.859  49.640  49.899  1.00  0.00     0.007 A 
HETATM   28  C   UNL     1      20.797  50.597  49.526  1.00  0.00    -0.062 A 
HETATM   29  C   UNL     1      21.829  51.079  50.506  1.00  0.00     0.048 C 
HETATM   30  C   UNL     1      20.821  51.030  48.197  1.00  0.00     0.007 A 
HETATM   31  C   UNL     1      19.932  50.506  47.247  1.00  0.00     0.010 A 
ENDBRANCH   1  25
BRANCH  10  32
HETATM   32  C   UNL     1      15.910  48.743  47.948  1.00  0.00     0.294 C 
HETATM   33  O   UNL     1      15.935  47.839  48.770  1.00  0.00    -0.259 OA
BRANCH  32  34
HETATM   34  O   UNL     1      15.299  49.936  48.017  1.00  0.00    -0.313 OA
BRANCH  34  35
HETATM   35  C   UNL     1      16.083  51.154  48.056  1.00  0.00     0.124 C 
HETATM   36  C   UNL     1      15.556  52.227  47.107  1.00  0.00     0.040 C 
HETATM   37  C   UNL     1      16.249  51.661  49.485  1.00  0.00     0.040 C 
ENDBRANCH  34  35
ENDBRANCH  32  34
ENDBRANCH  10  32
TORSDOF 9
ENDMDL
MODEL 9
REMARK VINA RESULT:      -7.6     12.744     15.813
REMARK  9 active torsions:
REMARK  status: ('A' for Active; 'I' for Inactive)
REMARK    1  A    between atoms: C_5  and  C_6 
REMARK    2  A    between atoms: C_8  and  C_9 
REMARK    3  A    between atoms: C_9  and  C_10 
REMARK       I    between atoms: C_10  and  N_11 
REMARK    4  A    between atoms: N_11  and  C_12 
REMARK    5  A    between atoms: C_12  and  C_13 
REMARK    6  A    between atoms: C_13  and  N_14 
REMARK    7  A    between atoms: C_28  and  C_29 
REMARK    8  A    between atoms: C_29  and  O_30 
REMARK    9  A    between atoms: O_30  and  C_31 
ROOT
HETATM    1  C   UNL     1      37.167  51.205  42.236  1.00  0.00     0.166 C 
HETATM    2  N   UNL     1      37.657  51.728  40.947  1.00  0.00    -0.319 N 
HETATM    3  C   UNL     1      37.284  52.455  39.947  1.00  0.00     0.011 C 
HETATM    4  C   UNL     1      39.139  51.294  40.788  1.00  0.00     0.170 C 
HETATM    5  S   UNL     1      39.604  51.266  39.129  1.00  0.00    -0.086 SA
HETATM    6  C   UNL     1      38.169  52.322  38.713  1.00  0.00     0.135 C 
HETATM    7  N   UNL     1      39.929  51.119  41.794  1.00  0.00    -0.229 NA
HETATM    8  C   UNL     1      39.452  51.521  43.044  1.00  0.00     0.048 C 
HETATM    9  C   UNL     1      40.549  51.927  44.001  1.00  0.00     0.071 C 
HETATM   10  C   UNL     1      38.122  51.650  43.293  1.00  0.00     0.069 C 
ENDROOT
BRANCH   3  11
HETATM   11  C   UNL     1      36.086  53.362  40.012  1.00  0.00     0.156 C 
BRANCH  11  12
HETATM   12  C   UNL     1      34.811  52.714  39.478  1.00  0.00     0.223 C 
HETATM   13  N   UNL     1      33.640  53.251  39.944  1.00  0.00    -0.359 N 
HETATM   14  H   UNL     1      33.705  53.977  40.656  1.00  0.00     0.162 HD
HETATM   15  O   UNL     1      34.828  51.782  38.680  1.00  0.00    -0.273 OA
BRANCH  13  16
HETATM   16  C   UNL     1      32.307  52.647  39.806  1.00  0.00     0.150 C 
BRANCH  16  17
HETATM   17  C   UNL     1      31.159  53.170  40.705  1.00  0.00     0.254 C 
BRANCH  17  18
HETATM   18  N   UNL     1      29.979  52.219  40.819  1.00  0.00    -0.070 N 
HETATM   19  H   UNL     1      30.133  51.698  41.705  1.00  0.00     0.279 HD
HETATM   20  C   UNL     1      28.635  52.902  40.924  1.00  0.00     0.235 C 
HETATM   21  C   UNL     1      27.553  51.863  41.186  1.00  0.00     0.028 C 
HETATM   22  C   UNL     1      27.531  50.789  40.107  1.00  0.00     0.003 C 
HETATM   23  C   UNL     1      28.905  50.155  39.940  1.00  0.00     0.028 C 
HETATM   24  C   UNL     1      29.987  51.199  39.697  1.00  0.00     0.235 C 
ENDBRANCH  17  18
ENDBRANCH  16  17
ENDBRANCH  13  16
ENDBRANCH  11  12
ENDBRANCH   3  11
BRANCH   1  25
HETATM   25  C   UNL     1      35.663  51.015  42.345  1.00  0.00    -0.030 A 
HETATM   26  C   UNL     1      35.093  49.941  41.616  1.00  0.00     0.010 A 
HETATM   27  C   UNL     1      33.745  49.596  41.738  1.00  0.00     0.007 A 
HETATM   28  C   UNL     1      32.912  50.318  42.587  1.00  0.00    -0.062 A 
HETATM   29  C   UNL     1      31.496  49.878  42.825  1.00  0.00     0.048 C 
HETATM   30  C   UNL     1      33.447  51.404  43.286  1.00  0.00     0.007 A 
HETATM   31  C   UNL     1      34.798  51.758  43.155  1.00  0.00     0.010 A 
ENDBRANCH   1  25
BRANCH  10  32
HETATM   32  C   UNL     1      37.658  52.425  44.438  1.00  0.00     0.294 C 
HETATM   33  O   UNL     1      37.474  51.876  45.514  1.00  0.00    -0.259 OA
BRANCH  32  34
HETATM   34  O   UNL     1      37.503  53.716  44.105  1.00  0.00    -0.313 OA
BRANCH  34  35
HETATM   35  C   UNL     1      38.314  54.735  44.743  1.00  0.00     0.124 C 
HETATM   36  C   UNL     1      38.412  56.015  43.917  1.00  0.00     0.040 C 
HETATM   37  C   UNL     1      37.856  54.991  46.175  1.00  0.00     0.040 C 
ENDBRANCH  34  35
ENDBRANCH  32  34
ENDBRANCH  10  32
TORSDOF 9
ENDMDL
MODEL 10
REMARK VINA RESULT:      -7.5      4.993     10.885
REMARK  9 active torsions:
REMARK  status: ('A' for Active; 'I' for Inactive)
REMARK    1  A    between atoms: C_5  and  C_6 
REMARK    2  A    between atoms: C_8  and  C_9 
REMARK    3  A    between atoms: C_9  and  C_10 
REMARK       I    between atoms: C_10  and  N_11 
REMARK    4  A    between atoms: N_11  and  C_12 
REMARK    5  A    between atoms: C_12  and  C_13 
REMARK    6  A    between atoms: C_13  and  N_14 
REMARK    7  A    between atoms: C_28  and  C_29 
REMARK    8  A    between atoms: C_29  and  O_30 
REMARK    9  A    between atoms: O_30  and  C_31 
ROOT
HETATM    1  C   UNL     1      18.341  48.785  46.589  1.00  0.00     0.166 C 
HETATM    2  N   UNL     1      19.030  47.628  45.987  1.00  0.00    -0.319 N 
HETATM    3  C   UNL     1      19.941  46.750  46.247  1.00  0.00     0.011 C 
HETATM    4  C   UNL     1      18.389  47.359  44.599  1.00  0.00     0.170 C 
HETATM    5  S   UNL     1      19.476  46.511  43.565  1.00  0.00    -0.086 SA
HETATM    6  C   UNL     1      20.462  46.008  45.021  1.00  0.00     0.135 C 
HETATM    7  N   UNL     1      17.154  47.626  44.335  1.00  0.00    -0.229 NA
HETATM    8  C   UNL     1      16.348  47.999  45.414  1.00  0.00     0.048 C 
HETATM    9  C   UNL     1      14.890  47.650  45.221  1.00  0.00     0.071 C 
HETATM   10  C   UNL     1      16.876  48.499  46.561  1.00  0.00     0.069 C 
ENDROOT
BRANCH   3  11
HETATM   11  C   UNL     1      20.425  46.481  47.645  1.00  0.00     0.156 C 
BRANCH  11  12
HETATM   12  C   UNL     1      21.821  47.038  47.916  1.00  0.00     0.223 C 
HETATM   13  N   UNL     1      22.485  46.470  48.970  1.00  0.00    -0.359 N 
HETATM   14  H   UNL     1      21.981  45.787  49.533  1.00  0.00     0.162 HD
HETATM   15  O   UNL     1      22.321  47.926  47.232  1.00  0.00    -0.273 OA
BRANCH  13  16
HETATM   16  C   UNL     1      23.703  47.001  49.599  1.00  0.00     0.150 C 
BRANCH  16  17
HETATM   17  C   UNL     1      24.765  46.000  50.122  1.00  0.00     0.254 C 
BRANCH  17  18
HETATM   18  N   UNL     1      24.917  45.991  51.634  1.00  0.00    -0.070 N 
HETATM   19  H   UNL     1      23.985  46.265  52.004  1.00  0.00     0.279 HD
HETATM   20  C   UNL     1      25.258  44.640  52.218  1.00  0.00     0.235 C 
HETATM   21  C   UNL     1      25.234  44.721  53.739  1.00  0.00     0.028 C 
HETATM   22  C   UNL     1      26.183  45.791  54.261  1.00  0.00     0.003 C 
HETATM   23  C   UNL     1      25.897  47.138  53.612  1.00  0.00     0.028 C 
HETATM   24  C   UNL     1      25.903  47.048  52.091  1.00  0.00     0.235 C 
ENDBRANCH  17  18
ENDBRANCH  16  17
ENDBRANCH  13  16
ENDBRANCH  11  12
ENDBRANCH   3  11
BRANCH   1  25
HETATM   25  C   UNL     1      19.132  49.556  47.633  1.00  0.00    -0.030 A 
HETATM   26  C   UNL     1      19.002  49.136  48.981  1.00  0.00     0.010 A 
HETATM   27  C   UNL     1      19.774  49.688  50.006  1.00  0.00     0.007 A 
HETATM   28  C   UNL     1      20.700  50.688  49.724  1.00  0.00    -0.062 A 
HETATM   29  C   UNL     1      21.625  51.197  50.792  1.00  0.00     0.048 C 
HETATM   30  C   UNL     1      20.816  51.141  48.407  1.00  0.00     0.007 A 
HETATM   31  C   UNL     1      20.033  50.595  47.379  1.00  0.00     0.010 A 
ENDBRANCH   1  25
BRANCH  10  32
HETATM   32  C   UNL     1      16.092  48.515  47.790  1.00  0.00     0.294 C 
HETATM   33  O   UNL     1      16.160  47.579  48.571  1.00  0.00    -0.259 OA
BRANCH  32  34
HETATM   34  O   UNL     1      15.370  49.644  47.878  1.00  0.00    -0.313 OA
BRANCH  34  35
HETATM   35  C   UNL     1      16.028  50.934  47.822  1.00  0.00     0.124 C 
HETATM   36  C   UNL     1      15.400  51.874  46.796  1.00  0.00     0.040 C 
HETATM   37  C   UNL     1      16.137  51.562  49.208  1.00  0.00     0.040 C 
ENDBRANCH  34  35
ENDBRANCH  32  34
ENDBRANCH  10  32
TORSDOF 9
ENDMDL
