MODEL 1
REMARK VINA RESULT:      -8.0      0.000      0.000
REMARK  9 active torsions:
REMARK  status: ('A' for Active; 'I' for Inactive)
REMARK    1  A    between atoms: O_2  and  C_3 
REMARK    2  A    between atoms: C_3  and  C_4 
REMARK    3  A    between atoms: C_4  and  S_5 
REMARK    4  A    between atoms: S_5  and  C_6 
REMARK    5  A    between atoms: C_7  and  C_8 
REMARK       I    between atoms: C_8  and  N_9 
REMARK    6  A    between atoms: N_9  and  C_10 
REMARK    7  A    between atoms: C_11  and  C_12 
REMARK       I    between atoms: C_12  and  N_13 
REMARK    8  A    between atoms: N_13  and  C_14 
REMARK    9  A    between atoms: C_14  and  C_15 
ROOT
HETATM    1  C   UNL     1      24.540  48.818  49.387  1.00  0.00     0.050 A 
HETATM    2  C   UNL     1      25.329  47.748  49.841  1.00  0.00     0.058 A 
HETATM    3  C   UNL     1      26.709  47.722  49.585  1.00  0.00     0.019 A 
HETATM    4  C   UNL     1      27.307  48.751  48.862  1.00  0.00     0.001 A 
HETATM    5  C   UNL     1      26.525  49.792  48.366  1.00  0.00     0.002 A 
HETATM    6  C   UNL     1      25.149  49.818  48.616  1.00  0.00     0.030 A 
ENDROOT
BRANCH   1   7
HETATM    7  N   UNL     1      23.157  48.962  49.630  1.00  0.00    -0.322 N 
HETATM    8  C   UNL     1      22.175  48.889  48.651  1.00  0.00     0.257 C 
HETATM    9  O   UNL     1      22.364  48.485  47.512  1.00  0.00    -0.267 OA
HETATM   10  H   UNL     1      22.847  48.875  50.590  1.00  0.00     0.169 HD
BRANCH   8  11
HETATM   11  C   UNL     1      20.811  49.249  49.133  1.00  0.00     0.049 A 
HETATM   12  C   UNL     1      19.735  48.343  49.152  1.00  0.00     0.016 A 
HETATM   13  C   UNL     1      18.486  48.797  49.612  1.00  0.00     0.019 A 
HETATM   14  C   UNL     1      18.305  50.112  50.049  1.00  0.00     0.001 A 
HETATM   15  C   UNL     1      19.369  51.005  50.018  1.00  0.00     0.001 A 
HETATM   16  C   UNL     1      20.613  50.580  49.554  1.00  0.00     0.018 A 
BRANCH  12  17
HETATM   17  S   UNL     1      19.771  46.632  48.624  1.00  0.00    -0.127 SA
BRANCH  17  18
HETATM   18  C   UNL     1      18.045  46.378  48.065  1.00  0.00     0.106 C 
BRANCH  18  19
HETATM   19  C   UNL     1      17.865  45.184  47.128  1.00  0.00     0.177 C 
BRANCH  19  20
HETATM   20  O   UNL     1      18.835  44.175  47.408  1.00  0.00    -0.395 OA
HETATM   21  C   UNL     1      19.441  43.682  46.222  1.00  0.00     0.201 C 
ENDBRANCH  19  20
ENDBRANCH  18  19
ENDBRANCH  17  18
ENDBRANCH  12  17
ENDBRANCH   8  11
ENDBRANCH   1   7
BRANCH   2  22
HETATM   22  C   UNL     1      24.755  46.500  50.391  1.00  0.00     0.254 C 
HETATM   23  N   UNL     1      25.407  46.019  51.502  1.00  0.00    -0.354 N 
HETATM   24  H   UNL     1      25.800  46.756  52.083  1.00  0.00     0.162 HD
HETATM   25  O   UNL     1      23.814  45.963  49.822  1.00  0.00    -0.268 OA
BRANCH  23  26
HETATM   26  C   UNL     1      24.903  44.866  52.227  1.00  0.00     0.155 C 
BRANCH  26  27
HETATM   27  C   UNL     1      25.800  44.518  53.413  1.00  0.00     0.139 C 
HETATM   28  O   UNL     1      26.762  43.507  53.060  1.00  0.00    -0.384 OA
HETATM   29  C   UNL     1      27.996  43.805  53.732  1.00  0.00     0.168 C 
HETATM   30  C   UNL     1      27.743  44.999  54.629  1.00  0.00     0.029 C 
HETATM   31  C   UNL     1      26.612  45.699  53.919  1.00  0.00     0.035 C 
ENDBRANCH  26  27
ENDBRANCH  23  26
ENDBRANCH   2  22
TORSDOF 9
ENDMDL
MODEL 2
REMARK VINA RESULT:      -7.9      3.163      8.613
REMARK  9 active torsions:
REMARK  status: ('A' for Active; 'I' for Inactive)
REMARK    1  A    between atoms: O_2  and  C_3 
REMARK    2  A    between atoms: C_3  and  C_4 
REMARK    3  A    between atoms: C_4  and  S_5 
REMARK    4  A    between atoms: S_5  and  C_6 
REMARK    5  A    between atoms: C_7  and  C_8 
REMARK       I    between atoms: C_8  and  N_9 
REMARK    6  A    between atoms: N_9  and  C_10 
REMARK    7  A    between atoms: C_11  and  C_12 
REMARK       I    between atoms: C_12  and  N_13 
REMARK    8  A    between atoms: N_13  and  C_14 
REMARK    9  A    between atoms: C_14  and  C_15 
ROOT
HETATM    1  C   UNL     1      24.827  44.444  50.971  1.00  0.00     0.050 A 
HETATM    2  C   UNL     1      24.053  45.398  50.292  1.00  0.00     0.058 A 
HETATM    3  C   UNL     1      23.020  44.996  49.430  1.00  0.00     0.019 A 
HETATM    4  C   UNL     1      22.766  43.641  49.227  1.00  0.00     0.001 A 
HETATM    5  C   UNL     1      23.560  42.687  49.858  1.00  0.00     0.002 A 
HETATM    6  C   UNL     1      24.592  43.086  50.714  1.00  0.00     0.030 A 
ENDROOT
BRANCH   1   7
HETATM    7  N   UNL     1      25.855  44.743  51.892  1.00  0.00    -0.322 N 
HETATM    8  C   UNL     1      25.706  44.721  53.272  1.00  0.00     0.257 C 
HETATM    9  O   UNL     1      24.744  44.240  53.855  1.00  0.00    -0.267 OA
HETATM   10  H   UNL     1      26.804  44.740  51.539  1.00  0.00     0.169 HD
BRANCH   8  11
HETATM   11  C   UNL     1      26.884  45.246  54.018  1.00  0.00     0.049 A 
HETATM   12  C   UNL     1      27.978  44.445  54.397  1.00  0.00     0.016 A 
HETATM   13  C   UNL     1      29.029  45.044  55.114  1.00  0.00     0.019 A 
HETATM   14  C   UNL     1      29.006  46.402  55.443  1.00  0.00     0.001 A 
HETATM   15  C   UNL     1      27.918  47.185  55.075  1.00  0.00     0.001 A 
HETATM   16  C   UNL     1      26.859  46.610  54.375  1.00  0.00     0.018 A 
BRANCH  12  17
HETATM   17  S   UNL     1      28.181  42.695  54.077  1.00  0.00    -0.127 SA
BRANCH  17  18
HETATM   18  C   UNL     1      28.870  42.703  52.380  1.00  0.00     0.106 C 
BRANCH  18  19
HETATM   19  C   UNL     1      28.084  41.848  51.386  1.00  0.00     0.177 C 
BRANCH  19  20
HETATM   20  O   UNL     1      28.477  40.479  51.481  1.00  0.00    -0.395 OA
HETATM   21  C   UNL     1      28.388  39.817  50.227  1.00  0.00     0.201 C 
ENDBRANCH  19  20
ENDBRANCH  18  19
ENDBRANCH  17  18
ENDBRANCH  12  17
ENDBRANCH   8  11
ENDBRANCH   1   7
BRANCH   2  22
HETATM   22  C   UNL     1      24.403  46.835  50.246  1.00  0.00     0.254 C 
HETATM   23  N   UNL     1      24.011  47.477  49.095  1.00  0.00    -0.354 N 
HETATM   24  H   UNL     1      23.152  47.098  48.702  1.00  0.00     0.162 HD
HETATM   25  O   UNL     1      25.039  47.335  51.165  1.00  0.00    -0.268 OA
BRANCH  23  26
HETATM   26  C   UNL     1      24.180  48.911  48.941  1.00  0.00     0.155 C 
BRANCH  26  27
HETATM   27  C   UNL     1      22.927  49.560  48.357  1.00  0.00     0.139 C 
HETATM   28  O   UNL     1      21.739  48.853  48.758  1.00  0.00    -0.384 OA
HETATM   29  C   UNL     1      20.696  49.815  48.982  1.00  0.00     0.168 C 
HETATM   30  C   UNL     1      21.244  51.172  48.593  1.00  0.00     0.029 C 
HETATM   31  C   UNL     1      22.724  50.995  48.815  1.00  0.00     0.035 C 
ENDBRANCH  26  27
ENDBRANCH  23  26
ENDBRANCH   2  22
TORSDOF 9
ENDMDL
MODEL 3
REMARK VINA RESULT:      -7.8      3.847      8.468
REMARK  9 active torsions:
REMARK  status: ('A' for Active; 'I' for Inactive)
REMARK    1  A    between atoms: O_2  and  C_3 
REMARK    2  A    between atoms: C_3  and  C_4 
REMARK    3  A    between atoms: C_4  and  S_5 
REMARK    4  A    between atoms: S_5  and  C_6 
REMARK    5  A    between atoms: C_7  and  C_8 
REMARK       I    between atoms: C_8  and  N_9 
REMARK    6  A    between atoms: N_9  and  C_10 
REMARK    7  A    between atoms: C_11  and  C_12 
REMARK       I    between atoms: C_12  and  N_13 
REMARK    8  A    between atoms: N_13  and  C_14 
REMARK    9  A    between atoms: C_14  and  C_15 
ROOT
HETATM    1  C   UNL     1      29.109  43.744  53.709  1.00  0.00     0.050 A 
HETATM    2  C   UNL     1      28.359  44.776  54.296  1.00  0.00     0.058 A 
HETATM    3  C   UNL     1      28.811  45.409  55.465  1.00  0.00     0.019 A 
HETATM    4  C   UNL     1      30.002  45.006  56.064  1.00  0.00     0.001 A 
HETATM    5  C   UNL     1      30.727  43.950  55.517  1.00  0.00     0.002 A 
HETATM    6  C   UNL     1      30.277  43.315  54.356  1.00  0.00     0.030 A 
ENDROOT
BRANCH   1   7
HETATM    7  N   UNL     1      28.767  43.075  52.513  1.00  0.00    -0.322 N 
HETATM    8  C   UNL     1      28.130  41.843  52.456  1.00  0.00     0.257 C 
HETATM    9  O   UNL     1      27.603  41.292  53.413  1.00  0.00    -0.267 OA
HETATM   10  H   UNL     1      28.768  43.625  51.663  1.00  0.00     0.169 HD
BRANCH   8  11
HETATM   11  C   UNL     1      28.040  41.271  51.082  1.00  0.00     0.049 A 
HETATM   12  C   UNL     1      27.383  41.917  50.018  1.00  0.00     0.016 A 
HETATM   13  C   UNL     1      27.346  41.275  48.767  1.00  0.00     0.019 A 
HETATM   14  C   UNL     1      27.948  40.030  48.569  1.00  0.00     0.001 A 
HETATM   15  C   UNL     1      28.585  39.392  49.626  1.00  0.00     0.001 A 
HETATM   16  C   UNL     1      28.624  40.004  50.878  1.00  0.00     0.018 A 
BRANCH  12  17
HETATM   17  S   UNL     1      26.549  43.500  50.082  1.00  0.00    -0.127 SA
BRANCH  17  18
HETATM   18  C   UNL     1      25.025  43.082  51.007  1.00  0.00     0.106 C 
BRANCH  18  19
HETATM   19  C   UNL     1      23.911  42.499  50.139  1.00  0.00     0.177 C 
BRANCH  19  20
HETATM   20  O   UNL     1      22.670  43.150  50.410  1.00  0.00    -0.395 OA
HETATM   21  C   UNL     1      22.362  44.129  49.428  1.00  0.00     0.201 C 
ENDBRANCH  19  20
ENDBRANCH  18  19
ENDBRANCH  17  18
ENDBRANCH  12  17
ENDBRANCH   8  11
ENDBRANCH   1   7
BRANCH   2  22
HETATM   22  C   UNL     1      26.976  45.102  53.884  1.00  0.00     0.254 C 
HETATM   23  N   UNL     1      26.827  46.356  53.340  1.00  0.00    -0.354 N 
HETATM   24  H   UNL     1      27.650  46.667  52.829  1.00  0.00     0.162 HD
HETATM   25  O   UNL     1      26.075  44.298  54.091  1.00  0.00    -0.268 OA
BRANCH  23  26
HETATM   26  C   UNL     1      25.557  46.787  52.785  1.00  0.00     0.155 C 
BRANCH  26  27
HETATM   27  C   UNL     1      25.623  46.898  51.263  1.00  0.00     0.139 C 
HETATM   28  O   UNL     1      24.456  47.558  50.737  1.00  0.00    -0.384 OA
HETATM   29  C   UNL     1      24.864  48.379  49.632  1.00  0.00     0.168 C 
HETATM   30  C   UNL     1      26.339  48.125  49.400  1.00  0.00     0.029 C 
HETATM   31  C   UNL     1      26.811  47.710  50.771  1.00  0.00     0.035 C 
ENDBRANCH  26  27
ENDBRANCH  23  26
ENDBRANCH   2  22
TORSDOF 9
ENDMDL
MODEL 4
REMARK VINA RESULT:      -7.8      1.723      3.407
REMARK  9 active torsions:
REMARK  status: ('A' for Active; 'I' for Inactive)
REMARK    1  A    between atoms: O_2  and  C_3 
REMARK    2  A    between atoms: C_3  and  C_4 
REMARK    3  A    between atoms: C_4  and  S_5 
REMARK    4  A    between atoms: S_5  and  C_6 
REMARK    5  A    between atoms: C_7  and  C_8 
REMARK       I    between atoms: C_8  and  N_9 
REMARK    6  A    between atoms: N_9  and  C_10 
REMARK    7  A    between atoms: C_11  and  C_12 
REMARK       I    between atoms: C_12  and  N_13 
REMARK    8  A    between atoms: N_13  and  C_14 
REMARK    9  A    between atoms: C_14  and  C_15 
ROOT
HETATM    1  C   UNL     1      24.109  48.351  49.413  1.00  0.00     0.050 A 
HETATM    2  C   UNL     1      25.061  47.535  50.045  1.00  0.00     0.058 A 
HETATM    3  C   UNL     1      26.431  47.824  49.939  1.00  0.00     0.019 A 
HETATM    4  C   UNL     1      26.860  48.916  49.189  1.00  0.00     0.001 A 
HETATM    5  C   UNL     1      25.926  49.702  48.518  1.00  0.00     0.002 A 
HETATM    6  C   UNL     1      24.562  49.413  48.618  1.00  0.00     0.030 A 
ENDROOT
BRANCH   1   7
HETATM    7  N   UNL     1      22.710  48.174  49.494  1.00  0.00    -0.322 N 
HETATM    8  C   UNL     1      21.884  47.929  48.406  1.00  0.00     0.257 C 
HETATM    9  O   UNL     1      22.283  47.629  47.289  1.00  0.00    -0.267 OA
HETATM   10  H   UNL     1      22.325  47.977  50.409  1.00  0.00     0.169 HD
BRANCH   8  11
HETATM   11  C   UNL     1      20.429  47.957  48.731  1.00  0.00     0.049 A 
HETATM   12  C   UNL     1      19.804  49.037  49.381  1.00  0.00     0.016 A 
HETATM   13  C   UNL     1      18.426  48.947  49.652  1.00  0.00     0.019 A 
HETATM   14  C   UNL     1      17.683  47.822  49.285  1.00  0.00     0.001 A 
HETATM   15  C   UNL     1      18.309  46.755  48.652  1.00  0.00     0.001 A 
HETATM   16  C   UNL     1      19.676  46.817  48.384  1.00  0.00     0.018 A 
BRANCH  12  17
HETATM   17  S   UNL     1      20.587  50.548  49.936  1.00  0.00    -0.127 SA
BRANCH  17  18
HETATM   18  C   UNL     1      20.344  51.646  48.491  1.00  0.00     0.106 C 
BRANCH  18  19
HETATM   19  C   UNL     1      19.038  52.439  48.525  1.00  0.00     0.177 C 
BRANCH  19  20
HETATM   20  O   UNL     1      18.466  52.408  49.832  1.00  0.00    -0.395 OA
HETATM   21  C   UNL     1      17.046  52.443  49.788  1.00  0.00     0.201 C 
ENDBRANCH  19  20
ENDBRANCH  18  19
ENDBRANCH  17  18
ENDBRANCH  12  17
ENDBRANCH   8  11
ENDBRANCH   1   7
BRANCH   2  22
HETATM   22  C   UNL     1      24.727  46.225  50.648  1.00  0.00     0.254 C 
HETATM   23  N   UNL     1      25.305  46.002  51.875  1.00  0.00    -0.354 N 
HETATM   24  H   UNL     1      25.422  46.854  52.420  1.00  0.00     0.162 HD
HETATM   25  O   UNL     1      24.034  45.430  50.026  1.00  0.00    -0.268 OA
BRANCH  23  26
HETATM   26  C   UNL     1      24.990  44.814  52.648  1.00  0.00     0.155 C 
BRANCH  26  27
HETATM   27  C   UNL     1      26.252  44.031  53.006  1.00  0.00     0.139 C 
HETATM   28  O   UNL     1      26.940  43.582  51.824  1.00  0.00    -0.384 OA
HETATM   29  C   UNL     1      28.353  43.670  52.065  1.00  0.00     0.168 C 
HETATM   30  C   UNL     1      28.539  44.092  53.508  1.00  0.00     0.029 C 
HETATM   31  C   UNL     1      27.267  44.852  53.786  1.00  0.00     0.035 C 
ENDBRANCH  26  27
ENDBRANCH  23  26
ENDBRANCH   2  22
TORSDOF 9
ENDMDL
MODEL 5
REMARK VINA RESULT:      -7.7      3.273      9.039
REMARK  9 active torsions:
REMARK  status: ('A' for Active; 'I' for Inactive)
REMARK    1  A    between atoms: O_2  and  C_3 
REMARK    2  A    between atoms: C_3  and  C_4 
REMARK    3  A    between atoms: C_4  and  S_5 
REMARK    4  A    between atoms: S_5  and  C_6 
REMARK    5  A    between atoms: C_7  and  C_8 
REMARK       I    between atoms: C_8  and  N_9 
REMARK    6  A    between atoms: N_9  and  C_10 
REMARK    7  A    between atoms: C_11  and  C_12 
REMARK       I    between atoms: C_12  and  N_13 
REMARK    8  A    between atoms: N_13  and  C_14 
REMARK    9  A    between atoms: C_14  and  C_15 
ROOT
HETATM    1  C   UNL     1      25.011  45.038  50.335  1.00  0.00     0.050 A 
HETATM    2  C   UNL     1      24.103  45.880  49.674  1.00  0.00     0.058 A 
HETATM    3  C   UNL     1      23.364  45.411  48.577  1.00  0.00     0.019 A 
HETATM    4  C   UNL     1      23.539  44.105  48.123  1.00  0.00     0.001 A 
HETATM    5  C   UNL     1      24.473  43.278  48.742  1.00  0.00     0.002 A 
HETATM    6  C   UNL     1      25.213  43.746  49.831  1.00  0.00     0.030 A 
ENDROOT
BRANCH   1   7
HETATM    7  N   UNL     1      25.767  45.398  51.473  1.00  0.00    -0.322 N 
HETATM    8  C   UNL     1      25.384  45.147  52.783  1.00  0.00     0.257 C 
HETATM    9  O   UNL     1      24.466  44.405  53.104  1.00  0.00    -0.267 OA
HETATM   10  H   UNL     1      26.740  45.634  51.322  1.00  0.00     0.169 HD
BRANCH   8  11
HETATM   11  C   UNL     1      26.266  45.780  53.804  1.00  0.00     0.049 A 
HETATM   12  C   UNL     1      27.275  45.082  54.493  1.00  0.00     0.016 A 
HETATM   13  C   UNL     1      28.036  45.779  55.449  1.00  0.00     0.019 A 
HETATM   14  C   UNL     1      27.812  47.131  55.715  1.00  0.00     0.001 A 
HETATM   15  C   UNL     1      26.806  47.812  55.039  1.00  0.00     0.001 A 
HETATM   16  C   UNL     1      26.031  47.140  54.096  1.00  0.00     0.018 A 
BRANCH  12  17
HETATM   17  S   UNL     1      27.701  43.355  54.298  1.00  0.00    -0.127 SA
BRANCH  17  18
HETATM   18  C   UNL     1      29.333  43.463  53.475  1.00  0.00     0.106 C 
BRANCH  18  19
HETATM   19  C   UNL     1      30.497  42.968  54.334  1.00  0.00     0.177 C 
BRANCH  19  20
HETATM   20  O   UNL     1      30.769  43.888  55.390  1.00  0.00    -0.395 OA
HETATM   21  C   UNL     1      31.340  43.242  56.518  1.00  0.00     0.201 C 
ENDBRANCH  19  20
ENDBRANCH  18  19
ENDBRANCH  17  18
ENDBRANCH  12  17
ENDBRANCH   8  11
ENDBRANCH   1   7
BRANCH   2  22
HETATM   22  C   UNL     1      24.031  47.338  49.918  1.00  0.00     0.254 C 
HETATM   23  N   UNL     1      23.211  48.018  49.049  1.00  0.00    -0.354 N 
HETATM   24  H   UNL     1      22.416  47.464  48.738  1.00  0.00     0.162 HD
HETATM   25  O   UNL     1      24.716  47.841  50.800  1.00  0.00    -0.268 OA
BRANCH  23  26
HETATM   26  C   UNL     1      22.945  49.435  49.222  1.00  0.00     0.155 C 
BRANCH  26  27
HETATM   27  C   UNL     1      21.535  49.798  48.758  1.00  0.00     0.139 C 
HETATM   28  O   UNL     1      20.579  49.645  49.823  1.00  0.00    -0.384 OA
HETATM   29  C   UNL     1      19.610  50.698  49.712  1.00  0.00     0.168 C 
HETATM   30  C   UNL     1      19.926  51.472  48.450  1.00  0.00     0.029 C 
HETATM   31  C   UNL     1      21.408  51.241  48.296  1.00  0.00     0.035 C 
ENDBRANCH  26  27
ENDBRANCH  23  26
ENDBRANCH   2  22
TORSDOF 9
ENDMDL
MODEL 6
REMARK VINA RESULT:      -7.7      4.129      8.207
REMARK  9 active torsions:
REMARK  status: ('A' for Active; 'I' for Inactive)
REMARK    1  A    between atoms: O_2  and  C_3 
REMARK    2  A    between atoms: C_3  and  C_4 
REMARK    3  A    between atoms: C_4  and  S_5 
REMARK    4  A    between atoms: S_5  and  C_6 
REMARK    5  A    between atoms: C_7  and  C_8 
REMARK       I    between atoms: C_8  and  N_9 
REMARK    6  A    between atoms: N_9  and  C_10 
REMARK    7  A    between atoms: C_11  and  C_12 
REMARK       I    between atoms: C_12  and  N_13 
REMARK    8  A    between atoms: N_13  and  C_14 
REMARK    9  A    between atoms: C_14  and  C_15 
ROOT
HETATM    1  C   UNL     1      27.566  43.130  52.909  1.00  0.00     0.050 A 
HETATM    2  C   UNL     1      27.473  44.418  53.459  1.00  0.00     0.058 A 
HETATM    3  C   UNL     1      28.407  44.856  54.411  1.00  0.00     0.019 A 
HETATM    4  C   UNL     1      29.427  44.006  54.833  1.00  0.00     0.001 A 
HETATM    5  C   UNL     1      29.498  42.709  54.330  1.00  0.00     0.002 A 
HETATM    6  C   UNL     1      28.566  42.270  53.384  1.00  0.00     0.030 A 
ENDROOT
BRANCH   1   7
HETATM    7  N   UNL     1      26.707  42.612  51.914  1.00  0.00    -0.322 N 
HETATM    8  C   UNL     1      26.614  43.106  50.621  1.00  0.00     0.257 C 
HETATM    9  O   UNL     1      27.403  43.899  50.126  1.00  0.00    -0.267 OA
HETATM   10  H   UNL     1      26.319  41.691  52.077  1.00  0.00     0.169 HD
BRANCH   8  11
HETATM   11  C   UNL     1      25.511  42.503  49.819  1.00  0.00     0.049 A 
HETATM   12  C   UNL     1      25.730  41.614  48.751  1.00  0.00     0.016 A 
HETATM   13  C   UNL     1      24.614  41.119  48.053  1.00  0.00     0.019 A 
HETATM   14  C   UNL     1      23.313  41.487  48.405  1.00  0.00     0.001 A 
HETATM   15  C   UNL     1      23.104  42.374  49.454  1.00  0.00     0.001 A 
HETATM   16  C   UNL     1      24.196  42.886  50.152  1.00  0.00     0.018 A 
BRANCH  12  17
HETATM   17  S   UNL     1      27.315  41.038  48.150  1.00  0.00    -0.127 SA
BRANCH  17  18
HETATM   18  C   UNL     1      27.568  39.526  49.151  1.00  0.00     0.106 C 
BRANCH  18  19
HETATM   19  C   UNL     1      28.402  39.748  50.413  1.00  0.00     0.177 C 
BRANCH  19  20
HETATM   20  O   UNL     1      29.337  38.684  50.590  1.00  0.00    -0.395 OA
HETATM   21  C   UNL     1      29.770  38.150  49.347  1.00  0.00     0.201 C 
ENDBRANCH  19  20
ENDBRANCH  18  19
ENDBRANCH  17  18
ENDBRANCH  12  17
ENDBRANCH   8  11
ENDBRANCH   1   7
BRANCH   2  22
HETATM   22  C   UNL     1      26.296  45.294  53.266  1.00  0.00     0.254 C 
HETATM   23  N   UNL     1      26.382  46.128  52.176  1.00  0.00    -0.354 N 
HETATM   24  H   UNL     1      26.908  45.721  51.405  1.00  0.00     0.162 HD
HETATM   25  O   UNL     1      25.381  45.269  54.079  1.00  0.00    -0.268 OA
BRANCH  23  26
HETATM   26  C   UNL     1      25.266  46.970  51.785  1.00  0.00     0.155 C 
BRANCH  26  27
HETATM   27  C   UNL     1      25.372  47.390  50.320  1.00  0.00     0.139 C 
HETATM   28  O   UNL     1      24.280  48.250  49.944  1.00  0.00    -0.384 OA
HETATM   29  C   UNL     1      24.781  49.243  49.036  1.00  0.00     0.168 C 
HETATM   30  C   UNL     1      26.232  48.908  48.757  1.00  0.00     0.029 C 
HETATM   31  C   UNL     1      26.637  48.174  50.010  1.00  0.00     0.035 C 
ENDBRANCH  26  27
ENDBRANCH  23  26
ENDBRANCH   2  22
TORSDOF 9
ENDMDL
MODEL 7
REMARK VINA RESULT:      -7.5      3.936      6.453
REMARK  9 active torsions:
REMARK  status: ('A' for Active; 'I' for Inactive)
REMARK    1  A    between atoms: O_2  and  C_3 
REMARK    2  A    between atoms: C_3  and  C_4 
REMARK    3  A    between atoms: C_4  and  S_5 
REMARK    4  A    between atoms: S_5  and  C_6 
REMARK    5  A    between atoms: C_7  and  C_8 
REMARK       I    between atoms: C_8  and  N_9 
REMARK    6  A    between atoms: N_9  and  C_10 
REMARK    7  A    between atoms: C_11  and  C_12 
REMARK       I    between atoms: C_12  and  N_13 
REMARK    8  A    between atoms: N_13  and  C_14 
REMARK    9  A    between atoms: C_14  and  C_15 
ROOT
HETATM    1  C   UNL     1      26.986  43.110  52.045  1.00  0.00     0.050 A 
HETATM    2  C   UNL     1      27.802  43.238  53.180  1.00  0.00     0.058 A 
HETATM    3  C   UNL     1      28.543  42.143  53.653  1.00  0.00     0.019 A 
HETATM    4  C   UNL     1      28.461  40.911  53.008  1.00  0.00     0.001 A 
HETATM    5  C   UNL     1      27.617  40.762  51.910  1.00  0.00     0.002 A 
HETATM    6  C   UNL     1      26.875  41.850  51.440  1.00  0.00     0.030 A 
ENDROOT
BRANCH   1   7
HETATM    7  N   UNL     1      26.240  44.158  51.463  1.00  0.00    -0.322 N 
HETATM    8  C   UNL     1      26.509  44.722  50.224  1.00  0.00     0.257 C 
HETATM    9  O   UNL     1      27.280  44.246  49.401  1.00  0.00    -0.267 OA
HETATM   10  H   UNL     1      25.326  44.345  51.857  1.00  0.00     0.169 HD
BRANCH   8  11
HETATM   11  C   UNL     1      25.688  45.927  49.914  1.00  0.00     0.049 A 
HETATM   12  C   UNL     1      24.303  45.876  49.671  1.00  0.00     0.016 A 
HETATM   13  C   UNL     1      23.632  47.076  49.372  1.00  0.00     0.019 A 
HETATM   14  C   UNL     1      24.310  48.296  49.321  1.00  0.00     0.001 A 
HETATM   15  C   UNL     1      25.679  48.338  49.551  1.00  0.00     0.001 A 
HETATM   16  C   UNL     1      26.367  47.160  49.838  1.00  0.00     0.018 A 
BRANCH  12  17
HETATM   17  S   UNL     1      23.270  44.414  49.681  1.00  0.00    -0.127 SA
BRANCH  17  18
HETATM   18  C   UNL     1      23.897  43.504  48.221  1.00  0.00     0.106 C 
BRANCH  18  19
HETATM   19  C   UNL     1      24.392  42.092  48.534  1.00  0.00     0.177 C 
BRANCH  19  20
HETATM   20  O   UNL     1      25.126  41.561  47.431  1.00  0.00    -0.395 OA
HETATM   21  C   UNL     1      26.425  41.136  47.818  1.00  0.00     0.201 C 
ENDBRANCH  19  20
ENDBRANCH  18  19
ENDBRANCH  17  18
ENDBRANCH  12  17
ENDBRANCH   8  11
ENDBRANCH   1   7
BRANCH   2  22
HETATM   22  C   UNL     1      27.763  44.419  54.072  1.00  0.00     0.254 C 
HETATM   23  N   UNL     1      28.989  44.794  54.569  1.00  0.00    -0.354 N 
HETATM   24  H   UNL     1      29.753  44.607  53.924  1.00  0.00     0.162 HD
HETATM   25  O   UNL     1      26.687  44.935  54.348  1.00  0.00    -0.268 OA
BRANCH  23  26
HETATM   26  C   UNL     1      29.137  45.997  55.369  1.00  0.00     0.155 C 
BRANCH  26  27
HETATM   27  C   UNL     1      30.253  45.845  56.401  1.00  0.00     0.139 C 
HETATM   28  O   UNL     1      29.782  46.148  57.727  1.00  0.00    -0.384 OA
HETATM   29  C   UNL     1      30.422  45.250  58.648  1.00  0.00     0.168 C 
HETATM   30  C   UNL     1      31.418  44.428  57.858  1.00  0.00     0.029 C 
HETATM   31  C   UNL     1      30.814  44.434  56.477  1.00  0.00     0.035 C 
ENDBRANCH  26  27
ENDBRANCH  23  26
ENDBRANCH   2  22
TORSDOF 9
ENDMDL
MODEL 8
REMARK VINA RESULT:      -7.3      3.003      5.856
REMARK  9 active torsions:
REMARK  status: ('A' for Active; 'I' for Inactive)
REMARK    1  A    between atoms: O_2  and  C_3 
REMARK    2  A    between atoms: C_3  and  C_4 
REMARK    3  A    between atoms: C_4  and  S_5 
REMARK    4  A    between atoms: S_5  and  C_6 
REMARK    5  A    between atoms: C_7  and  C_8 
REMARK       I    between atoms: C_8  and  N_9 
REMARK    6  A    between atoms: N_9  and  C_10 
REMARK    7  A    between atoms: C_11  and  C_12 
REMARK       I    between atoms: C_12  and  N_13 
REMARK    8  A    between atoms: N_13  and  C_14 
REMARK    9  A    between atoms: C_14  and  C_15 
ROOT
HETATM    1  C   UNL     1      26.138  43.779  49.911  1.00  0.00     0.050 A 
HETATM    2  C   UNL     1      26.784  43.017  50.899  1.00  0.00     0.058 A 
HETATM    3  C   UNL     1      26.511  41.647  51.035  1.00  0.00     0.019 A 
HETATM    4  C   UNL     1      25.581  41.032  50.199  1.00  0.00     0.001 A 
HETATM    5  C   UNL     1      24.900  41.790  49.249  1.00  0.00     0.002 A 
HETATM    6  C   UNL     1      25.167  43.156  49.115  1.00  0.00     0.030 A 
ENDROOT
BRANCH   1   7
HETATM    7  N   UNL     1      26.375  45.149  49.663  1.00  0.00    -0.322 N 
HETATM    8  C   UNL     1      25.583  46.183  50.143  1.00  0.00     0.257 C 
HETATM    9  O   UNL     1      24.721  46.052  51.001  1.00  0.00    -0.267 OA
HETATM   10  H   UNL     1      27.294  45.402  49.324  1.00  0.00     0.169 HD
BRANCH   8  11
HETATM   11  C   UNL     1      25.939  47.523  49.597  1.00  0.00     0.049 A 
HETATM   12  C   UNL     1      24.984  48.450  49.141  1.00  0.00     0.016 A 
HETATM   13  C   UNL     1      25.436  49.680  48.630  1.00  0.00     0.019 A 
HETATM   14  C   UNL     1      26.797  49.991  48.577  1.00  0.00     0.001 A 
HETATM   15  C   UNL     1      27.736  49.067  49.019  1.00  0.00     0.001 A 
HETATM   16  C   UNL     1      27.312  47.836  49.518  1.00  0.00     0.018 A 
BRANCH  12  17
HETATM   17  S   UNL     1      23.207  48.229  49.119  1.00  0.00    -0.127 SA
BRANCH  17  18
HETATM   18  C   UNL     1      22.630  49.891  48.612  1.00  0.00     0.106 C 
BRANCH  18  19
HETATM   19  C   UNL     1      21.992  50.699  49.741  1.00  0.00     0.177 C 
BRANCH  19  20
HETATM   20  O   UNL     1      20.701  51.169  49.355  1.00  0.00    -0.395 OA
HETATM   21  C   UNL     1      19.676  50.633  50.180  1.00  0.00     0.201 C 
ENDBRANCH  19  20
ENDBRANCH  18  19
ENDBRANCH  17  18
ENDBRANCH  12  17
ENDBRANCH   8  11
ENDBRANCH   1   7
BRANCH   2  22
HETATM   22  C   UNL     1      27.588  43.621  51.984  1.00  0.00     0.254 C 
HETATM   23  N   UNL     1      26.857  44.015  53.080  1.00  0.00    -0.354 N 
HETATM   24  H   UNL     1      26.045  43.425  53.249  1.00  0.00     0.162 HD
HETATM   25  O   UNL     1      28.793  43.779  51.831  1.00  0.00    -0.268 OA
BRANCH  23  26
HETATM   26  C   UNL     1      27.509  44.522  54.274  1.00  0.00     0.155 C 
BRANCH  26  27
HETATM   27  C   UNL     1      27.553  46.050  54.278  1.00  0.00     0.139 C 
HETATM   28  O   UNL     1      26.372  46.607  53.673  1.00  0.00    -0.384 OA
HETATM   29  C   UNL     1      26.015  47.795  54.396  1.00  0.00     0.168 C 
HETATM   30  C   UNL     1      27.095  48.037  55.429  1.00  0.00     0.029 C 
HETATM   31  C   UNL     1      27.620  46.645  55.675  1.00  0.00     0.035 C 
ENDBRANCH  26  27
ENDBRANCH  23  26
ENDBRANCH   2  22
TORSDOF 9
ENDMDL
MODEL 9
REMARK VINA RESULT:      -7.3      3.182      7.749
REMARK  9 active torsions:
REMARK  status: ('A' for Active; 'I' for Inactive)
REMARK    1  A    between atoms: O_2  and  C_3 
REMARK    2  A    between atoms: C_3  and  C_4 
REMARK    3  A    between atoms: C_4  and  S_5 
REMARK    4  A    between atoms: S_5  and  C_6 
REMARK    5  A    between atoms: C_7  and  C_8 
REMARK       I    between atoms: C_8  and  N_9 
REMARK    6  A    between atoms: N_9  and  C_10 
REMARK    7  A    between atoms: C_11  and  C_12 
REMARK       I    between atoms: C_12  and  N_13 
REMARK    8  A    between atoms: N_13  and  C_14 
REMARK    9  A    between atoms: C_14  and  C_15 
ROOT
HETATM    1  C   UNL     1      27.478  44.599  53.531  1.00  0.00     0.050 A 
HETATM    2  C   UNL     1      26.655  45.716  53.319  1.00  0.00     0.058 A 
HETATM    3  C   UNL     1      26.802  46.870  54.104  1.00  0.00     0.019 A 
HETATM    4  C   UNL     1      27.757  46.910  55.117  1.00  0.00     0.001 A 
HETATM    5  C   UNL     1      28.545  45.789  55.368  1.00  0.00     0.002 A 
HETATM    6  C   UNL     1      28.397  44.637  54.589  1.00  0.00     0.030 A 
ENDROOT
BRANCH   1   7
HETATM    7  N   UNL     1      27.442  43.411  52.769  1.00  0.00    -0.322 N 
HETATM    8  C   UNL     1      27.520  43.363  51.384  1.00  0.00     0.257 C 
HETATM    9  O   UNL     1      27.839  44.309  50.677  1.00  0.00    -0.267 OA
HETATM   10  H   UNL     1      27.608  42.543  53.262  1.00  0.00     0.169 HD
BRANCH   8  11
HETATM   11  C   UNL     1      27.282  42.009  50.809  1.00  0.00     0.049 A 
HETATM   12  C   UNL     1      26.059  41.619  50.232  1.00  0.00     0.016 A 
HETATM   13  C   UNL     1      25.942  40.308  49.735  1.00  0.00     0.019 A 
HETATM   14  C   UNL     1      27.007  39.407  49.799  1.00  0.00     0.001 A 
HETATM   15  C   UNL     1      28.208  39.794  50.380  1.00  0.00     0.001 A 
HETATM   16  C   UNL     1      28.343  41.085  50.890  1.00  0.00     0.018 A 
BRANCH  12  17
HETATM   17  S   UNL     1      24.587  42.624  50.070  1.00  0.00    -0.127 SA
BRANCH  17  18
HETATM   18  C   UNL     1      24.270  42.535  48.268  1.00  0.00     0.106 C 
BRANCH  18  19
HETATM   19  C   UNL     1      22.812  42.253  47.906  1.00  0.00     0.177 C 
BRANCH  19  20
HETATM   20  O   UNL     1      21.947  43.199  48.533  1.00  0.00    -0.395 OA
HETATM   21  C   UNL     1      21.993  44.464  47.888  1.00  0.00     0.201 C 
ENDBRANCH  19  20
ENDBRANCH  18  19
ENDBRANCH  17  18
ENDBRANCH  12  17
ENDBRANCH   8  11
ENDBRANCH   1   7
BRANCH   2  22
HETATM   22  C   UNL     1      25.459  45.682  52.448  1.00  0.00     0.254 C 
HETATM   23  N   UNL     1      25.532  46.509  51.352  1.00  0.00    -0.354 N 
HETATM   24  H   UNL     1      26.479  46.613  50.995  1.00  0.00     0.162 HD
HETATM   25  O   UNL     1      24.496  44.996  52.766  1.00  0.00    -0.268 OA
BRANCH  23  26
HETATM   26  C   UNL     1      24.489  46.509  50.341  1.00  0.00     0.155 C 
BRANCH  26  27
HETATM   27  C   UNL     1      24.106  47.932  49.936  1.00  0.00     0.139 C 
HETATM   28  O   UNL     1      25.268  48.705  49.585  1.00  0.00    -0.384 OA
HETATM   29  C   UNL     1      24.921  49.565  48.489  1.00  0.00     0.168 C 
HETATM   30  C   UNL     1      23.440  49.388  48.227  1.00  0.00     0.029 C 
HETATM   31  C   UNL     1      23.194  47.986  48.721  1.00  0.00     0.035 C 
ENDBRANCH  26  27
ENDBRANCH  23  26
ENDBRANCH   2  22
TORSDOF 9
ENDMDL
MODEL 10
REMARK VINA RESULT:      -7.1     20.410     22.813
REMARK  9 active torsions:
REMARK  status: ('A' for Active; 'I' for Inactive)
REMARK    1  A    between atoms: O_2  and  C_3 
REMARK    2  A    between atoms: C_3  and  C_4 
REMARK    3  A    between atoms: C_4  and  S_5 
REMARK    4  A    between atoms: S_5  and  C_6 
REMARK    5  A    between atoms: C_7  and  C_8 
REMARK       I    between atoms: C_8  and  N_9 
REMARK    6  A    between atoms: N_9  and  C_10 
REMARK    7  A    between atoms: C_11  and  C_12 
REMARK       I    between atoms: C_12  and  N_13 
REMARK    8  A    between atoms: N_13  and  C_14 
REMARK    9  A    between atoms: C_14  and  C_15 
ROOT
HETATM    1  C   UNL     1      36.025  44.057  65.628  1.00  0.00     0.050 A 
HETATM    2  C   UNL     1      36.608  42.826  65.287  1.00  0.00     0.058 A 
HETATM    3  C   UNL     1      35.835  41.655  65.257  1.00  0.00     0.019 A 
HETATM    4  C   UNL     1      34.481  41.701  65.583  1.00  0.00     0.001 A 
HETATM    5  C   UNL     1      33.905  42.909  65.969  1.00  0.00     0.002 A 
HETATM    6  C   UNL     1      34.675  44.075  66.005  1.00  0.00     0.030 A 
ENDROOT
BRANCH   1   7
HETATM    7  N   UNL     1      36.703  45.296  65.644  1.00  0.00    -0.322 N 
HETATM    8  C   UNL     1      37.044  46.019  64.510  1.00  0.00     0.257 C 
HETATM    9  O   UNL     1      36.620  45.784  63.386  1.00  0.00    -0.267 OA
HETATM   10  H   UNL     1      36.728  45.794  66.524  1.00  0.00     0.169 HD
BRANCH   8  11
HETATM   11  C   UNL     1      37.908  47.203  64.783  1.00  0.00     0.049 A 
HETATM   12  C   UNL     1      39.314  47.152  64.770  1.00  0.00     0.016 A 
HETATM   13  C   UNL     1      40.029  48.329  65.059  1.00  0.00     0.019 A 
HETATM   14  C   UNL     1      39.372  49.528  65.346  1.00  0.00     0.001 A 
HETATM   15  C   UNL     1      37.983  49.569  65.367  1.00  0.00     0.001 A 
HETATM   16  C   UNL     1      37.254  48.412  65.096  1.00  0.00     0.018 A 
BRANCH  12  17
HETATM   17  S   UNL     1      40.327  45.714  64.437  1.00  0.00    -0.127 SA
BRANCH  17  18
HETATM   18  C   UNL     1      41.261  45.544  66.003  1.00  0.00     0.106 C 
BRANCH  18  19
HETATM   19  C   UNL     1      42.762  45.794  65.863  1.00  0.00     0.177 C 
BRANCH  19  20
HETATM   20  O   UNL     1      43.066  46.307  64.566  1.00  0.00    -0.395 OA
HETATM   21  C   UNL     1      44.458  46.245  64.287  1.00  0.00     0.201 C 
ENDBRANCH  19  20
ENDBRANCH  18  19
ENDBRANCH  17  18
ENDBRANCH  12  17
ENDBRANCH   8  11
ENDBRANCH   1   7
BRANCH   2  22
HETATM   22  C   UNL     1      38.070  42.631  65.171  1.00  0.00     0.254 C 
HETATM   23  N   UNL     1      38.464  41.948  64.045  1.00  0.00    -0.354 N 
HETATM   24  H   UNL     1      37.858  42.119  63.245  1.00  0.00     0.162 HD
HETATM   25  O   UNL     1      38.807  43.021  66.068  1.00  0.00    -0.268 OA
BRANCH  23  26
HETATM   26  C   UNL     1      39.869  41.771  63.727  1.00  0.00     0.155 C 
BRANCH  26  27
HETATM   27  C   UNL     1      40.394  40.434  64.248  1.00  0.00     0.139 C 
HETATM   28  O   UNL     1      41.032  40.588  65.529  1.00  0.00    -0.384 OA
HETATM   29  C   UNL     1      40.728  39.432  66.325  1.00  0.00     0.168 C 
HETATM   30  C   UNL     1      39.955  38.470  65.447  1.00  0.00     0.029 C 
HETATM   31  C   UNL     1      39.301  39.399  64.455  1.00  0.00     0.035 C 
ENDBRANCH  26  27
ENDBRANCH  23  26
ENDBRANCH   2  22
TORSDOF 9
ENDMDL
