MODEL 1
REMARK VINA RESULT:      -9.0      0.000      0.000
REMARK  8 active torsions:
REMARK  status: ('A' for Active; 'I' for Inactive)
REMARK    1  A    between atoms: C_2  and  O_3 
REMARK    2  A    between atoms: O_3  and  C_4 
REMARK    3  A    between atoms: C_5  and  N_6 
REMARK       I    between atoms: N_6  and  C_7 
REMARK       I    between atoms: C_7  and  N_8 
REMARK    4  A    between atoms: N_8  and  C_9 
REMARK    5  A    between atoms: C_9  and  C_10 
REMARK       I    between atoms: C_10  and  N_11 
REMARK    6  A    between atoms: N_11  and  N_12 
REMARK    7  A    between atoms: C_13  and  C_14 
REMARK    8  A    between atoms: C_17  and  N_18 
REMARK       I    between atoms: N_18  and  C_19 
ROOT
HETATM    1  C   UNL     1      25.456  44.417  51.883  1.00  0.00     0.255 C 
HETATM    2  N   UNL     1      25.635  45.326  50.853  1.00  0.00    -0.246 N 
HETATM    3  O   UNL     1      24.485  44.390  52.641  1.00  0.00    -0.270 OA
HETATM    4  H   UNL     1      26.394  45.175  50.183  1.00  0.00     0.192 HD
ENDROOT
BRANCH   1   5
HETATM    5  C   UNL     1      26.510  43.307  51.926  1.00  0.00     0.228 C 
BRANCH   5   6
HETATM    6  N   UNL     1      27.836  43.707  52.383  1.00  0.00    -0.334 N 
HETATM    7  C   UNL     1      28.228  43.466  53.681  1.00  0.00     0.321 C 
HETATM    8  N   UNL     1      29.427  44.087  53.947  1.00  0.00    -0.306 N 
HETATM    9  O   UNL     1      27.606  42.709  54.418  1.00  0.00    -0.247 OA
HETATM   10  H   UNL     1      30.085  44.025  53.184  1.00  0.00     0.171 HD
HETATM   11  H   UNL     1      28.154  44.602  52.040  1.00  0.00     0.164 HD
BRANCH   8  12
HETATM   12  C   UNL     1      29.968  44.253  55.243  1.00  0.00     0.069 A 
HETATM   13  C   UNL     1      29.787  45.420  56.014  1.00  0.00     0.095 A 
HETATM   14  C   UNL     1      30.345  45.479  57.297  1.00  0.00     0.039 A 
HETATM   15  C   UNL     1      31.115  44.421  57.788  1.00  0.00     0.003 A 
HETATM   16  C   UNL     1      31.345  43.299  56.998  1.00  0.00     0.002 A 
HETATM   17  C   UNL     1      30.782  43.219  55.726  1.00  0.00     0.032 A 
BRANCH  13  18
HETATM   18  O   UNL     1      29.135  46.467  55.416  1.00  0.00    -0.349 OA
BRANCH  18  19
HETATM   19  C   UNL     1      27.862  46.849  55.930  1.00  0.00     0.171 C 
HETATM   20  C   UNL     1      27.295  47.925  55.022  1.00  0.00     0.034 C 
ENDBRANCH  18  19
ENDBRANCH  13  18
ENDBRANCH   8  12
ENDBRANCH   5   6
ENDBRANCH   1   5
BRANCH   2  21
HETATM   21  N   UNL     1      24.687  46.274  50.611  1.00  0.00    -0.184 NA
HETATM   22  C   UNL     1      24.905  47.032  49.586  1.00  0.00     0.150 C 
BRANCH  22  23
HETATM   23  C   UNL     1      23.932  48.066  49.176  1.00  0.00    -0.017 A 
HETATM   24  C   UNL     1      24.343  49.380  48.939  1.00  0.00     0.015 A 
HETATM   25  C   UNL     1      23.403  50.361  48.600  1.00  0.00     0.030 A 
HETATM   26  C   UNL     1      22.050  50.039  48.493  1.00  0.00     0.034 A 
HETATM   27  C   UNL     1      21.650  48.713  48.713  1.00  0.00     0.030 A 
HETATM   28  C   UNL     1      22.585  47.727  49.055  1.00  0.00     0.015 A 
BRANCH  26  29
HETATM   29  N   UNL     1      21.038  50.974  48.190  1.00  0.00    -0.328 N 
HETATM   30  C   UNL     1      20.106  51.516  49.058  1.00  0.00     0.218 C 
HETATM   31  C   UNL     1      19.145  52.445  48.359  1.00  0.00     0.117 C 
HETATM   32  O   UNL     1      20.024  51.329  50.266  1.00  0.00    -0.274 OA
HETATM   33  H   UNL     1      20.984  51.273  47.225  1.00  0.00     0.169 HD
ENDBRANCH  26  29
ENDBRANCH  22  23
ENDBRANCH   2  21
TORSDOF 8
ENDMDL
MODEL 2
REMARK VINA RESULT:      -8.9      2.412     11.511
REMARK  8 active torsions:
REMARK  status: ('A' for Active; 'I' for Inactive)
REMARK    1  A    between atoms: C_2  and  O_3 
REMARK    2  A    between atoms: O_3  and  C_4 
REMARK    3  A    between atoms: C_5  and  N_6 
REMARK       I    between atoms: N_6  and  C_7 
REMARK       I    between atoms: C_7  and  N_8 
REMARK    4  A    between atoms: N_8  and  C_9 
REMARK    5  A    between atoms: C_9  and  C_10 
REMARK       I    between atoms: C_10  and  N_11 
REMARK    6  A    between atoms: N_11  and  N_12 
REMARK    7  A    between atoms: C_13  and  C_14 
REMARK    8  A    between atoms: C_17  and  N_18 
REMARK       I    between atoms: N_18  and  C_19 
ROOT
HETATM    1  C   UNL     1      25.099  47.859  49.757  1.00  0.00     0.255 C 
HETATM    2  N   UNL     1      24.923  47.239  50.983  1.00  0.00    -0.246 N 
HETATM    3  O   UNL     1      26.190  48.120  49.246  1.00  0.00    -0.270 OA
HETATM    4  H   UNL     1      23.986  46.927  51.252  1.00  0.00     0.192 HD
ENDROOT
BRANCH   1   5
HETATM    5  C   UNL     1      23.801  48.070  48.972  1.00  0.00     0.228 C 
BRANCH   5   6
HETATM    6  N   UNL     1      22.688  48.635  49.726  1.00  0.00    -0.334 N 
HETATM    7  C   UNL     1      21.534  49.020  49.081  1.00  0.00     0.321 C 
HETATM    8  N   UNL     1      20.699  49.693  49.945  1.00  0.00    -0.306 N 
HETATM    9  O   UNL     1      21.293  48.690  47.925  1.00  0.00    -0.247 OA
HETATM   10  H   UNL     1      20.669  49.284  50.868  1.00  0.00     0.171 HD
HETATM   11  H   UNL     1      22.952  49.270  50.465  1.00  0.00     0.164 HD
BRANCH   8  12
HETATM   12  C   UNL     1      19.568  50.438  49.541  1.00  0.00     0.069 A 
HETATM   13  C   UNL     1      18.256  49.918  49.546  1.00  0.00     0.095 A 
HETATM   14  C   UNL     1      17.197  50.744  49.148  1.00  0.00     0.039 A 
HETATM   15  C   UNL     1      17.438  52.046  48.703  1.00  0.00     0.003 A 
HETATM   16  C   UNL     1      18.739  52.533  48.639  1.00  0.00     0.002 A 
HETATM   17  C   UNL     1      19.802  51.729  49.048  1.00  0.00     0.032 A 
BRANCH  13  18
HETATM   18  O   UNL     1      18.113  48.592  49.866  1.00  0.00    -0.349 OA
BRANCH  18  19
HETATM   19  C   UNL     1      17.222  47.804  49.081  1.00  0.00     0.171 C 
HETATM   20  C   UNL     1      18.051  46.800  48.300  1.00  0.00     0.034 C 
ENDBRANCH  18  19
ENDBRANCH  13  18
ENDBRANCH   8  12
ENDBRANCH   5   6
ENDBRANCH   1   5
BRANCH   2  21
HETATM   21  N   UNL     1      26.009  46.858  51.713  1.00  0.00    -0.184 NA
HETATM   22  C   UNL     1      25.807  46.725  52.984  1.00  0.00     0.150 C 
BRANCH  22  23
HETATM   23  C   UNL     1      26.882  46.265  53.888  1.00  0.00    -0.017 A 
HETATM   24  C   UNL     1      27.707  47.183  54.541  1.00  0.00     0.015 A 
HETATM   25  C   UNL     1      28.754  46.733  55.355  1.00  0.00     0.030 A 
HETATM   26  C   UNL     1      28.983  45.367  55.524  1.00  0.00     0.034 A 
HETATM   27  C   UNL     1      28.137  44.454  54.879  1.00  0.00     0.030 A 
HETATM   28  C   UNL     1      27.090  44.898  54.061  1.00  0.00     0.015 A 
BRANCH  26  29
HETATM   29  N   UNL     1      30.036  44.834  56.298  1.00  0.00    -0.328 N 
HETATM   30  C   UNL     1      30.879  43.789  55.964  1.00  0.00     0.218 C 
HETATM   31  C   UNL     1      31.852  43.463  57.071  1.00  0.00     0.117 C 
HETATM   32  O   UNL     1      30.908  43.170  54.907  1.00  0.00    -0.274 OA
HETATM   33  H   UNL     1      30.181  45.261  57.203  1.00  0.00     0.169 HD
ENDBRANCH  26  29
ENDBRANCH  22  23
ENDBRANCH   2  21
TORSDOF 8
ENDMDL
MODEL 3
REMARK VINA RESULT:      -8.8      2.288     10.498
REMARK  8 active torsions:
REMARK  status: ('A' for Active; 'I' for Inactive)
REMARK    1  A    between atoms: C_2  and  O_3 
REMARK    2  A    between atoms: O_3  and  C_4 
REMARK    3  A    between atoms: C_5  and  N_6 
REMARK       I    between atoms: N_6  and  C_7 
REMARK       I    between atoms: C_7  and  N_8 
REMARK    4  A    between atoms: N_8  and  C_9 
REMARK    5  A    between atoms: C_9  and  C_10 
REMARK       I    between atoms: C_10  and  N_11 
REMARK    6  A    between atoms: N_11  and  N_12 
REMARK    7  A    between atoms: C_13  and  C_14 
REMARK    8  A    between atoms: C_17  and  N_18 
REMARK       I    between atoms: N_18  and  C_19 
ROOT
HETATM    1  C   UNL     1      24.129  45.112  49.375  1.00  0.00     0.255 C 
HETATM    2  N   UNL     1      23.932  45.523  50.684  1.00  0.00    -0.246 N 
HETATM    3  O   UNL     1      25.134  44.532  48.960  1.00  0.00    -0.270 OA
HETATM    4  H   UNL     1      23.006  45.857  50.966  1.00  0.00     0.192 HD
ENDROOT
BRANCH   1   5
HETATM    5  C   UNL     1      22.905  45.294  48.473  1.00  0.00     0.228 C 
BRANCH   5   6
HETATM    6  N   UNL     1      21.828  46.111  49.021  1.00  0.00    -0.334 N 
HETATM    7  C   UNL     1      21.393  47.232  48.350  1.00  0.00     0.321 C 
HETATM    8  N   UNL     1      20.512  47.949  49.129  1.00  0.00    -0.306 N 
HETATM    9  O   UNL     1      21.701  47.453  47.185  1.00  0.00    -0.247 OA
HETATM   10  H   UNL     1      19.867  47.364  49.640  1.00  0.00     0.171 HD
HETATM   11  H   UNL     1      21.859  46.242  50.022  1.00  0.00     0.164 HD
BRANCH   8  12
HETATM   12  C   UNL     1      20.089  49.267  48.844  1.00  0.00     0.069 A 
HETATM   13  C   UNL     1      20.914  50.399  49.013  1.00  0.00     0.095 A 
HETATM   14  C   UNL     1      20.409  51.663  48.682  1.00  0.00     0.039 A 
HETATM   15  C   UNL     1      19.092  51.810  48.241  1.00  0.00     0.003 A 
HETATM   16  C   UNL     1      18.261  50.699  48.138  1.00  0.00     0.002 A 
HETATM   17  C   UNL     1      18.755  49.433  48.447  1.00  0.00     0.032 A 
BRANCH  13  18
HETATM   18  O   UNL     1      22.147  50.192  49.576  1.00  0.00    -0.349 OA
BRANCH  18  19
HETATM   19  C   UNL     1      23.245  50.962  49.092  1.00  0.00     0.171 C 
HETATM   20  C   UNL     1      23.788  50.273  47.853  1.00  0.00     0.034 C 
ENDBRANCH  18  19
ENDBRANCH  13  18
ENDBRANCH   8  12
ENDBRANCH   5   6
ENDBRANCH   1   5
BRANCH   2  21
HETATM   21  N   UNL     1      24.888  45.278  51.623  1.00  0.00    -0.184 NA
HETATM   22  C   UNL     1      25.432  46.327  52.151  1.00  0.00     0.150 C 
BRANCH  22  23
HETATM   23  C   UNL     1      26.445  46.209  53.221  1.00  0.00    -0.017 A 
HETATM   24  C   UNL     1      26.787  47.313  54.005  1.00  0.00     0.015 A 
HETATM   25  C   UNL     1      27.784  47.200  54.982  1.00  0.00     0.030 A 
HETATM   26  C   UNL     1      28.443  45.987  55.185  1.00  0.00     0.034 A 
HETATM   27  C   UNL     1      28.079  44.880  54.405  1.00  0.00     0.030 A 
HETATM   28  C   UNL     1      27.084  44.987  53.425  1.00  0.00     0.015 A 
BRANCH  26  29
HETATM   29  N   UNL     1      29.481  45.801  56.122  1.00  0.00    -0.328 N 
HETATM   30  C   UNL     1      29.420  45.984  57.493  1.00  0.00     0.218 C 
HETATM   31  C   UNL     1      30.749  45.740  58.163  1.00  0.00     0.117 C 
HETATM   32  O   UNL     1      28.434  46.284  58.156  1.00  0.00    -0.274 OA
HETATM   33  H   UNL     1      30.373  45.510  55.745  1.00  0.00     0.169 HD
ENDBRANCH  26  29
ENDBRANCH  22  23
ENDBRANCH   2  21
TORSDOF 8
ENDMDL
MODEL 4
REMARK VINA RESULT:      -8.8      1.845      2.492
REMARK  8 active torsions:
REMARK  status: ('A' for Active; 'I' for Inactive)
REMARK    1  A    between atoms: C_2  and  O_3 
REMARK    2  A    between atoms: O_3  and  C_4 
REMARK    3  A    between atoms: C_5  and  N_6 
REMARK       I    between atoms: N_6  and  C_7 
REMARK       I    between atoms: C_7  and  N_8 
REMARK    4  A    between atoms: N_8  and  C_9 
REMARK    5  A    between atoms: C_9  and  C_10 
REMARK       I    between atoms: C_10  and  N_11 
REMARK    6  A    between atoms: N_11  and  N_12 
REMARK    7  A    between atoms: C_13  and  C_14 
REMARK    8  A    between atoms: C_17  and  N_18 
REMARK       I    between atoms: N_18  and  C_19 
ROOT
HETATM    1  C   UNL     1      27.503  42.041  50.918  1.00  0.00     0.255 C 
HETATM    2  N   UNL     1      26.750  42.953  51.639  1.00  0.00    -0.246 N 
HETATM    3  O   UNL     1      27.566  41.990  49.689  1.00  0.00    -0.270 OA
HETATM    4  H   UNL     1      26.881  43.017  52.652  1.00  0.00     0.192 HD
ENDROOT
BRANCH   1   5
HETATM    5  C   UNL     1      28.411  41.161  51.783  1.00  0.00     0.228 C 
BRANCH   5   6
HETATM    6  N   UNL     1      29.463  41.859  52.512  1.00  0.00    -0.334 N 
HETATM    7  C   UNL     1      29.243  42.303  53.798  1.00  0.00     0.321 C 
HETATM    8  N   UNL     1      30.289  43.091  54.222  1.00  0.00    -0.306 N 
HETATM    9  O   UNL     1      28.281  41.930  54.458  1.00  0.00    -0.247 OA
HETATM   10  H   UNL     1      31.192  42.739  53.940  1.00  0.00     0.171 HD
HETATM   11  H   UNL     1      30.005  42.510  51.962  1.00  0.00     0.164 HD
BRANCH   8  12
HETATM   12  C   UNL     1      30.255  43.905  55.378  1.00  0.00     0.069 A 
HETATM   13  C   UNL     1      29.417  45.032  55.508  1.00  0.00     0.095 A 
HETATM   14  C   UNL     1      29.440  45.762  56.703  1.00  0.00     0.039 A 
HETATM   15  C   UNL     1      30.318  45.413  57.733  1.00  0.00     0.003 A 
HETATM   16  C   UNL     1      31.189  44.340  57.575  1.00  0.00     0.002 A 
HETATM   17  C   UNL     1      31.165  43.594  56.398  1.00  0.00     0.032 A 
BRANCH  13  18
HETATM   18  O   UNL     1      28.682  45.391  54.406  1.00  0.00    -0.349 OA
BRANCH  18  19
HETATM   19  C   UNL     1      27.301  45.691  54.588  1.00  0.00     0.171 C 
HETATM   20  C   UNL     1      27.076  47.132  54.167  1.00  0.00     0.034 C 
ENDBRANCH  18  19
ENDBRANCH  13  18
ENDBRANCH   8  12
ENDBRANCH   5   6
ENDBRANCH   1   5
BRANCH   2  21
HETATM   21  N   UNL     1      26.015  43.895  50.983  1.00  0.00    -0.184 NA
HETATM   22  C   UNL     1      26.450  45.109  51.079  1.00  0.00     0.150 C 
BRANCH  22  23
HETATM   23  C   UNL     1      25.781  46.222  50.374  1.00  0.00    -0.017 A 
HETATM   24  C   UNL     1      26.494  47.364  50.002  1.00  0.00     0.015 A 
HETATM   25  C   UNL     1      25.837  48.432  49.379  1.00  0.00     0.030 A 
HETATM   26  C   UNL     1      24.467  48.369  49.123  1.00  0.00     0.034 A 
HETATM   27  C   UNL     1      23.763  47.210  49.484  1.00  0.00     0.030 A 
HETATM   28  C   UNL     1      24.414  46.139  50.109  1.00  0.00     0.015 A 
BRANCH  26  29
HETATM   29  N   UNL     1      23.726  49.414  48.533  1.00  0.00    -0.328 N 
HETATM   30  C   UNL     1      22.879  50.307  49.165  1.00  0.00     0.218 C 
HETATM   31  C   UNL     1      22.217  51.254  48.195  1.00  0.00     0.117 C 
HETATM   32  O   UNL     1      22.661  50.395  50.368  1.00  0.00    -0.274 OA
HETATM   33  H   UNL     1      23.819  49.513  47.530  1.00  0.00     0.169 HD
ENDBRANCH  26  29
ENDBRANCH  22  23
ENDBRANCH   2  21
TORSDOF 8
ENDMDL
MODEL 5
REMARK VINA RESULT:      -8.6      2.660     11.459
REMARK  8 active torsions:
REMARK  status: ('A' for Active; 'I' for Inactive)
REMARK    1  A    between atoms: C_2  and  O_3 
REMARK    2  A    between atoms: O_3  and  C_4 
REMARK    3  A    between atoms: C_5  and  N_6 
REMARK       I    between atoms: N_6  and  C_7 
REMARK       I    between atoms: C_7  and  N_8 
REMARK    4  A    between atoms: N_8  and  C_9 
REMARK    5  A    between atoms: C_9  and  C_10 
REMARK       I    between atoms: C_10  and  N_11 
REMARK    6  A    between atoms: N_11  and  N_12 
REMARK    7  A    between atoms: C_13  and  C_14 
REMARK    8  A    between atoms: C_17  and  N_18 
REMARK       I    between atoms: N_18  and  C_19 
ROOT
HETATM    1  C   UNL     1      24.537  48.127  49.659  1.00  0.00     0.255 C 
HETATM    2  N   UNL     1      24.218  47.220  50.655  1.00  0.00    -0.246 N 
HETATM    3  O   UNL     1      25.679  48.370  49.263  1.00  0.00    -0.270 OA
HETATM    4  H   UNL     1      23.236  46.974  50.808  1.00  0.00     0.192 HD
ENDROOT
BRANCH   1   5
HETATM    5  C   UNL     1      23.321  48.723  48.943  1.00  0.00     0.228 C 
BRANCH   5   6
HETATM    6  N   UNL     1      22.020  48.355  49.490  1.00  0.00    -0.334 N 
HETATM    7  C   UNL     1      20.884  48.464  48.719  1.00  0.00     0.321 C 
HETATM    8  N   UNL     1      19.759  48.249  49.483  1.00  0.00    -0.306 N 
HETATM    9  O   UNL     1      20.935  48.628  47.506  1.00  0.00    -0.247 OA
HETATM   10  H   UNL     1      19.869  47.496  50.148  1.00  0.00     0.171 HD
HETATM   11  H   UNL     1      21.868  48.629  50.450  1.00  0.00     0.164 HD
BRANCH   8  12
HETATM   12  C   UNL     1      18.442  48.540  49.062  1.00  0.00     0.069 A 
HETATM   13  C   UNL     1      17.811  49.780  49.293  1.00  0.00     0.095 A 
HETATM   14  C   UNL     1      16.509  49.979  48.816  1.00  0.00     0.039 A 
HETATM   15  C   UNL     1      15.824  48.950  48.165  1.00  0.00     0.003 A 
HETATM   16  C   UNL     1      16.427  47.707  47.996  1.00  0.00     0.002 A 
HETATM   17  C   UNL     1      17.728  47.500  48.450  1.00  0.00     0.032 A 
BRANCH  13  18
HETATM   18  O   UNL     1      18.494  50.694  50.054  1.00  0.00    -0.349 OA
BRANCH  18  19
HETATM   19  C   UNL     1      18.595  52.030  49.570  1.00  0.00     0.171 C 
HETATM   20  C   UNL     1      19.676  52.061  48.505  1.00  0.00     0.034 C 
ENDBRANCH  18  19
ENDBRANCH  13  18
ENDBRANCH   8  12
ENDBRANCH   5   6
ENDBRANCH   1   5
BRANCH   2  21
HETATM   21  N   UNL     1      25.205  46.507  51.266  1.00  0.00    -0.184 NA
HETATM   22  C   UNL     1      25.543  46.919  52.445  1.00  0.00     0.150 C 
BRANCH  22  23
HETATM   23  C   UNL     1      26.562  46.207  53.244  1.00  0.00    -0.017 A 
HETATM   24  C   UNL     1      27.125  46.800  54.376  1.00  0.00     0.015 A 
HETATM   25  C   UNL     1      28.126  46.135  55.095  1.00  0.00     0.030 A 
HETATM   26  C   UNL     1      28.570  44.875  54.692  1.00  0.00     0.034 A 
HETATM   27  C   UNL     1      27.984  44.280  53.565  1.00  0.00     0.030 A 
HETATM   28  C   UNL     1      26.985  44.941  52.840  1.00  0.00     0.015 A 
BRANCH  26  29
HETATM   29  N   UNL     1      29.596  44.156  55.340  1.00  0.00    -0.328 N 
HETATM   30  C   UNL     1      30.514  44.640  56.256  1.00  0.00     0.218 C 
HETATM   31  C   UNL     1      31.498  43.584  56.693  1.00  0.00     0.117 C 
HETATM   32  O   UNL     1      30.568  45.773  56.721  1.00  0.00    -0.274 OA
HETATM   33  H   UNL     1      29.673  43.177  55.098  1.00  0.00     0.169 HD
ENDBRANCH  26  29
ENDBRANCH  22  23
ENDBRANCH   2  21
TORSDOF 8
ENDMDL
MODEL 6
REMARK VINA RESULT:      -8.4      2.758      5.196
REMARK  8 active torsions:
REMARK  status: ('A' for Active; 'I' for Inactive)
REMARK    1  A    between atoms: C_2  and  O_3 
REMARK    2  A    between atoms: O_3  and  C_4 
REMARK    3  A    between atoms: C_5  and  N_6 
REMARK       I    between atoms: N_6  and  C_7 
REMARK       I    between atoms: C_7  and  N_8 
REMARK    4  A    between atoms: N_8  and  C_9 
REMARK    5  A    between atoms: C_9  and  C_10 
REMARK       I    between atoms: C_10  and  N_11 
REMARK    6  A    between atoms: N_11  and  N_12 
REMARK    7  A    between atoms: C_13  and  C_14 
REMARK    8  A    between atoms: C_17  and  N_18 
REMARK       I    between atoms: N_18  and  C_19 
ROOT
HETATM    1  C   UNL     1      23.033  48.054  48.797  1.00  0.00     0.255 C 
HETATM    2  N   UNL     1      22.626  49.064  49.653  1.00  0.00    -0.246 N 
HETATM    3  O   UNL     1      22.584  47.861  47.665  1.00  0.00    -0.270 OA
HETATM    4  H   UNL     1      23.162  49.238  50.507  1.00  0.00     0.192 HD
ENDROOT
BRANCH   1   5
HETATM    5  C   UNL     1      24.234  47.251  49.305  1.00  0.00     0.228 C 
BRANCH   5   6
HETATM    6  N   UNL     1      24.258  46.983  50.738  1.00  0.00    -0.334 N 
HETATM    7  C   UNL     1      25.407  47.194  51.468  1.00  0.00     0.321 C 
HETATM    8  N   UNL     1      25.264  46.702  52.746  1.00  0.00    -0.306 N 
HETATM    9  O   UNL     1      26.354  47.829  51.020  1.00  0.00    -0.247 OA
HETATM   10  H   UNL     1      24.354  46.885  53.143  1.00  0.00     0.171 HD
HETATM   11  H   UNL     1      23.760  46.152  51.025  1.00  0.00     0.164 HD
BRANCH   8  12
HETATM   12  C   UNL     1      26.332  46.527  53.656  1.00  0.00     0.069 A 
HETATM   13  C   UNL     1      27.142  45.373  53.686  1.00  0.00     0.095 A 
HETATM   14  C   UNL     1      28.191  45.303  54.612  1.00  0.00     0.039 A 
HETATM   15  C   UNL     1      28.401  46.337  55.528  1.00  0.00     0.003 A 
HETATM   16  C   UNL     1      27.560  47.444  55.537  1.00  0.00     0.002 A 
HETATM   17  C   UNL     1      26.522  47.536  54.611  1.00  0.00     0.032 A 
BRANCH  13  18
HETATM   18  O   UNL     1      26.792  44.344  52.849  1.00  0.00    -0.349 OA
BRANCH  18  19
HETATM   19  C   UNL     1      27.761  43.881  51.912  1.00  0.00     0.171 C 
HETATM   20  C   UNL     1      27.286  44.265  50.522  1.00  0.00     0.034 C 
ENDBRANCH  18  19
ENDBRANCH  13  18
ENDBRANCH   8  12
ENDBRANCH   5   6
ENDBRANCH   1   5
BRANCH   2  21
HETATM   21  N   UNL     1      21.667  49.946  49.254  1.00  0.00    -0.184 NA
HETATM   22  C   UNL     1      20.458  49.654  49.611  1.00  0.00     0.150 C 
BRANCH  22  23
HETATM   23  C   UNL     1      19.327  50.551  49.293  1.00  0.00    -0.017 A 
HETATM   24  C   UNL     1      19.552  51.857  48.855  1.00  0.00     0.015 A 
HETATM   25  C   UNL     1      18.471  52.712  48.605  1.00  0.00     0.030 A 
HETATM   26  C   UNL     1      17.161  52.269  48.789  1.00  0.00     0.034 A 
HETATM   27  C   UNL     1      16.945  50.950  49.211  1.00  0.00     0.030 A 
HETATM   28  C   UNL     1      18.022  50.091  49.465  1.00  0.00     0.015 A 
BRANCH  26  29
HETATM   29  N   UNL     1      16.021  53.078  48.593  1.00  0.00    -0.328 N 
HETATM   30  C   UNL     1      15.242  53.683  49.563  1.00  0.00     0.218 C 
HETATM   31  C   UNL     1      14.069  54.427  48.974  1.00  0.00     0.117 C 
HETATM   32  O   UNL     1      15.433  53.680  50.774  1.00  0.00    -0.274 OA
HETATM   33  H   UNL     1      15.738  53.220  47.632  1.00  0.00     0.169 HD
ENDBRANCH  26  29
ENDBRANCH  22  23
ENDBRANCH   2  21
TORSDOF 8
ENDMDL
MODEL 7
REMARK VINA RESULT:      -8.3      2.549     10.882
REMARK  8 active torsions:
REMARK  status: ('A' for Active; 'I' for Inactive)
REMARK    1  A    between atoms: C_2  and  O_3 
REMARK    2  A    between atoms: O_3  and  C_4 
REMARK    3  A    between atoms: C_5  and  N_6 
REMARK       I    between atoms: N_6  and  C_7 
REMARK       I    between atoms: C_7  and  N_8 
REMARK    4  A    between atoms: N_8  and  C_9 
REMARK    5  A    between atoms: C_9  and  C_10 
REMARK       I    between atoms: C_10  and  N_11 
REMARK    6  A    between atoms: N_11  and  N_12 
REMARK    7  A    between atoms: C_13  and  C_14 
REMARK    8  A    between atoms: C_17  and  N_18 
REMARK       I    between atoms: N_18  and  C_19 
ROOT
HETATM    1  C   UNL     1      24.335  43.934  48.959  1.00  0.00     0.255 C 
HETATM    2  N   UNL     1      25.392  44.750  49.328  1.00  0.00    -0.246 N 
HETATM    3  O   UNL     1      24.162  42.780  49.354  1.00  0.00    -0.270 OA
HETATM    4  H   UNL     1      25.369  45.741  49.070  1.00  0.00     0.192 HD
ENDROOT
BRANCH   1   5
HETATM    5  C   UNL     1      23.268  44.638  48.115  1.00  0.00     0.228 C 
BRANCH   5   6
HETATM    6  N   UNL     1      22.386  45.547  48.837  1.00  0.00    -0.334 N 
HETATM    7  C   UNL     1      21.945  46.709  48.242  1.00  0.00     0.321 C 
HETATM    8  N   UNL     1      21.287  47.500  49.157  1.00  0.00    -0.306 N 
HETATM    9  O   UNL     1      22.062  46.908  47.038  1.00  0.00    -0.247 OA
HETATM   10  H   UNL     1      20.691  46.974  49.779  1.00  0.00     0.171 HD
HETATM   11  H   UNL     1      22.605  45.669  49.815  1.00  0.00     0.164 HD
BRANCH   8  12
HETATM   12  C   UNL     1      20.944  48.854  48.938  1.00  0.00     0.069 A 
HETATM   13  C   UNL     1      19.662  49.271  48.522  1.00  0.00     0.095 A 
HETATM   14  C   UNL     1      19.415  50.640  48.354  1.00  0.00     0.039 A 
HETATM   15  C   UNL     1      20.435  51.576  48.544  1.00  0.00     0.003 A 
HETATM   16  C   UNL     1      21.715  51.154  48.891  1.00  0.00     0.002 A 
HETATM   17  C   UNL     1      21.971  49.797  49.079  1.00  0.00     0.032 A 
BRANCH  13  18
HETATM   18  O   UNL     1      18.753  48.288  48.226  1.00  0.00    -0.349 OA
BRANCH  18  19
HETATM   19  C   UNL     1      17.510  48.291  48.923  1.00  0.00     0.171 C 
HETATM   20  C   UNL     1      16.834  46.954  48.677  1.00  0.00     0.034 C 
ENDBRANCH  18  19
ENDBRANCH  13  18
ENDBRANCH   8  12
ENDBRANCH   5   6
ENDBRANCH   1   5
BRANCH   2  21
HETATM   21  N   UNL     1      26.331  44.292  50.202  1.00  0.00    -0.184 NA
HETATM   22  C   UNL     1      26.402  44.925  51.328  1.00  0.00     0.150 C 
BRANCH  22  23
HETATM   23  C   UNL     1      27.338  44.501  52.389  1.00  0.00    -0.017 A 
HETATM   24  C   UNL     1      27.192  44.965  53.698  1.00  0.00     0.015 A 
HETATM   25  C   UNL     1      28.115  44.595  54.684  1.00  0.00     0.030 A 
HETATM   26  C   UNL     1      29.189  43.760  54.371  1.00  0.00     0.034 A 
HETATM   27  C   UNL     1      29.317  43.285  53.058  1.00  0.00     0.030 A 
HETATM   28  C   UNL     1      28.397  43.653  52.067  1.00  0.00     0.015 A 
BRANCH  26  29
HETATM   29  N   UNL     1      30.180  43.371  55.296  1.00  0.00    -0.328 N 
HETATM   30  C   UNL     1      30.841  44.173  56.210  1.00  0.00     0.218 C 
HETATM   31  C   UNL     1      31.879  43.411  56.996  1.00  0.00     0.117 C 
HETATM   32  O   UNL     1      30.644  45.363  56.427  1.00  0.00    -0.274 OA
HETATM   33  H   UNL     1      30.443  42.394  55.280  1.00  0.00     0.169 HD
ENDBRANCH  26  29
ENDBRANCH  22  23
ENDBRANCH   2  21
TORSDOF 8
ENDMDL
MODEL 8
REMARK VINA RESULT:      -8.2      2.750      4.709
REMARK  8 active torsions:
REMARK  status: ('A' for Active; 'I' for Inactive)
REMARK    1  A    between atoms: C_2  and  O_3 
REMARK    2  A    between atoms: O_3  and  C_4 
REMARK    3  A    between atoms: C_5  and  N_6 
REMARK       I    between atoms: N_6  and  C_7 
REMARK       I    between atoms: C_7  and  N_8 
REMARK    4  A    between atoms: N_8  and  C_9 
REMARK    5  A    between atoms: C_9  and  C_10 
REMARK       I    between atoms: C_10  and  N_11 
REMARK    6  A    between atoms: N_11  and  N_12 
REMARK    7  A    between atoms: C_13  and  C_14 
REMARK    8  A    between atoms: C_17  and  N_18 
REMARK       I    between atoms: N_18  and  C_19 
ROOT
HETATM    1  C   UNL     1      23.329  47.930  49.421  1.00  0.00     0.255 C 
HETATM    2  N   UNL     1      21.956  47.854  49.249  1.00  0.00    -0.246 N 
HETATM    3  O   UNL     1      23.961  48.971  49.613  1.00  0.00    -0.270 OA
HETATM    4  H   UNL     1      21.506  46.935  49.249  1.00  0.00     0.192 HD
ENDROOT
BRANCH   1   5
HETATM    5  C   UNL     1      24.023  46.568  49.513  1.00  0.00     0.228 C 
BRANCH   5   6
HETATM    6  N   UNL     1      24.255  46.064  50.862  1.00  0.00    -0.334 N 
HETATM    7  C   UNL     1      25.531  46.021  51.379  1.00  0.00     0.321 C 
HETATM    8  N   UNL     1      25.543  45.343  52.578  1.00  0.00    -0.306 N 
HETATM    9  O   UNL     1      26.467  46.612  50.853  1.00  0.00    -0.247 OA
HETATM   10  H   UNL     1      24.749  45.558  53.163  1.00  0.00     0.171 HD
HETATM   11  H   UNL     1      23.703  45.258  51.117  1.00  0.00     0.164 HD
BRANCH   8  12
HETATM   12  C   UNL     1      26.716  44.901  53.231  1.00  0.00     0.069 A 
HETATM   13  C   UNL     1      27.405  45.670  54.191  1.00  0.00     0.095 A 
HETATM   14  C   UNL     1      28.547  45.134  54.799  1.00  0.00     0.039 A 
HETATM   15  C   UNL     1      29.030  43.878  54.424  1.00  0.00     0.003 A 
HETATM   16  C   UNL     1      28.384  43.150  53.430  1.00  0.00     0.002 A 
HETATM   17  C   UNL     1      27.236  43.663  52.828  1.00  0.00     0.032 A 
BRANCH  13  18
HETATM   18  O   UNL     1      26.950  46.946  54.409  1.00  0.00    -0.349 OA
BRANCH  18  19
HETATM   19  C   UNL     1      27.250  47.561  55.659  1.00  0.00     0.171 C 
HETATM   20  C   UNL     1      26.350  48.775  55.810  1.00  0.00     0.034 C 
ENDBRANCH  18  19
ENDBRANCH  13  18
ENDBRANCH   8  12
ENDBRANCH   5   6
ENDBRANCH   1   5
BRANCH   2  21
HETATM   21  N   UNL     1      21.202  48.987  49.302  1.00  0.00    -0.184 NA
HETATM   22  C   UNL     1      19.932  48.820  49.117  1.00  0.00     0.150 C 
BRANCH  22  23
HETATM   23  C   UNL     1      18.989  49.955  49.201  1.00  0.00    -0.017 A 
HETATM   24  C   UNL     1      17.713  49.866  48.642  1.00  0.00     0.015 A 
HETATM   25  C   UNL     1      16.847  50.966  48.684  1.00  0.00     0.030 A 
HETATM   26  C   UNL     1      17.248  52.160  49.286  1.00  0.00     0.034 A 
HETATM   27  C   UNL     1      18.524  52.233  49.861  1.00  0.00     0.030 A 
HETATM   28  C   UNL     1      19.395  51.136  49.820  1.00  0.00     0.015 A 
BRANCH  26  29
HETATM   29  N   UNL     1      16.450  53.322  49.339  1.00  0.00    -0.328 N 
HETATM   30  C   UNL     1      15.177  53.446  49.867  1.00  0.00     0.218 C 
HETATM   31  C   UNL     1      14.618  54.836  49.694  1.00  0.00     0.117 C 
HETATM   32  O   UNL     1      14.528  52.581  50.444  1.00  0.00    -0.274 OA
HETATM   33  H   UNL     1      16.854  54.157  48.934  1.00  0.00     0.169 HD
ENDBRANCH  26  29
ENDBRANCH  22  23
ENDBRANCH   2  21
TORSDOF 8
ENDMDL
MODEL 9
REMARK VINA RESULT:      -8.1      2.332     10.751
REMARK  8 active torsions:
REMARK  status: ('A' for Active; 'I' for Inactive)
REMARK    1  A    between atoms: C_2  and  O_3 
REMARK    2  A    between atoms: O_3  and  C_4 
REMARK    3  A    between atoms: C_5  and  N_6 
REMARK       I    between atoms: N_6  and  C_7 
REMARK       I    between atoms: C_7  and  N_8 
REMARK    4  A    between atoms: N_8  and  C_9 
REMARK    5  A    between atoms: C_9  and  C_10 
REMARK       I    between atoms: C_10  and  N_11 
REMARK    6  A    between atoms: N_11  and  N_12 
REMARK    7  A    between atoms: C_13  and  C_14 
REMARK    8  A    between atoms: C_17  and  N_18 
REMARK       I    between atoms: N_18  and  C_19 
ROOT
HETATM    1  C   UNL     1      22.209  44.385  49.191  1.00  0.00     0.255 C 
HETATM    2  N   UNL     1      23.135  45.313  49.637  1.00  0.00    -0.246 N 
HETATM    3  O   UNL     1      22.317  43.163  49.313  1.00  0.00    -0.270 OA
HETATM    4  H   UNL     1      22.887  46.307  49.628  1.00  0.00     0.192 HD
ENDROOT
BRANCH   1   5
HETATM    5  C   UNL     1      20.915  45.002  48.652  1.00  0.00     0.228 C 
BRANCH   5   6
HETATM    6  N   UNL     1      20.357  46.096  49.439  1.00  0.00    -0.334 N 
HETATM    7  C   UNL     1      19.950  47.260  48.825  1.00  0.00     0.321 C 
HETATM    8  N   UNL     1      19.637  48.217  49.764  1.00  0.00    -0.306 N 
HETATM    9  O   UNL     1      19.805  47.338  47.611  1.00  0.00    -0.247 OA
HETATM   10  H   UNL     1      19.139  47.845  50.560  1.00  0.00     0.171 HD
HETATM   11  H   UNL     1      20.815  46.262  50.324  1.00  0.00     0.164 HD
BRANCH   8  12
HETATM   12  C   UNL     1      19.438  49.585  49.470  1.00  0.00     0.069 A 
HETATM   13  C   UNL     1      20.426  50.403  48.884  1.00  0.00     0.095 A 
HETATM   14  C   UNL     1      20.125  51.743  48.611  1.00  0.00     0.039 A 
HETATM   15  C   UNL     1      18.882  52.279  48.961  1.00  0.00     0.003 A 
HETATM   16  C   UNL     1      17.934  51.485  49.598  1.00  0.00     0.002 A 
HETATM   17  C   UNL     1      18.214  50.145  49.860  1.00  0.00     0.032 A 
BRANCH  13  18
HETATM   18  O   UNL     1      21.664  49.844  48.692  1.00  0.00    -0.349 OA
BRANCH  18  19
HETATM   19  C   UNL     1      22.811  50.660  48.915  1.00  0.00     0.171 C 
HETATM   20  C   UNL     1      23.907  50.190  47.975  1.00  0.00     0.034 C 
ENDBRANCH  18  19
ENDBRANCH  13  18
ENDBRANCH   8  12
ENDBRANCH   5   6
ENDBRANCH   1   5
BRANCH   2  21
HETATM   21  N   UNL     1      24.262  44.895  50.277  1.00  0.00    -0.184 NA
HETATM   22  C   UNL     1      24.457  45.400  51.452  1.00  0.00     0.150 C 
BRANCH  22  23
HETATM   23  C   UNL     1      25.612  44.994  52.280  1.00  0.00    -0.017 A 
HETATM   24  C   UNL     1      26.043  43.666  52.303  1.00  0.00     0.015 A 
HETATM   25  C   UNL     1      27.107  43.285  53.130  1.00  0.00     0.030 A 
HETATM   26  C   UNL     1      27.748  44.225  53.937  1.00  0.00     0.034 A 
HETATM   27  C   UNL     1      27.320  45.560  53.893  1.00  0.00     0.030 A 
HETATM   28  C   UNL     1      26.255  45.947  53.069  1.00  0.00     0.015 A 
BRANCH  26  29
HETATM   29  N   UNL     1      28.802  43.916  54.823  1.00  0.00    -0.328 N 
HETATM   30  C   UNL     1      30.021  43.339  54.512  1.00  0.00     0.218 C 
HETATM   31  C   UNL     1      30.874  43.110  55.734  1.00  0.00     0.117 C 
HETATM   32  O   UNL     1      30.437  43.044  53.397  1.00  0.00    -0.274 OA
HETATM   33  H   UNL     1      28.640  44.133  55.798  1.00  0.00     0.169 HD
ENDBRANCH  26  29
ENDBRANCH  22  23
ENDBRANCH   2  21
TORSDOF 8
ENDMDL
MODEL 10
REMARK VINA RESULT:      -8.0      2.656      5.580
REMARK  8 active torsions:
REMARK  status: ('A' for Active; 'I' for Inactive)
REMARK    1  A    between atoms: C_2  and  O_3 
REMARK    2  A    between atoms: O_3  and  C_4 
REMARK    3  A    between atoms: C_5  and  N_6 
REMARK       I    between atoms: N_6  and  C_7 
REMARK       I    between atoms: C_7  and  N_8 
REMARK    4  A    between atoms: N_8  and  C_9 
REMARK    5  A    between atoms: C_9  and  C_10 
REMARK       I    between atoms: C_10  and  N_11 
REMARK    6  A    between atoms: N_11  and  N_12 
REMARK    7  A    between atoms: C_13  and  C_14 
REMARK    8  A    between atoms: C_17  and  N_18 
REMARK       I    between atoms: N_18  and  C_19 
ROOT
HETATM    1  C   UNL     1      24.769  49.316  48.673  1.00  0.00     0.255 C 
HETATM    2  N   UNL     1      23.836  49.436  49.690  1.00  0.00    -0.246 N 
HETATM    3  O   UNL     1      24.740  49.939  47.610  1.00  0.00    -0.270 OA
HETATM    4  H   UNL     1      24.026  48.995  50.594  1.00  0.00     0.192 HD
ENDROOT
BRANCH   1   5
HETATM    5  C   UNL     1      25.971  48.437  49.029  1.00  0.00     0.228 C 
BRANCH   5   6
HETATM    6  N   UNL     1      25.736  47.422  50.050  1.00  0.00    -0.334 N 
HETATM    7  C   UNL     1      26.359  46.196  49.970  1.00  0.00     0.321 C 
HETATM    8  N   UNL     1      25.854  45.336  50.919  1.00  0.00    -0.306 N 
HETATM    9  O   UNL     1      27.297  45.992  49.209  1.00  0.00    -0.247 OA
HETATM   10  H   UNL     1      25.689  45.780  51.810  1.00  0.00     0.171 HD
HETATM   11  H   UNL     1      24.781  47.355  50.372  1.00  0.00     0.164 HD
BRANCH   8  12
HETATM   12  C   UNL     1      26.088  43.942  50.935  1.00  0.00     0.069 A 
HETATM   13  C   UNL     1      27.081  43.333  51.730  1.00  0.00     0.095 A 
HETATM   14  C   UNL     1      27.221  41.940  51.693  1.00  0.00     0.039 A 
HETATM   15  C   UNL     1      26.426  41.167  50.842  1.00  0.00     0.003 A 
HETATM   16  C   UNL     1      25.492  41.778  50.012  1.00  0.00     0.002 A 
HETATM   17  C   UNL     1      25.330  43.162  50.051  1.00  0.00     0.032 A 
BRANCH  13  18
HETATM   18  O   UNL     1      27.911  44.166  52.436  1.00  0.00    -0.349 OA
BRANCH  18  19
HETATM   19  C   UNL     1      27.881  44.096  53.859  1.00  0.00     0.171 C 
HETATM   20  C   UNL     1      29.301  43.873  54.346  1.00  0.00     0.034 C 
ENDBRANCH  18  19
ENDBRANCH  13  18
ENDBRANCH   8  12
ENDBRANCH   5   6
ENDBRANCH   1   5
BRANCH   2  21
HETATM   21  N   UNL     1      22.796  50.307  49.558  1.00  0.00    -0.184 NA
HETATM   22  C   UNL     1      21.631  49.765  49.411  1.00  0.00     0.150 C 
BRANCH  22  23
HETATM   23  C   UNL     1      20.408  50.589  49.311  1.00  0.00    -0.017 A 
HETATM   24  C   UNL     1      20.334  51.649  48.405  1.00  0.00     0.015 A 
HETATM   25  C   UNL     1      19.189  52.454  48.355  1.00  0.00     0.030 A 
HETATM   26  C   UNL     1      18.111  52.206  49.206  1.00  0.00     0.034 A 
HETATM   27  C   UNL     1      18.188  51.127  50.098  1.00  0.00     0.030 A 
HETATM   28  C   UNL     1      19.332  50.320  50.155  1.00  0.00     0.015 A 
BRANCH  26  29
HETATM   29  N   UNL     1      16.938  52.989  49.242  1.00  0.00    -0.328 N 
HETATM   30  C   UNL     1      15.723  52.714  48.640  1.00  0.00     0.218 C 
HETATM   31  C   UNL     1      14.715  53.815  48.855  1.00  0.00     0.117 C 
HETATM   32  O   UNL     1      15.420  51.705  48.013  1.00  0.00    -0.274 OA
HETATM   33  H   UNL     1      17.000  53.856  49.760  1.00  0.00     0.169 HD
ENDBRANCH  26  29
ENDBRANCH  22  23
ENDBRANCH   2  21
TORSDOF 8
ENDMDL
