MODEL 1
REMARK VINA RESULT:      -9.5      0.000      0.000
REMARK  6 active torsions:
REMARK  status: ('A' for Active; 'I' for Inactive)
REMARK    1  A    between atoms: C_3  and  C_4 
REMARK    2  A    between atoms: C_4  and  N_5 
REMARK    3  A    between atoms: C_4  and  C_9 
REMARK       I    between atoms: N_5  and  C_6 
REMARK       I    between atoms: C_6  and  N_7 
REMARK    4  A    between atoms: C_9  and  C_10 
REMARK       I    between atoms: C_10  and  N_11 
REMARK    5  A    between atoms: N_11  and  C_12 
REMARK    6  A    between atoms: C_14  and  C_15 
ROOT
HETATM    1  C   UNL     1      25.116  46.605  52.029  1.00  0.00     0.133 C 
ENDROOT
BRANCH   1   2
HETATM    2  C   UNL     1      25.669  46.547  50.601  1.00  0.00     0.128 C 
BRANCH   2   3
HETATM    3  C   UNL     1      25.227  47.774  49.801  1.00  0.00    -0.029 A 
HETATM    4  C   UNL     1      26.170  48.615  49.161  1.00  0.00    -0.054 A 
HETATM    5  C   UNL     1      27.653  48.348  49.213  1.00  0.00     0.049 C 
HETATM    6  C   UNL     1      25.723  49.742  48.450  1.00  0.00     0.007 A 
HETATM    7  C   UNL     1      24.366  50.052  48.375  1.00  0.00     0.001 A 
HETATM    8  C   UNL     1      23.438  49.243  49.019  1.00  0.00     0.001 A 
HETATM    9  C   UNL     1      23.864  48.122  49.730  1.00  0.00     0.010 A 
ENDBRANCH   2   3
BRANCH   2  10
HETATM   10  N   UNL     1      25.423  45.299  49.871  1.00  0.00    -0.334 N 
HETATM   11  C   UNL     1      26.341  44.356  49.540  1.00  0.00     0.314 C 
HETATM   12  N   UNL     1      25.787  43.300  48.893  1.00  0.00    -0.352 N 
HETATM   13  O   UNL     1      27.541  44.400  49.764  1.00  0.00    -0.248 OA
HETATM   14  H   UNL     1      24.857  43.016  49.167  1.00  0.00     0.160 HD
HETATM   15  H   UNL     1      26.433  42.539  48.726  1.00  0.00     0.160 HD
HETATM   16  H   UNL     1      24.501  45.189  49.478  1.00  0.00     0.165 HD
ENDBRANCH   2  10
ENDBRANCH   1   2
BRANCH   1  17
HETATM   17  C   UNL     1      25.799  45.571  52.900  1.00  0.00     0.224 C 
HETATM   18  N   UNL     1      27.178  45.653  52.856  1.00  0.00    -0.327 N 
HETATM   19  H   UNL     1      27.565  46.435  52.336  1.00  0.00     0.169 HD
HETATM   20  O   UNL     1      25.136  44.737  53.510  1.00  0.00    -0.273 OA
BRANCH  18  21
HETATM   21  C   UNL     1      28.112  44.811  53.492  1.00  0.00     0.035 A 
HETATM   22  C   UNL     1      28.740  45.113  54.705  1.00  0.00     0.042 A 
HETATM   23  C   UNL     1      29.665  44.228  55.289  1.00  0.00    -0.021 A 
HETATM   24  C   UNL     1      29.935  43.016  54.641  1.00  0.00     0.012 A 
HETATM   25  C   UNL     1      29.316  42.706  53.430  1.00  0.00     0.003 A 
HETATM   26  C   UNL     1      28.417  43.603  52.854  1.00  0.00     0.029 A 
BRANCH  23  27
HETATM   27  C   UNL     1      30.321  44.582  56.542  1.00  0.00     0.010 A 
HETATM   28  C   UNL     1      31.343  43.925  57.271  1.00  0.00     0.152 A 
HETATM   29  N   UNL     1      31.670  44.559  58.401  1.00  0.00    -0.187 NA
HETATM   30  N   UNL     1      30.853  45.622  58.407  1.00  0.00    -0.289 N 
HETATM   31  H   UNL     1      30.909  46.266  59.189  1.00  0.00     0.188 HD
HETATM   32  C   UNL     1      30.027  45.682  57.321  1.00  0.00     0.123 A 
ENDBRANCH  23  27
ENDBRANCH  18  21
ENDBRANCH   1  17
TORSDOF 6
ENDMDL
MODEL 2
REMARK VINA RESULT:      -9.0      4.116      8.492
REMARK  6 active torsions:
REMARK  status: ('A' for Active; 'I' for Inactive)
REMARK    1  A    between atoms: C_3  and  C_4 
REMARK    2  A    between atoms: C_4  and  N_5 
REMARK    3  A    between atoms: C_4  and  C_9 
REMARK       I    between atoms: N_5  and  C_6 
REMARK       I    between atoms: C_6  and  N_7 
REMARK    4  A    between atoms: C_9  and  C_10 
REMARK       I    between atoms: C_10  and  N_11 
REMARK    5  A    between atoms: N_11  and  C_12 
REMARK    6  A    between atoms: C_14  and  C_15 
ROOT
HETATM    1  C   UNL     1      30.064  42.704  53.380  1.00  0.00     0.133 C 
ENDROOT
BRANCH   1   2
HETATM    2  C   UNL     1      29.306  43.765  54.184  1.00  0.00     0.128 C 
BRANCH   2   3
HETATM    3  C   UNL     1      30.021  44.054  55.505  1.00  0.00    -0.029 A 
HETATM    4  C   UNL     1      29.838  45.281  56.190  1.00  0.00    -0.054 A 
HETATM    5  C   UNL     1      28.922  46.361  55.675  1.00  0.00     0.049 C 
HETATM    6  C   UNL     1      30.527  45.512  57.393  1.00  0.00     0.007 A 
HETATM    7  C   UNL     1      31.399  44.558  57.916  1.00  0.00     0.001 A 
HETATM    8  C   UNL     1      31.600  43.363  57.238  1.00  0.00     0.001 A 
HETATM    9  C   UNL     1      30.925  43.117  56.042  1.00  0.00     0.010 A 
ENDBRANCH   2   3
BRANCH   2  10
HETATM   10  N   UNL     1      27.874  43.518  54.379  1.00  0.00    -0.334 N 
HETATM   11  C   UNL     1      26.848  44.114  53.720  1.00  0.00     0.314 C 
HETATM   12  N   UNL     1      25.638  43.639  54.109  1.00  0.00    -0.352 N 
HETATM   13  O   UNL     1      26.940  44.987  52.871  1.00  0.00    -0.248 OA
HETATM   14  H   UNL     1      25.573  42.661  54.351  1.00  0.00     0.160 HD
HETATM   15  H   UNL     1      24.865  43.995  53.561  1.00  0.00     0.160 HD
HETATM   16  H   UNL     1      27.628  42.930  55.160  1.00  0.00     0.165 HD
ENDBRANCH   2  10
ENDBRANCH   1   2
BRANCH   1  17
HETATM   17  C   UNL     1      29.096  41.694  52.799  1.00  0.00     0.224 C 
HETATM   18  N   UNL     1      28.815  41.919  51.465  1.00  0.00    -0.327 N 
HETATM   19  H   UNL     1      29.346  42.656  51.012  1.00  0.00     0.169 HD
HETATM   20  O   UNL     1      28.603  40.825  53.513  1.00  0.00    -0.273 OA
BRANCH  18  21
HETATM   21  C   UNL     1      27.915  41.212  50.642  1.00  0.00     0.035 A 
HETATM   22  C   UNL     1      26.661  41.697  50.257  1.00  0.00     0.042 A 
HETATM   23  C   UNL     1      25.807  40.942  49.431  1.00  0.00    -0.021 A 
HETATM   24  C   UNL     1      26.246  39.691  48.980  1.00  0.00     0.012 A 
HETATM   25  C   UNL     1      27.493  39.197  49.360  1.00  0.00     0.003 A 
HETATM   26  C   UNL     1      28.319  39.950  50.195  1.00  0.00     0.029 A 
BRANCH  23  27
HETATM   27  C   UNL     1      24.496  41.465  49.066  1.00  0.00     0.010 A 
HETATM   28  C   UNL     1      23.563  41.029  48.092  1.00  0.00     0.152 A 
HETATM   29  N   UNL     1      22.467  41.791  48.042  1.00  0.00    -0.187 NA
HETATM   30  N   UNL     1      22.693  42.724  48.977  1.00  0.00    -0.289 N 
HETATM   31  H   UNL     1      21.989  43.439  49.124  1.00  0.00     0.188 HD
HETATM   32  C   UNL     1      23.890  42.576  49.617  1.00  0.00     0.123 A 
ENDBRANCH  23  27
ENDBRANCH  18  21
ENDBRANCH   1  17
TORSDOF 6
ENDMDL
MODEL 3
REMARK VINA RESULT:      -8.9      4.467      8.804
REMARK  6 active torsions:
REMARK  status: ('A' for Active; 'I' for Inactive)
REMARK    1  A    between atoms: C_3  and  C_4 
REMARK    2  A    between atoms: C_4  and  N_5 
REMARK    3  A    between atoms: C_4  and  C_9 
REMARK       I    between atoms: N_5  and  C_6 
REMARK       I    between atoms: C_6  and  N_7 
REMARK    4  A    between atoms: C_9  and  C_10 
REMARK       I    between atoms: C_10  and  N_11 
REMARK    5  A    between atoms: N_11  and  C_12 
REMARK    6  A    between atoms: C_14  and  C_15 
ROOT
HETATM    1  C   UNL     1      30.096  42.714  53.355  1.00  0.00     0.133 C 
ENDROOT
BRANCH   1   2
HETATM    2  C   UNL     1      29.322  43.729  54.204  1.00  0.00     0.128 C 
BRANCH   2   3
HETATM    3  C   UNL     1      30.074  44.031  55.501  1.00  0.00    -0.029 A 
HETATM    4  C   UNL     1      29.894  45.256  56.190  1.00  0.00    -0.054 A 
HETATM    5  C   UNL     1      28.947  46.322  55.701  1.00  0.00     0.049 C 
HETATM    6  C   UNL     1      30.617  45.500  57.370  1.00  0.00     0.007 A 
HETATM    7  C   UNL     1      31.518  44.561  57.867  1.00  0.00     0.001 A 
HETATM    8  C   UNL     1      31.716  43.367  57.185  1.00  0.00     0.001 A 
HETATM    9  C   UNL     1      31.008  43.108  56.012  1.00  0.00     0.010 A 
ENDBRANCH   2   3
BRANCH   2  10
HETATM   10  N   UNL     1      27.911  43.414  54.449  1.00  0.00    -0.334 N 
HETATM   11  C   UNL     1      26.836  43.970  53.836  1.00  0.00     0.314 C 
HETATM   12  N   UNL     1      25.664  43.436  54.264  1.00  0.00    -0.352 N 
HETATM   13  O   UNL     1      26.856  44.856  52.996  1.00  0.00    -0.248 OA
HETATM   14  H   UNL     1      25.652  42.453  54.495  1.00  0.00     0.160 HD
HETATM   15  H   UNL     1      24.856  43.763  53.750  1.00  0.00     0.160 HD
HETATM   16  H   UNL     1      27.721  42.806  55.230  1.00  0.00     0.165 HD
ENDBRANCH   2  10
ENDBRANCH   1   2
BRANCH   1  17
HETATM   17  C   UNL     1      29.143  41.708  52.742  1.00  0.00     0.224 C 
HETATM   18  N   UNL     1      28.780  42.027  51.447  1.00  0.00    -0.327 N 
HETATM   19  H   UNL     1      29.253  42.823  51.031  1.00  0.00     0.169 HD
HETATM   20  O   UNL     1      28.730  40.760  53.404  1.00  0.00    -0.273 OA
BRANCH  18  21
HETATM   21  C   UNL     1      27.869  41.345  50.615  1.00  0.00     0.035 A 
HETATM   22  C   UNL     1      28.235  40.346  49.706  1.00  0.00     0.042 A 
HETATM   23  C   UNL     1      27.276  39.702  48.903  1.00  0.00    -0.021 A 
HETATM   24  C   UNL     1      25.931  40.067  49.043  1.00  0.00     0.012 A 
HETATM   25  C   UNL     1      25.555  41.063  49.944  1.00  0.00     0.003 A 
HETATM   26  C   UNL     1      26.521  41.705  50.718  1.00  0.00     0.029 A 
BRANCH  23  27
HETATM   27  C   UNL     1      27.692  38.682  47.949  1.00  0.00     0.010 A 
HETATM   28  C   UNL     1      27.151  38.313  46.691  1.00  0.00     0.152 A 
HETATM   29  N   UNL     1      27.807  37.302  46.117  1.00  0.00    -0.187 NA
HETATM   30  N   UNL     1      28.768  37.010  47.006  1.00  0.00    -0.289 N 
HETATM   31  H   UNL     1      29.406  36.251  46.792  1.00  0.00     0.188 HD
HETATM   32  C   UNL     1      28.742  37.803  48.117  1.00  0.00     0.123 A 
ENDBRANCH  23  27
ENDBRANCH  18  21
ENDBRANCH   1  17
TORSDOF 6
ENDMDL
MODEL 4
REMARK VINA RESULT:      -8.9      5.143      8.411
REMARK  6 active torsions:
REMARK  status: ('A' for Active; 'I' for Inactive)
REMARK    1  A    between atoms: C_3  and  C_4 
REMARK    2  A    between atoms: C_4  and  N_5 
REMARK    3  A    between atoms: C_4  and  C_9 
REMARK       I    between atoms: N_5  and  C_6 
REMARK       I    between atoms: C_6  and  N_7 
REMARK    4  A    between atoms: C_9  and  C_10 
REMARK       I    between atoms: C_10  and  N_11 
REMARK    5  A    between atoms: N_11  and  C_12 
REMARK    6  A    between atoms: C_14  and  C_15 
ROOT
HETATM    1  C   UNL     1      20.545  51.392  49.024  1.00  0.00     0.133 C 
ENDROOT
BRANCH   1   2
HETATM    2  C   UNL     1      19.344  50.472  49.269  1.00  0.00     0.128 C 
BRANCH   2   3
HETATM    3  C   UNL     1      18.035  51.198  48.950  1.00  0.00    -0.029 A 
HETATM    4  C   UNL     1      17.378  51.021  47.708  1.00  0.00    -0.054 A 
HETATM    5  C   UNL     1      17.911  50.103  46.638  1.00  0.00     0.049 C 
HETATM    6  C   UNL     1      16.186  51.721  47.449  1.00  0.00     0.007 A 
HETATM    7  C   UNL     1      15.647  52.595  48.391  1.00  0.00     0.001 A 
HETATM    8  C   UNL     1      16.299  52.790  49.603  1.00  0.00     0.001 A 
HETATM    9  C   UNL     1      17.483  52.105  49.876  1.00  0.00     0.010 A 
ENDBRANCH   2   3
BRANCH   2  10
HETATM   10  N   UNL     1      19.299  49.813  50.578  1.00  0.00    -0.334 N 
HETATM   11  C   UNL     1      18.642  48.668  50.890  1.00  0.00     0.314 C 
HETATM   12  N   UNL     1      18.828  48.301  52.184  1.00  0.00    -0.352 N 
HETATM   13  O   UNL     1      17.943  48.004  50.140  1.00  0.00    -0.248 OA
HETATM   14  H   UNL     1      19.729  48.488  52.600  1.00  0.00     0.160 HD
HETATM   15  H   UNL     1      18.431  47.399  52.412  1.00  0.00     0.160 HD
HETATM   16  H   UNL     1      19.705  50.325  51.347  1.00  0.00     0.165 HD
ENDBRANCH   2  10
ENDBRANCH   1   2
BRANCH   1  17
HETATM   17  C   UNL     1      21.787  50.817  49.673  1.00  0.00     0.224 C 
HETATM   18  N   UNL     1      22.512  50.002  48.825  1.00  0.00    -0.327 N 
HETATM   19  H   UNL     1      22.193  49.958  47.862  1.00  0.00     0.169 HD
HETATM   20  O   UNL     1      22.033  51.045  50.854  1.00  0.00    -0.273 OA
BRANCH  18  21
HETATM   21  C   UNL     1      23.676  49.265  49.125  1.00  0.00     0.035 A 
HETATM   22  C   UNL     1      23.682  48.078  49.864  1.00  0.00     0.042 A 
HETATM   23  C   UNL     1      24.879  47.387  50.129  1.00  0.00    -0.021 A 
HETATM   24  C   UNL     1      26.077  47.902  49.616  1.00  0.00     0.012 A 
HETATM   25  C   UNL     1      26.083  49.085  48.880  1.00  0.00     0.003 A 
HETATM   26  C   UNL     1      24.890  49.768  48.644  1.00  0.00     0.029 A 
BRANCH  23  27
HETATM   27  C   UNL     1      24.855  46.165  50.923  1.00  0.00     0.010 A 
HETATM   28  C   UNL     1      24.246  44.909  50.675  1.00  0.00     0.152 A 
HETATM   29  N   UNL     1      24.434  44.033  51.665  1.00  0.00    -0.187 NA
HETATM   30  N   UNL     1      25.158  44.723  52.558  1.00  0.00    -0.289 N 
HETATM   31  H   UNL     1      25.425  44.260  53.420  1.00  0.00     0.188 HD
HETATM   32  C   UNL     1      25.435  46.000  52.164  1.00  0.00     0.123 A 
ENDBRANCH  23  27
ENDBRANCH  18  21
ENDBRANCH   1  17
TORSDOF 6
ENDMDL
MODEL 5
REMARK VINA RESULT:      -8.7      2.370      8.520
REMARK  6 active torsions:
REMARK  status: ('A' for Active; 'I' for Inactive)
REMARK    1  A    between atoms: C_3  and  C_4 
REMARK    2  A    between atoms: C_4  and  N_5 
REMARK    3  A    between atoms: C_4  and  C_9 
REMARK       I    between atoms: N_5  and  C_6 
REMARK       I    between atoms: C_6  and  N_7 
REMARK    4  A    between atoms: C_9  and  C_10 
REMARK       I    between atoms: C_10  and  N_11 
REMARK    5  A    between atoms: N_11  and  C_12 
REMARK    6  A    between atoms: C_14  and  C_15 
ROOT
HETATM    1  C   UNL     1      27.473  44.386  54.787  1.00  0.00     0.133 C 
ENDROOT
BRANCH   1   2
HETATM    2  C   UNL     1      28.341  45.604  55.119  1.00  0.00     0.128 C 
BRANCH   2   3
HETATM    3  C   UNL     1      29.434  45.230  56.122  1.00  0.00    -0.029 A 
HETATM    4  C   UNL     1      30.378  44.211  55.838  1.00  0.00    -0.054 A 
HETATM    5  C   UNL     1      30.374  43.451  54.537  1.00  0.00     0.049 C 
HETATM    6  C   UNL     1      31.356  43.888  56.794  1.00  0.00     0.007 A 
HETATM    7  C   UNL     1      31.405  44.544  58.022  1.00  0.00     0.001 A 
HETATM    8  C   UNL     1      30.469  45.528  58.316  1.00  0.00     0.001 A 
HETATM    9  C   UNL     1      29.491  45.862  57.379  1.00  0.00     0.010 A 
ENDBRANCH   2   3
BRANCH   2  10
HETATM   10  N   UNL     1      27.617  46.814  55.524  1.00  0.00    -0.334 N 
HETATM   11  C   UNL     1      26.881  47.627  54.726  1.00  0.00     0.314 C 
HETATM   12  N   UNL     1      26.308  48.647  55.414  1.00  0.00    -0.352 N 
HETATM   13  O   UNL     1      26.722  47.511  53.521  1.00  0.00    -0.248 OA
HETATM   14  H   UNL     1      25.999  48.462  56.357  1.00  0.00     0.160 HD
HETATM   15  H   UNL     1      25.674  49.207  54.859  1.00  0.00     0.160 HD
HETATM   16  H   UNL     1      27.778  47.132  56.468  1.00  0.00     0.165 HD
ENDBRANCH   2  10
ENDBRANCH   1   2
BRANCH   1  17
HETATM   17  C   UNL     1      27.095  44.394  53.320  1.00  0.00     0.224 C 
HETATM   18  N   UNL     1      25.744  44.601  53.111  1.00  0.00    -0.327 N 
HETATM   19  H   UNL     1      25.189  44.812  53.934  1.00  0.00     0.169 HD
HETATM   20  O   UNL     1      27.942  44.175  52.460  1.00  0.00    -0.273 OA
BRANCH  18  21
HETATM   21  C   UNL     1      25.053  44.604  51.883  1.00  0.00     0.035 A 
HETATM   22  C   UNL     1      24.719  45.764  51.176  1.00  0.00     0.042 A 
HETATM   23  C   UNL     1      24.028  45.701  49.952  1.00  0.00    -0.021 A 
HETATM   24  C   UNL     1      23.694  44.442  49.435  1.00  0.00     0.012 A 
HETATM   25  C   UNL     1      24.020  43.280  50.132  1.00  0.00     0.003 A 
HETATM   26  C   UNL     1      24.688  43.361  51.354  1.00  0.00     0.029 A 
BRANCH  23  27
HETATM   27  C   UNL     1      23.672  46.929  49.251  1.00  0.00     0.010 A 
HETATM   28  C   UNL     1      22.666  47.188  48.287  1.00  0.00     0.152 A 
HETATM   29  N   UNL     1      22.668  48.453  47.858  1.00  0.00    -0.187 NA
HETATM   30  N   UNL     1      23.680  49.011  48.538  1.00  0.00    -0.289 N 
HETATM   31  H   UNL     1      23.888  49.990  48.373  1.00  0.00     0.188 HD
HETATM   32  C   UNL     1      24.312  48.144  49.382  1.00  0.00     0.123 A 
ENDBRANCH  23  27
ENDBRANCH  18  21
ENDBRANCH   1  17
TORSDOF 6
ENDMDL
MODEL 6
REMARK VINA RESULT:      -8.6      2.861      8.242
REMARK  6 active torsions:
REMARK  status: ('A' for Active; 'I' for Inactive)
REMARK    1  A    between atoms: C_3  and  C_4 
REMARK    2  A    between atoms: C_4  and  N_5 
REMARK    3  A    between atoms: C_4  and  C_9 
REMARK       I    between atoms: N_5  and  C_6 
REMARK       I    between atoms: C_6  and  N_7 
REMARK    4  A    between atoms: C_9  and  C_10 
REMARK       I    between atoms: C_10  and  N_11 
REMARK    5  A    between atoms: N_11  and  C_12 
REMARK    6  A    between atoms: C_14  and  C_15 
ROOT
HETATM    1  C   UNL     1      27.538  44.458  50.764  1.00  0.00     0.133 C 
ENDROOT
BRANCH   1   2
HETATM    2  C   UNL     1      26.813  43.993  52.031  1.00  0.00     0.128 C 
BRANCH   2   3
HETATM    3  C   UNL     1      27.608  44.378  53.280  1.00  0.00    -0.029 A 
HETATM    4  C   UNL     1      27.259  45.511  54.055  1.00  0.00    -0.054 A 
HETATM    5  C   UNL     1      26.084  46.390  53.712  1.00  0.00     0.049 C 
HETATM    6  C   UNL     1      28.027  45.839  55.186  1.00  0.00     0.007 A 
HETATM    7  C   UNL     1      29.134  45.074  55.549  1.00  0.00     0.001 A 
HETATM    8  C   UNL     1      29.494  43.975  54.780  1.00  0.00     0.001 A 
HETATM    9  C   UNL     1      28.745  43.635  53.654  1.00  0.00     0.010 A 
ENDBRANCH   2   3
BRANCH   2  10
HETATM   10  N   UNL     1      26.407  42.584  52.053  1.00  0.00    -0.334 N 
HETATM   11  C   UNL     1      27.029  41.547  51.437  1.00  0.00     0.314 C 
HETATM   12  N   UNL     1      26.420  40.359  51.682  1.00  0.00    -0.352 N 
HETATM   13  O   UNL     1      28.019  41.614  50.726  1.00  0.00    -0.248 OA
HETATM   14  H   UNL     1      26.008  40.222  52.593  1.00  0.00     0.160 HD
HETATM   15  H   UNL     1      26.923  39.561  51.316  1.00  0.00     0.160 HD
HETATM   16  H   UNL     1      25.512  42.387  52.475  1.00  0.00     0.165 HD
ENDBRANCH   2  10
ENDBRANCH   1   2
BRANCH   1  17
HETATM   17  C   UNL     1      26.627  45.335  49.929  1.00  0.00     0.224 C 
HETATM   18  N   UNL     1      26.841  46.685  50.133  1.00  0.00    -0.327 N 
HETATM   19  H   UNL     1      27.625  46.931  50.730  1.00  0.00     0.169 HD
HETATM   20  O   UNL     1      25.769  44.832  49.210  1.00  0.00    -0.273 OA
BRANCH  18  21
HETATM   21  C   UNL     1      26.131  47.765  49.570  1.00  0.00     0.035 A 
HETATM   22  C   UNL     1      24.745  47.926  49.667  1.00  0.00     0.042 A 
HETATM   23  C   UNL     1      24.094  49.028  49.082  1.00  0.00    -0.021 A 
HETATM   24  C   UNL     1      24.868  49.984  48.411  1.00  0.00     0.012 A 
HETATM   25  C   UNL     1      26.250  49.832  48.306  1.00  0.00     0.003 A 
HETATM   26  C   UNL     1      26.876  48.723  48.874  1.00  0.00     0.029 A 
BRANCH  23  27
HETATM   27  C   UNL     1      22.645  49.156  49.180  1.00  0.00     0.010 A 
HETATM   28  C   UNL     1      21.611  48.233  48.886  1.00  0.00     0.152 A 
HETATM   29  N   UNL     1      20.390  48.735  49.087  1.00  0.00    -0.187 NA
HETATM   30  N   UNL     1      20.633  49.986  49.504  1.00  0.00    -0.289 N 
HETATM   31  H   UNL     1      19.842  50.583  49.719  1.00  0.00     0.188 HD
HETATM   32  C   UNL     1      21.962  50.288  49.576  1.00  0.00     0.123 A 
ENDBRANCH  23  27
ENDBRANCH  18  21
ENDBRANCH   1  17
TORSDOF 6
ENDMDL
MODEL 7
REMARK VINA RESULT:      -8.6      1.471      2.061
REMARK  6 active torsions:
REMARK  status: ('A' for Active; 'I' for Inactive)
REMARK    1  A    between atoms: C_3  and  C_4 
REMARK    2  A    between atoms: C_4  and  N_5 
REMARK    3  A    between atoms: C_4  and  C_9 
REMARK       I    between atoms: N_5  and  C_6 
REMARK       I    between atoms: C_6  and  N_7 
REMARK    4  A    between atoms: C_9  and  C_10 
REMARK       I    between atoms: C_10  and  N_11 
REMARK    5  A    between atoms: N_11  and  C_12 
REMARK    6  A    between atoms: C_14  and  C_15 
ROOT
HETATM    1  C   UNL     1      25.041  46.008  51.913  1.00  0.00     0.133 C 
ENDROOT
BRANCH   1   2
HETATM    2  C   UNL     1      24.912  45.994  50.386  1.00  0.00     0.128 C 
BRANCH   2   3
HETATM    3  C   UNL     1      25.547  47.247  49.779  1.00  0.00    -0.029 A 
HETATM    4  C   UNL     1      24.755  48.333  49.334  1.00  0.00    -0.054 A 
HETATM    5  C   UNL     1      23.251  48.332  49.444  1.00  0.00     0.049 C 
HETATM    6  C   UNL     1      25.378  49.459  48.767  1.00  0.00     0.007 A 
HETATM    7  C   UNL     1      26.763  49.517  48.624  1.00  0.00     0.001 A 
HETATM    8  C   UNL     1      27.544  48.445  49.038  1.00  0.00     0.001 A 
HETATM    9  C   UNL     1      26.942  47.320  49.602  1.00  0.00     0.010 A 
ENDBRANCH   2   3
BRANCH   2  10
HETATM   10  N   UNL     1      23.564  45.754  49.860  1.00  0.00    -0.334 N 
HETATM   11  C   UNL     1      22.941  44.555  49.735  1.00  0.00     0.314 C 
HETATM   12  N   UNL     1      21.681  44.676  49.244  1.00  0.00    -0.352 N 
HETATM   13  O   UNL     1      23.411  43.461  50.006  1.00  0.00    -0.248 OA
HETATM   14  H   UNL     1      21.147  45.488  49.516  1.00  0.00     0.160 HD
HETATM   15  H   UNL     1      21.163  43.807  49.236  1.00  0.00     0.160 HD
HETATM   16  H   UNL     1      23.101  46.549  49.447  1.00  0.00     0.165 HD
ENDBRANCH   2  10
ENDBRANCH   1   2
BRANCH   1  17
HETATM   17  C   UNL     1      25.987  44.917  52.370  1.00  0.00     0.224 C 
HETATM   18  N   UNL     1      27.094  45.406  53.037  1.00  0.00    -0.327 N 
HETATM   19  H   UNL     1      27.102  46.404  53.224  1.00  0.00     0.169 HD
HETATM   20  O   UNL     1      25.762  43.743  52.091  1.00  0.00    -0.273 OA
BRANCH  18  21
HETATM   21  C   UNL     1      28.192  44.676  53.536  1.00  0.00     0.035 A 
HETATM   22  C   UNL     1      28.800  44.923  54.771  1.00  0.00     0.042 A 
HETATM   23  C   UNL     1      29.894  44.157  55.214  1.00  0.00    -0.021 A 
HETATM   24  C   UNL     1      30.358  43.117  54.397  1.00  0.00     0.012 A 
HETATM   25  C   UNL     1      29.760  42.863  53.163  1.00  0.00     0.003 A 
HETATM   26  C   UNL     1      28.689  43.645  52.731  1.00  0.00     0.029 A 
BRANCH  23  27
HETATM   27  C   UNL     1      30.522  44.454  56.495  1.00  0.00     0.010 A 
HETATM   28  C   UNL     1      31.519  43.758  57.223  1.00  0.00     0.152 A 
HETATM   29  N   UNL     1      31.823  44.344  58.384  1.00  0.00    -0.187 NA
HETATM   30  N   UNL     1      31.016  45.415  58.413  1.00  0.00    -0.289 N 
HETATM   31  H   UNL     1      31.059  46.027  59.220  1.00  0.00     0.188 HD
HETATM   32  C   UNL     1      30.219  45.527  57.310  1.00  0.00     0.123 A 
ENDBRANCH  23  27
ENDBRANCH  18  21
ENDBRANCH   1  17
TORSDOF 6
ENDMDL
MODEL 8
REMARK VINA RESULT:      -8.5      4.578      7.486
REMARK  6 active torsions:
REMARK  status: ('A' for Active; 'I' for Inactive)
REMARK    1  A    between atoms: C_3  and  C_4 
REMARK    2  A    between atoms: C_4  and  N_5 
REMARK    3  A    between atoms: C_4  and  C_9 
REMARK       I    between atoms: N_5  and  C_6 
REMARK       I    between atoms: C_6  and  N_7 
REMARK    4  A    between atoms: C_9  and  C_10 
REMARK       I    between atoms: C_10  and  N_11 
REMARK    5  A    between atoms: N_11  and  C_12 
REMARK    6  A    between atoms: C_14  and  C_15 
ROOT
HETATM    1  C   UNL     1      21.905  51.321  48.041  1.00  0.00     0.133 C 
ENDROOT
BRANCH   1   2
HETATM    2  C   UNL     1      20.724  50.353  47.910  1.00  0.00     0.128 C 
BRANCH   2   3
HETATM    3  C   UNL     1      19.407  51.063  48.230  1.00  0.00    -0.029 A 
HETATM    4  C   UNL     1      18.387  51.199  47.255  1.00  0.00    -0.054 A 
HETATM    5  C   UNL     1      18.527  50.643  45.861  1.00  0.00     0.049 C 
HETATM    6  C   UNL     1      17.199  51.873  47.586  1.00  0.00     0.007 A 
HETATM    7  C   UNL     1      17.014  52.421  48.854  1.00  0.00     0.001 A 
HETATM    8  C   UNL     1      18.019  52.311  49.806  1.00  0.00     0.001 A 
HETATM    9  C   UNL     1      19.205  51.647  49.495  1.00  0.00     0.010 A 
ENDBRANCH   2   3
BRANCH   2  10
HETATM   10  N   UNL     1      20.853  49.085  48.635  1.00  0.00    -0.334 N 
HETATM   11  C   UNL     1      21.475  47.960  48.202  1.00  0.00     0.314 C 
HETATM   12  N   UNL     1      21.449  46.966  49.126  1.00  0.00    -0.352 N 
HETATM   13  O   UNL     1      22.007  47.797  47.115  1.00  0.00    -0.248 OA
HETATM   14  H   UNL     1      21.514  47.228  50.099  1.00  0.00     0.160 HD
HETATM   15  H   UNL     1      21.993  46.153  48.866  1.00  0.00     0.160 HD
HETATM   16  H   UNL     1      20.328  49.009  49.493  1.00  0.00     0.165 HD
ENDBRANCH   2  10
ENDBRANCH   1   2
BRANCH   1  17
HETATM   17  C   UNL     1      22.990  50.711  48.905  1.00  0.00     0.224 C 
HETATM   18  N   UNL     1      24.052  50.218  48.171  1.00  0.00    -0.327 N 
HETATM   19  H   UNL     1      24.031  50.399  47.173  1.00  0.00     0.169 HD
HETATM   20  O   UNL     1      22.849  50.643  50.123  1.00  0.00    -0.273 OA
BRANCH  18  21
HETATM   21  C   UNL     1      25.189  49.537  48.652  1.00  0.00     0.035 A 
HETATM   22  C   UNL     1      25.138  48.339  49.371  1.00  0.00     0.042 A 
HETATM   23  C   UNL     1      26.311  47.707  49.823  1.00  0.00    -0.021 A 
HETATM   24  C   UNL     1      27.548  48.293  49.520  1.00  0.00     0.012 A 
HETATM   25  C   UNL     1      27.610  49.488  48.805  1.00  0.00     0.003 A 
HETATM   26  C   UNL     1      26.436  50.112  48.382  1.00  0.00     0.029 A 
BRANCH  23  27
HETATM   27  C   UNL     1      26.224  46.471  50.592  1.00  0.00     0.010 A 
HETATM   28  C   UNL     1      26.702  45.168  50.308  1.00  0.00     0.152 A 
HETATM   29  N   UNL     1      26.404  44.283  51.263  1.00  0.00    -0.187 NA
HETATM   30  N   UNL     1      25.726  45.011  52.161  1.00  0.00    -0.289 N 
HETATM   31  H   UNL     1      25.379  44.547  52.993  1.00  0.00     0.188 HD
HETATM   32  C   UNL     1      25.590  46.323  51.808  1.00  0.00     0.123 A 
ENDBRANCH  23  27
ENDBRANCH  18  21
ENDBRANCH   1  17
TORSDOF 6
ENDMDL
MODEL 9
REMARK VINA RESULT:      -8.3      4.520      7.737
REMARK  6 active torsions:
REMARK  status: ('A' for Active; 'I' for Inactive)
REMARK    1  A    between atoms: C_3  and  C_4 
REMARK    2  A    between atoms: C_4  and  N_5 
REMARK    3  A    between atoms: C_4  and  C_9 
REMARK       I    between atoms: N_5  and  C_6 
REMARK       I    between atoms: C_6  and  N_7 
REMARK    4  A    between atoms: C_9  and  C_10 
REMARK       I    between atoms: C_10  and  N_11 
REMARK    5  A    between atoms: N_11  and  C_12 
REMARK    6  A    between atoms: C_14  and  C_15 
ROOT
HETATM    1  C   UNL     1      21.001  50.662  48.866  1.00  0.00     0.133 C 
ENDROOT
BRANCH   1   2
HETATM    2  C   UNL     1      20.350  49.296  48.626  1.00  0.00     0.128 C 
BRANCH   2   3
HETATM    3  C   UNL     1      19.288  49.391  47.528  1.00  0.00    -0.029 A 
HETATM    4  C   UNL     1      19.017  48.298  46.668  1.00  0.00    -0.054 A 
HETATM    5  C   UNL     1      19.740  46.981  46.788  1.00  0.00     0.049 C 
HETATM    6  C   UNL     1      18.045  48.433  45.662  1.00  0.00     0.007 A 
HETATM    7  C   UNL     1      17.351  49.630  45.490  1.00  0.00     0.001 A 
HETATM    8  C   UNL     1      17.627  50.712  46.316  1.00  0.00     0.001 A 
HETATM    9  C   UNL     1      18.590  50.596  47.318  1.00  0.00     0.010 A 
ENDBRANCH   2   3
BRANCH   2  10
HETATM   10  N   UNL     1      19.845  48.610  49.819  1.00  0.00    -0.334 N 
HETATM   11  C   UNL     1      18.941  49.087  50.711  1.00  0.00     0.314 C 
HETATM   12  N   UNL     1      18.656  48.191  51.689  1.00  0.00    -0.352 N 
HETATM   13  O   UNL     1      18.416  50.190  50.693  1.00  0.00    -0.248 OA
HETATM   14  H   UNL     1      18.641  47.212  51.440  1.00  0.00     0.160 HD
HETATM   15  H   UNL     1      17.912  48.486  52.308  1.00  0.00     0.160 HD
HETATM   16  H   UNL     1      20.301  47.743  50.059  1.00  0.00     0.165 HD
ENDBRANCH   2  10
ENDBRANCH   1   2
BRANCH   1  17
HETATM   17  C   UNL     1      22.415  50.486  49.382  1.00  0.00     0.224 C 
HETATM   18  N   UNL     1      23.161  49.603  48.624  1.00  0.00    -0.327 N 
HETATM   19  H   UNL     1      22.722  49.255  47.778  1.00  0.00     0.169 HD
HETATM   20  O   UNL     1      22.777  51.055  50.407  1.00  0.00    -0.273 OA
BRANCH  18  21
HETATM   21  C   UNL     1      24.481  49.167  48.859  1.00  0.00     0.035 A 
HETATM   22  C   UNL     1      24.807  47.984  49.530  1.00  0.00     0.042 A 
HETATM   23  C   UNL     1      26.146  47.603  49.733  1.00  0.00    -0.021 A 
HETATM   24  C   UNL     1      27.161  48.428  49.228  1.00  0.00     0.012 A 
HETATM   25  C   UNL     1      26.847  49.611  48.559  1.00  0.00     0.003 A 
HETATM   26  C   UNL     1      25.514  49.983  48.385  1.00  0.00     0.029 A 
BRANCH  23  27
HETATM   27  C   UNL     1      26.454  46.376  50.456  1.00  0.00     0.010 A 
HETATM   28  C   UNL     1      27.027  45.158  50.014  1.00  0.00     0.152 A 
HETATM   29  N   UNL     1      27.132  44.247  50.985  1.00  0.00    -0.187 NA
HETATM   30  N   UNL     1      26.620  44.873  52.055  1.00  0.00    -0.289 N 
HETATM   31  H   UNL     1      26.583  44.369  52.934  1.00  0.00     0.188 HD
HETATM   32  C   UNL     1      26.200  46.145  51.793  1.00  0.00     0.123 A 
ENDBRANCH  23  27
ENDBRANCH  18  21
ENDBRANCH   1  17
TORSDOF 6
ENDMDL
MODEL 10
REMARK VINA RESULT:      -8.3      3.184      8.889
REMARK  6 active torsions:
REMARK  status: ('A' for Active; 'I' for Inactive)
REMARK    1  A    between atoms: C_3  and  C_4 
REMARK    2  A    between atoms: C_4  and  N_5 
REMARK    3  A    between atoms: C_4  and  C_9 
REMARK       I    between atoms: N_5  and  C_6 
REMARK       I    between atoms: C_6  and  N_7 
REMARK    4  A    between atoms: C_9  and  C_10 
REMARK       I    between atoms: C_10  and  N_11 
REMARK    5  A    between atoms: N_11  and  C_12 
REMARK    6  A    between atoms: C_14  and  C_15 
ROOT
HETATM    1  C   UNL     1      26.814  45.886  50.828  1.00  0.00     0.133 C 
ENDROOT
BRANCH   1   2
HETATM    2  C   UNL     1      26.398  44.732  51.747  1.00  0.00     0.128 C 
BRANCH   2   3
HETATM    3  C   UNL     1      27.576  44.282  52.613  1.00  0.00    -0.029 A 
HETATM    4  C   UNL     1      27.754  44.774  53.930  1.00  0.00    -0.054 A 
HETATM    5  C   UNL     1      26.794  45.750  54.561  1.00  0.00     0.049 C 
HETATM    6  C   UNL     1      28.860  44.347  54.686  1.00  0.00     0.007 A 
HETATM    7  C   UNL     1      29.791  43.456  54.155  1.00  0.00     0.001 A 
HETATM    8  C   UNL     1      29.635  42.987  52.857  1.00  0.00     0.001 A 
HETATM    9  C   UNL     1      28.544  43.401  52.092  1.00  0.00     0.010 A 
ENDBRANCH   2   3
BRANCH   2  10
HETATM   10  N   UNL     1      25.736  43.600  51.092  1.00  0.00    -0.334 N 
HETATM   11  C   UNL     1      24.409  43.469  50.840  1.00  0.00     0.314 C 
HETATM   12  N   UNL     1      24.118  42.315  50.188  1.00  0.00    -0.352 N 
HETATM   13  O   UNL     1      23.530  44.259  51.147  1.00  0.00    -0.248 OA
HETATM   14  H   UNL     1      24.789  41.973  49.515  1.00  0.00     0.160 HD
HETATM   15  H   UNL     1      23.150  42.242  49.900  1.00  0.00     0.160 HD
HETATM   16  H   UNL     1      26.311  42.790  50.916  1.00  0.00     0.165 HD
ENDBRANCH   2  10
ENDBRANCH   1   2
BRANCH   1  17
HETATM   17  C   UNL     1      25.757  46.971  50.838  1.00  0.00     0.224 C 
HETATM   18  N   UNL     1      25.332  47.323  49.571  1.00  0.00    -0.327 N 
HETATM   19  H   UNL     1      25.694  46.765  48.804  1.00  0.00     0.169 HD
HETATM   20  O   UNL     1      25.403  47.484  51.895  1.00  0.00    -0.273 OA
BRANCH  18  21
HETATM   21  C   UNL     1      24.413  48.333  49.219  1.00  0.00     0.035 A 
HETATM   22  C   UNL     1      23.034  48.248  49.441  1.00  0.00     0.042 A 
HETATM   23  C   UNL     1      22.168  49.292  49.068  1.00  0.00    -0.021 A 
HETATM   24  C   UNL     1      22.717  50.440  48.482  1.00  0.00     0.012 A 
HETATM   25  C   UNL     1      24.089  50.535  48.254  1.00  0.00     0.003 A 
HETATM   26  C   UNL     1      24.931  49.482  48.612  1.00  0.00     0.029 A 
BRANCH  23  27
HETATM   27  C   UNL     1      20.733  49.164  49.291  1.00  0.00     0.010 A 
HETATM   28  C   UNL     1      19.869  48.050  49.148  1.00  0.00     0.152 A 
HETATM   29  N   UNL     1      18.595  48.338  49.430  1.00  0.00    -0.187 NA
HETATM   30  N   UNL     1      18.634  49.640  49.749  1.00  0.00    -0.289 N 
HETATM   31  H   UNL     1      17.765  50.100  49.999  1.00  0.00     0.188 HD
HETATM   32  C   UNL     1      19.886  50.181  49.681  1.00  0.00     0.123 A 
ENDBRANCH  23  27
ENDBRANCH  18  21
ENDBRANCH   1  17
TORSDOF 6
ENDMDL
