MODEL 1
REMARK VINA RESULT:      -9.3      0.000      0.000
REMARK  7 active torsions:
REMARK  status: ('A' for Active; 'I' for Inactive)
REMARK    1  A    between atoms: N_2  and  C_4 
REMARK       I    between atoms: N_7  and  C_8 
REMARK    2  A    between atoms: C_8  and  C_9 
REMARK    3  A    between atoms: N_12  and  C_13 
REMARK    4  A    between atoms: C_20  and  C_21 
REMARK    5  A    between atoms: C_21  and  N_22 
REMARK    6  A    between atoms: N_22  and  C_25 
REMARK    7  A    between atoms: C_25  and  C_26 
ROOT
HETATM    1  C   UNL     1      25.370  46.412  51.352  1.00  0.00     0.719 A 
HETATM    2  N   UNL     1      26.169  45.277  51.316  1.00  0.00    -0.154 N 
HETATM    3  C   UNL     1      26.724  45.168  52.597  1.00  0.00     0.083 A 
HETATM    4  C   UNL     1      27.552  44.045  52.885  1.00  0.00     0.033 A 
HETATM    5  C   UNL     1      27.822  43.158  51.910  1.00  0.00     0.004 A 
HETATM    6  C   UNL     1      27.305  43.330  50.567  1.00  0.00     0.018 A 
HETATM    7  C   UNL     1      26.500  44.372  50.301  1.00  0.00     0.115 A 
HETATM    8  C   UNL     1      26.322  46.288  53.289  1.00  0.00     0.107 A 
HETATM    9  N   UNL     1      25.486  47.058  52.508  1.00  0.00    -0.064 NA
ENDROOT
BRANCH   1  10
HETATM   10  N   UNL     1      24.517  46.881  50.344  1.00  0.00    -0.147 N 
HETATM   11  C   UNL     1      23.759  46.068  49.522  1.00  0.00     0.233 A 
HETATM   12  N   UNL     1      23.025  46.743  48.667  1.00  0.00    -0.236 NA
HETATM   13  C   UNL     1      23.331  48.069  48.883  1.00  0.00     0.142 A 
HETATM   14  C   UNL     1      24.263  48.157  49.905  1.00  0.00     0.153 A 
BRANCH  13  15
HETATM   15  C   UNL     1      22.738  49.232  48.198  1.00  0.00     0.273 C 
HETATM   16  N   UNL     1      21.462  49.702  48.580  1.00  0.00    -0.347 N 
HETATM   17  C   UNL     1      20.402  48.811  49.043  1.00  0.00     0.128 C 
HETATM   18  C   UNL     1      21.031  50.951  47.958  1.00  0.00     0.128 C 
HETATM   19  C   UNL     1      19.397  49.548  49.919  1.00  0.00     0.053 C 
HETATM   20  C   UNL     1      18.834  50.804  49.239  1.00  0.00     0.190 C 
HETATM   21  C   UNL     1      20.010  51.693  48.814  1.00  0.00     0.053 C 
HETATM   22  O   UNL     1      23.375  49.804  47.312  1.00  0.00    -0.266 OA
BRANCH  20  23
HETATM   23  N   UNL     1      17.915  50.467  48.049  1.00  0.00    -0.074 N 
HETATM   24  C   UNL     1      17.360  51.704  47.370  1.00  0.00     0.269 C 
HETATM   25  H   UNL     1      18.461  49.969  47.335  1.00  0.00     0.279 HD
HETATM   26  C   UNL     1      16.760  49.557  48.414  1.00  0.00     0.269 C 
ENDBRANCH  20  23
ENDBRANCH  13  15
ENDBRANCH   1  10
BRANCH   8  27
HETATM   27  C   UNL     1      26.659  46.718  54.676  1.00  0.00     0.294 C 
BRANCH  27  28
HETATM   28  N   UNL     1      28.126  46.679  54.888  1.00  0.00    -0.064 N 
HETATM   29  H   UNL     1      28.527  45.993  54.234  1.00  0.00     0.278 HD
HETATM   30  H   UNL     1      28.545  47.567  54.583  1.00  0.00     0.278 HD
BRANCH  28  31
HETATM   31  C   UNL     1      28.575  46.383  56.269  1.00  0.00     0.297 C 
BRANCH  31  32
HETATM   32  C   UNL     1      29.602  45.315  56.301  1.00  0.00     0.078 A 
HETATM   33  O   UNL     1      30.349  45.216  57.442  1.00  0.00    -0.325 OA
HETATM   34  C   UNL     1      31.209  44.179  57.262  1.00  0.00     0.142 A 
HETATM   35  C   UNL     1      31.020  43.607  56.025  1.00  0.00     0.027 A 
HETATM   36  C   UNL     1      29.982  44.341  55.403  1.00  0.00     0.036 A 
ENDBRANCH  31  32
ENDBRANCH  28  31
ENDBRANCH  27  28
ENDBRANCH   8  27
TORSDOF 7
ENDMDL
MODEL 2
REMARK VINA RESULT:      -9.1      2.527     10.456
REMARK  7 active torsions:
REMARK  status: ('A' for Active; 'I' for Inactive)
REMARK    1  A    between atoms: N_2  and  C_4 
REMARK       I    between atoms: N_7  and  C_8 
REMARK    2  A    between atoms: C_8  and  C_9 
REMARK    3  A    between atoms: N_12  and  C_13 
REMARK    4  A    between atoms: C_20  and  C_21 
REMARK    5  A    between atoms: C_21  and  N_22 
REMARK    6  A    between atoms: N_22  and  C_25 
REMARK    7  A    between atoms: C_25  and  C_26 
ROOT
HETATM    1  C   UNL     1      22.752  46.903  48.801  1.00  0.00     0.719 A 
HETATM    2  N   UNL     1      23.187  48.209  48.615  1.00  0.00    -0.154 N 
HETATM    3  C   UNL     1      22.041  48.940  48.275  1.00  0.00     0.083 A 
HETATM    4  C   UNL     1      22.166  50.345  48.083  1.00  0.00     0.033 A 
HETATM    5  C   UNL     1      23.380  50.919  48.178  1.00  0.00     0.004 A 
HETATM    6  C   UNL     1      24.567  50.134  48.451  1.00  0.00     0.018 A 
HETATM    7  C   UNL     1      24.448  48.812  48.661  1.00  0.00     0.115 A 
HETATM    8  C   UNL     1      21.018  48.026  48.167  1.00  0.00     0.107 A 
HETATM    9  N   UNL     1      21.467  46.763  48.490  1.00  0.00    -0.064 NA
ENDROOT
BRANCH   1  10
HETATM   10  N   UNL     1      23.507  45.816  49.261  1.00  0.00    -0.147 N 
HETATM   11  C   UNL     1      22.982  44.576  49.573  1.00  0.00     0.233 A 
HETATM   12  N   UNL     1      23.893  43.715  49.966  1.00  0.00    -0.236 NA
HETATM   13  C   UNL     1      25.082  44.410  49.966  1.00  0.00     0.142 A 
HETATM   14  C   UNL     1      24.846  45.711  49.548  1.00  0.00     0.153 A 
BRANCH  13  15
HETATM   15  C   UNL     1      26.415  43.874  50.295  1.00  0.00     0.273 C 
HETATM   16  N   UNL     1      26.797  43.711  51.645  1.00  0.00    -0.347 N 
HETATM   17  C   UNL     1      26.358  44.619  52.702  1.00  0.00     0.128 C 
HETATM   18  C   UNL     1      28.066  43.025  51.871  1.00  0.00     0.128 C 
HETATM   19  C   UNL     1      26.387  43.942  54.067  1.00  0.00     0.053 C 
HETATM   20  C   UNL     1      27.752  43.315  54.382  1.00  0.00     0.190 C 
HETATM   21  C   UNL     1      28.120  42.358  53.241  1.00  0.00     0.053 C 
HETATM   22  O   UNL     1      27.179  43.544  49.387  1.00  0.00    -0.266 OA
BRANCH  20  23
HETATM   23  N   UNL     1      28.847  44.373  54.613  1.00  0.00    -0.074 N 
HETATM   24  C   UNL     1      30.151  43.770  55.099  1.00  0.00     0.269 C 
HETATM   25  H   UNL     1      29.061  44.835  53.721  1.00  0.00     0.279 HD
HETATM   26  C   UNL     1      28.436  45.472  55.573  1.00  0.00     0.269 C 
ENDBRANCH  20  23
ENDBRANCH  13  15
ENDBRANCH   1  10
BRANCH   8  27
HETATM   27  C   UNL     1      19.594  48.239  47.779  1.00  0.00     0.294 C 
BRANCH  27  28
HETATM   28  N   UNL     1      18.697  47.954  48.923  1.00  0.00    -0.064 N 
HETATM   29  H   UNL     1      17.724  48.017  48.592  1.00  0.00     0.278 HD
HETATM   30  H   UNL     1      18.787  46.968  49.199  1.00  0.00     0.278 HD
BRANCH  28  31
HETATM   31  C   UNL     1      18.879  48.809  50.120  1.00  0.00     0.297 C 
BRANCH  31  32
HETATM   32  C   UNL     1      18.486  50.214  49.864  1.00  0.00     0.078 A 
HETATM   33  O   UNL     1      17.206  50.425  49.431  1.00  0.00    -0.325 OA
HETATM   34  C   UNL     1      17.059  51.767  49.271  1.00  0.00     0.142 A 
HETATM   35  C   UNL     1      18.224  52.420  49.600  1.00  0.00     0.027 A 
HETATM   36  C   UNL     1      19.147  51.418  49.983  1.00  0.00     0.036 A 
ENDBRANCH  31  32
ENDBRANCH  28  31
ENDBRANCH  27  28
ENDBRANCH   8  27
TORSDOF 7
ENDMDL
MODEL 3
REMARK VINA RESULT:      -9.1      3.289      5.891
REMARK  7 active torsions:
REMARK  status: ('A' for Active; 'I' for Inactive)
REMARK    1  A    between atoms: N_2  and  C_4 
REMARK       I    between atoms: N_7  and  C_8 
REMARK    2  A    between atoms: C_8  and  C_9 
REMARK    3  A    between atoms: N_12  and  C_13 
REMARK    4  A    between atoms: C_20  and  C_21 
REMARK    5  A    between atoms: C_21  and  N_22 
REMARK    6  A    between atoms: N_22  and  C_25 
REMARK    7  A    between atoms: C_25  and  C_26 
ROOT
HETATM    1  C   UNL     1      27.481  44.555  53.245  1.00  0.00     0.719 A 
HETATM    2  N   UNL     1      28.457  44.717  54.221  1.00  0.00    -0.154 N 
HETATM    3  C   UNL     1      29.119  43.485  54.296  1.00  0.00     0.083 A 
HETATM    4  C   UNL     1      30.228  43.364  55.181  1.00  0.00     0.033 A 
HETATM    5  C   UNL     1      30.572  44.411  55.954  1.00  0.00     0.004 A 
HETATM    6  C   UNL     1      29.825  45.652  55.922  1.00  0.00     0.018 A 
HETATM    7  C   UNL     1      28.796  45.778  55.067  1.00  0.00     0.115 A 
HETATM    8  C   UNL     1      28.443  42.631  53.455  1.00  0.00     0.107 A 
HETATM    9  N   UNL     1      27.425  43.301  52.810  1.00  0.00    -0.064 NA
ENDROOT
BRANCH   1  10
HETATM   10  N   UNL     1      26.630  45.540  52.727  1.00  0.00    -0.147 N 
HETATM   11  C   UNL     1      26.062  46.554  53.474  1.00  0.00     0.233 A 
HETATM   12  N   UNL     1      25.315  47.365  52.758  1.00  0.00    -0.236 NA
HETATM   13  C   UNL     1      25.337  46.854  51.479  1.00  0.00     0.142 A 
HETATM   14  C   UNL     1      26.133  45.719  51.458  1.00  0.00     0.153 A 
BRANCH  13  15
HETATM   15  C   UNL     1      24.681  47.428  50.291  1.00  0.00     0.273 C 
HETATM   16  N   UNL     1      23.713  46.678  49.587  1.00  0.00    -0.347 N 
HETATM   17  C   UNL     1      23.788  45.226  49.453  1.00  0.00     0.128 C 
HETATM   18  C   UNL     1      23.004  47.388  48.526  1.00  0.00     0.128 C 
HETATM   19  C   UNL     1      22.415  44.616  49.201  1.00  0.00     0.053 C 
HETATM   20  C   UNL     1      21.694  45.265  48.010  1.00  0.00     0.190 C 
HETATM   21  C   UNL     1      21.634  46.779  48.247  1.00  0.00     0.053 C 
HETATM   22  O   UNL     1      24.962  48.574  49.935  1.00  0.00    -0.266 OA
BRANCH  20  23
HETATM   23  N   UNL     1      22.360  44.925  46.664  1.00  0.00    -0.074 N 
HETATM   24  C   UNL     1      21.607  45.497  45.478  1.00  0.00     0.269 C 
HETATM   25  H   UNL     1      23.297  45.346  46.637  1.00  0.00     0.279 HD
HETATM   26  C   UNL     1      22.554  43.438  46.441  1.00  0.00     0.269 C 
ENDBRANCH  20  23
ENDBRANCH  13  15
ENDBRANCH   1  10
BRANCH   8  27
HETATM   27  C   UNL     1      28.678  41.184  53.184  1.00  0.00     0.294 C 
BRANCH  27  28
HETATM   28  N   UNL     1      29.203  40.992  51.811  1.00  0.00    -0.064 N 
HETATM   29  H   UNL     1      29.310  41.919  51.376  1.00  0.00     0.278 HD
HETATM   30  H   UNL     1      30.167  40.639  51.853  1.00  0.00     0.278 HD
BRANCH  28  31
HETATM   31  C   UNL     1      28.403  40.110  50.928  1.00  0.00     0.297 C 
BRANCH  31  32
HETATM   32  C   UNL     1      27.243  40.819  50.339  1.00  0.00     0.078 A 
HETATM   33  O   UNL     1      27.514  41.957  49.630  1.00  0.00    -0.325 OA
HETATM   34  C   UNL     1      26.324  42.432  49.176  1.00  0.00     0.142 A 
HETATM   35  C   UNL     1      25.295  41.613  49.578  1.00  0.00     0.027 A 
HETATM   36  C   UNL     1      25.887  40.570  50.330  1.00  0.00     0.036 A 
ENDBRANCH  31  32
ENDBRANCH  28  31
ENDBRANCH  27  28
ENDBRANCH   8  27
TORSDOF 7
ENDMDL
MODEL 4
REMARK VINA RESULT:      -9.0      1.125      2.398
REMARK  7 active torsions:
REMARK  status: ('A' for Active; 'I' for Inactive)
REMARK    1  A    between atoms: N_2  and  C_4 
REMARK       I    between atoms: N_7  and  C_8 
REMARK    2  A    between atoms: C_8  and  C_9 
REMARK    3  A    between atoms: N_12  and  C_13 
REMARK    4  A    between atoms: C_20  and  C_21 
REMARK    5  A    between atoms: C_21  and  N_22 
REMARK    6  A    between atoms: N_22  and  C_25 
REMARK    7  A    between atoms: C_25  and  C_26 
ROOT
HETATM    1  C   UNL     1      25.678  45.917  51.729  1.00  0.00     0.719 A 
HETATM    2  N   UNL     1      26.005  46.528  52.933  1.00  0.00    -0.154 N 
HETATM    3  C   UNL     1      26.951  45.688  53.534  1.00  0.00     0.083 A 
HETATM    4  C   UNL     1      27.526  46.091  54.773  1.00  0.00     0.033 A 
HETATM    5  C   UNL     1      27.109  47.232  55.353  1.00  0.00     0.004 A 
HETATM    6  C   UNL     1      26.070  48.047  54.756  1.00  0.00     0.018 A 
HETATM    7  C   UNL     1      25.546  47.683  53.574  1.00  0.00     0.115 A 
HETATM    8  C   UNL     1      27.055  44.581  52.723  1.00  0.00     0.107 A 
HETATM    9  N   UNL     1      26.259  44.728  51.607  1.00  0.00    -0.064 NA
ENDROOT
BRANCH   1  10
HETATM   10  N   UNL     1      24.856  46.427  50.715  1.00  0.00    -0.147 N 
HETATM   11  C   UNL     1      24.018  45.660  49.929  1.00  0.00     0.233 A 
HETATM   12  N   UNL     1      23.334  46.370  49.060  1.00  0.00    -0.236 NA
HETATM   13  C   UNL     1      23.758  47.669  49.230  1.00  0.00     0.142 A 
HETATM   14  C   UNL     1      24.709  47.707  50.238  1.00  0.00     0.153 A 
BRANCH  13  15
HETATM   15  C   UNL     1      23.261  48.858  48.514  1.00  0.00     0.273 C 
HETATM   16  N   UNL     1      21.958  49.340  48.765  1.00  0.00    -0.347 N 
HETATM   17  C   UNL     1      20.840  48.456  49.086  1.00  0.00     0.128 C 
HETATM   18  C   UNL     1      21.615  50.611  48.132  1.00  0.00     0.128 C 
HETATM   19  C   UNL     1      19.755  49.188  49.865  1.00  0.00     0.053 C 
HETATM   20  C   UNL     1      19.288  50.469  49.159  1.00  0.00     0.190 C 
HETATM   21  C   UNL     1      20.516  51.348  48.889  1.00  0.00     0.053 C 
HETATM   22  O   UNL     1      23.999  49.441  47.718  1.00  0.00    -0.266 OA
BRANCH  20  23
HETATM   23  N   UNL     1      18.502  50.176  47.867  1.00  0.00    -0.074 N 
HETATM   24  C   UNL     1      18.018  51.437  47.178  1.00  0.00     0.269 C 
HETATM   25  H   UNL     1      19.121  49.704  47.197  1.00  0.00     0.279 HD
HETATM   26  C   UNL     1      17.317  49.254  48.074  1.00  0.00     0.269 C 
ENDBRANCH  20  23
ENDBRANCH  13  15
ENDBRANCH   1  10
BRANCH   8  27
HETATM   27  C   UNL     1      27.873  43.347  52.904  1.00  0.00     0.294 C 
BRANCH  27  28
HETATM   28  N   UNL     1      29.276  43.699  53.229  1.00  0.00    -0.064 N 
HETATM   29  H   UNL     1      29.796  43.797  52.347  1.00  0.00     0.278 HD
HETATM   30  H   UNL     1      29.313  44.645  53.629  1.00  0.00     0.278 HD
BRANCH  28  31
HETATM   31  C   UNL     1      29.987  42.764  54.134  1.00  0.00     0.297 C 
BRANCH  31  32
HETATM   32  C   UNL     1      30.454  43.436  55.369  1.00  0.00     0.078 A 
HETATM   33  O   UNL     1      30.032  44.721  55.568  1.00  0.00    -0.325 OA
HETATM   34  C   UNL     1      30.563  45.133  56.749  1.00  0.00     0.142 A 
HETATM   35  C   UNL     1      31.315  44.130  57.314  1.00  0.00     0.027 A 
HETATM   36  C   UNL     1      31.246  43.032  56.423  1.00  0.00     0.036 A 
ENDBRANCH  31  32
ENDBRANCH  28  31
ENDBRANCH  27  28
ENDBRANCH   8  27
TORSDOF 7
ENDMDL
MODEL 5
REMARK VINA RESULT:      -8.7      4.798      8.474
REMARK  7 active torsions:
REMARK  status: ('A' for Active; 'I' for Inactive)
REMARK    1  A    between atoms: N_2  and  C_4 
REMARK       I    between atoms: N_7  and  C_8 
REMARK    2  A    between atoms: C_8  and  C_9 
REMARK    3  A    between atoms: N_12  and  C_13 
REMARK    4  A    between atoms: C_20  and  C_21 
REMARK    5  A    between atoms: C_21  and  N_22 
REMARK    6  A    between atoms: N_22  and  C_25 
REMARK    7  A    between atoms: C_25  and  C_26 
ROOT
HETATM    1  C   UNL     1      28.792  43.793  54.255  1.00  0.00     0.719 A 
HETATM    2  N   UNL     1      29.715  43.972  55.277  1.00  0.00    -0.154 N 
HETATM    3  C   UNL     1      29.468  45.254  55.785  1.00  0.00     0.083 A 
HETATM    4  C   UNL     1      30.231  45.700  56.901  1.00  0.00     0.033 A 
HETATM    5  C   UNL     1      31.198  44.906  57.399  1.00  0.00     0.004 A 
HETATM    6  C   UNL     1      31.493  43.616  56.810  1.00  0.00     0.018 A 
HETATM    7  C   UNL     1      30.756  43.181  55.775  1.00  0.00     0.115 A 
HETATM    8  C   UNL     1      28.501  45.809  54.979  1.00  0.00     0.107 A 
HETATM    9  N   UNL     1      28.089  44.898  54.029  1.00  0.00    -0.064 NA
ENDROOT
BRANCH   1  10
HETATM   10  N   UNL     1      28.563  42.626  53.514  1.00  0.00    -0.147 N 
HETATM   11  C   UNL     1      28.278  41.393  54.068  1.00  0.00     0.233 A 
HETATM   12  N   UNL     1      28.086  40.456  53.167  1.00  0.00    -0.236 NA
HETATM   13  C   UNL     1      28.294  41.066  51.949  1.00  0.00     0.142 A 
HETATM   14  C   UNL     1      28.605  42.400  52.160  1.00  0.00     0.153 A 
BRANCH  13  15
HETATM   15  C   UNL     1      28.160  40.445  50.619  1.00  0.00     0.273 C 
HETATM   16  N   UNL     1      27.120  40.850  49.753  1.00  0.00    -0.347 N 
HETATM   17  C   UNL     1      25.805  41.259  50.240  1.00  0.00     0.128 C 
HETATM   18  C   UNL     1      27.165  40.298  48.402  1.00  0.00     0.128 C 
HETATM   19  C   UNL     1      25.101  42.173  49.245  1.00  0.00     0.053 C 
HETATM   20  C   UNL     1      25.026  41.562  47.838  1.00  0.00     0.190 C 
HETATM   21  C   UNL     1      26.448  41.191  47.395  1.00  0.00     0.053 C 
HETATM   22  O   UNL     1      28.975  39.595  50.260  1.00  0.00    -0.266 OA
BRANCH  20  23
HETATM   23  N   UNL     1      24.075  40.353  47.771  1.00  0.00    -0.074 N 
HETATM   24  C   UNL     1      24.315  39.486  46.550  1.00  0.00     0.269 C 
HETATM   25  H   UNL     1      24.241  39.750  48.587  1.00  0.00     0.279 HD
HETATM   26  C   UNL     1      22.608  40.732  47.813  1.00  0.00     0.269 C 
ENDBRANCH  20  23
ENDBRANCH  13  15
ENDBRANCH   1  10
BRANCH   8  27
HETATM   27  C   UNL     1      27.896  47.171  55.024  1.00  0.00     0.294 C 
BRANCH  27  28
HETATM   28  N   UNL     1      27.240  47.490  53.734  1.00  0.00    -0.064 N 
HETATM   29  H   UNL     1      27.499  48.450  53.470  1.00  0.00     0.278 HD
HETATM   30  H   UNL     1      27.653  46.921  52.984  1.00  0.00     0.278 HD
BRANCH  28  31
HETATM   31  C   UNL     1      25.766  47.337  53.699  1.00  0.00     0.297 C 
BRANCH  31  32
HETATM   32  C   UNL     1      25.295  46.800  52.400  1.00  0.00     0.078 A 
HETATM   33  O   UNL     1      25.052  47.712  51.411  1.00  0.00    -0.325 OA
HETATM   34  C   UNL     1      24.645  47.011  50.319  1.00  0.00     0.142 A 
HETATM   35  C   UNL     1      24.628  45.664  50.593  1.00  0.00     0.027 A 
HETATM   36  C   UNL     1      25.047  45.526  51.938  1.00  0.00     0.036 A 
ENDBRANCH  31  32
ENDBRANCH  28  31
ENDBRANCH  27  28
ENDBRANCH   8  27
TORSDOF 7
ENDMDL
MODEL 6
REMARK VINA RESULT:      -8.7      1.968      2.775
REMARK  7 active torsions:
REMARK  status: ('A' for Active; 'I' for Inactive)
REMARK    1  A    between atoms: N_2  and  C_4 
REMARK       I    between atoms: N_7  and  C_8 
REMARK    2  A    between atoms: C_8  and  C_9 
REMARK    3  A    between atoms: N_12  and  C_13 
REMARK    4  A    between atoms: C_20  and  C_21 
REMARK    5  A    between atoms: C_21  and  N_22 
REMARK    6  A    between atoms: N_22  and  C_25 
REMARK    7  A    between atoms: C_25  and  C_26 
ROOT
HETATM    1  C   UNL     1      26.319  44.836  50.924  1.00  0.00     0.719 A 
HETATM    2  N   UNL     1      26.179  43.555  50.405  1.00  0.00    -0.154 N 
HETATM    3  C   UNL     1      26.745  42.700  51.359  1.00  0.00     0.083 A 
HETATM    4  C   UNL     1      26.691  41.296  51.129  1.00  0.00     0.033 A 
HETATM    5  C   UNL     1      26.152  40.835  49.985  1.00  0.00     0.004 A 
HETATM    6  C   UNL     1      25.644  41.738  48.972  1.00  0.00     0.018 A 
HETATM    7  C   UNL     1      25.668  43.062  49.199  1.00  0.00     0.115 A 
HETATM    8  C   UNL     1      27.285  43.511  52.331  1.00  0.00     0.107 A 
HETATM    9  N   UNL     1      27.021  44.835  52.052  1.00  0.00    -0.064 NA
ENDROOT
BRANCH   1  10
HETATM   10  N   UNL     1      25.809  46.027  50.390  1.00  0.00    -0.147 N 
HETATM   11  C   UNL     1      26.568  46.978  49.736  1.00  0.00     0.233 A 
HETATM   12  N   UNL     1      25.859  48.000  49.311  1.00  0.00    -0.236 NA
HETATM   13  C   UNL     1      24.570  47.756  49.734  1.00  0.00     0.142 A 
HETATM   14  C   UNL     1      24.538  46.549  50.414  1.00  0.00     0.153 A 
BRANCH  13  15
HETATM   15  C   UNL     1      23.385  48.593  49.472  1.00  0.00     0.273 C 
HETATM   16  N   UNL     1      22.205  48.006  48.963  1.00  0.00    -0.347 N 
HETATM   17  C   UNL     1      22.224  46.877  48.038  1.00  0.00     0.128 C 
HETATM   18  C   UNL     1      21.039  48.882  48.890  1.00  0.00     0.128 C 
HETATM   19  C   UNL     1      20.927  46.079  48.105  1.00  0.00     0.053 C 
HETATM   20  C   UNL     1      19.685  46.960  47.909  1.00  0.00     0.190 C 
HETATM   21  C   UNL     1      19.732  48.098  48.937  1.00  0.00     0.053 C 
HETATM   22  O   UNL     1      23.424  49.797  49.725  1.00  0.00    -0.266 OA
BRANCH  20  23
HETATM   23  N   UNL     1      19.565  47.496  46.470  1.00  0.00    -0.074 N 
HETATM   24  C   UNL     1      18.426  48.485  46.307  1.00  0.00     0.269 C 
HETATM   25  H   UNL     1      20.424  48.007  46.230  1.00  0.00     0.279 HD
HETATM   26  C   UNL     1      19.412  46.407  45.427  1.00  0.00     0.269 C 
ENDBRANCH  20  23
ENDBRANCH  13  15
ENDBRANCH   1  10
BRANCH   8  27
HETATM   27  C   UNL     1      28.054  43.141  53.554  1.00  0.00     0.294 C 
BRANCH  27  28
HETATM   28  N   UNL     1      29.139  44.120  53.799  1.00  0.00    -0.064 N 
HETATM   29  H   UNL     1      30.040  43.634  53.692  1.00  0.00     0.278 HD
HETATM   30  H   UNL     1      29.157  44.816  53.044  1.00  0.00     0.278 HD
BRANCH  28  31
HETATM   31  C   UNL     1      29.098  44.823  55.104  1.00  0.00     0.297 C 
BRANCH  31  32
HETATM   32  C   UNL     1      30.165  44.356  56.020  1.00  0.00     0.078 A 
HETATM   33  O   UNL     1      30.332  45.063  57.178  1.00  0.00    -0.325 OA
HETATM   34  C   UNL     1      31.342  44.464  57.864  1.00  0.00     0.142 A 
HETATM   35  C   UNL     1      31.820  43.380  57.165  1.00  0.00     0.027 A 
HETATM   36  C   UNL     1      31.061  43.309  55.973  1.00  0.00     0.036 A 
ENDBRANCH  31  32
ENDBRANCH  28  31
ENDBRANCH  27  28
ENDBRANCH   8  27
TORSDOF 7
ENDMDL
MODEL 7
REMARK VINA RESULT:      -8.7      2.042      3.229
REMARK  7 active torsions:
REMARK  status: ('A' for Active; 'I' for Inactive)
REMARK    1  A    between atoms: N_2  and  C_4 
REMARK       I    between atoms: N_7  and  C_8 
REMARK    2  A    between atoms: C_8  and  C_9 
REMARK    3  A    between atoms: N_12  and  C_13 
REMARK    4  A    between atoms: C_20  and  C_21 
REMARK    5  A    between atoms: C_21  and  N_22 
REMARK    6  A    between atoms: N_22  and  C_25 
REMARK    7  A    between atoms: C_25  and  C_26 
ROOT
HETATM    1  C   UNL     1      25.025  46.145  50.809  1.00  0.00     0.719 A 
HETATM    2  N   UNL     1      25.457  46.100  52.129  1.00  0.00    -0.154 N 
HETATM    3  C   UNL     1      25.651  44.742  52.413  1.00  0.00     0.083 A 
HETATM    4  C   UNL     1      26.161  44.384  53.694  1.00  0.00     0.033 A 
HETATM    5  C   UNL     1      26.388  45.347  54.607  1.00  0.00     0.004 A 
HETATM    6  C   UNL     1      26.104  46.739  54.322  1.00  0.00     0.018 A 
HETATM    7  C   UNL     1      25.650  47.083  53.105  1.00  0.00     0.115 A 
HETATM    8  C   UNL     1      25.225  44.050  51.303  1.00  0.00     0.107 A 
HETATM    9  N   UNL     1      24.833  44.927  50.313  1.00  0.00    -0.064 NA
ENDROOT
BRANCH   1  10
HETATM   10  N   UNL     1      24.803  47.287  50.028  1.00  0.00    -0.147 N 
HETATM   11  C   UNL     1      25.793  48.167  49.633  1.00  0.00     0.233 A 
HETATM   12  N   UNL     1      25.340  49.152  48.891  1.00  0.00    -0.236 NA
HETATM   13  C   UNL     1      23.977  48.961  48.816  1.00  0.00     0.142 A 
HETATM   14  C   UNL     1      23.640  47.821  49.529  1.00  0.00     0.153 A 
BRANCH  13  15
HETATM   15  C   UNL     1      23.014  49.781  48.060  1.00  0.00     0.273 C 
HETATM   16  N   UNL     1      21.668  49.858  48.480  1.00  0.00    -0.347 N 
HETATM   17  C   UNL     1      20.974  48.734  49.104  1.00  0.00     0.128 C 
HETATM   18  C   UNL     1      20.831  50.819  47.768  1.00  0.00     0.128 C 
HETATM   19  C   UNL     1      19.813  49.206  49.969  1.00  0.00     0.053 C 
HETATM   20  C   UNL     1      18.847  50.124  49.207  1.00  0.00     0.190 C 
HETATM   21  C   UNL     1      19.652  51.287  48.614  1.00  0.00     0.053 C 
HETATM   22  O   UNL     1      23.398  50.420  47.079  1.00  0.00    -0.266 OA
BRANCH  20  23
HETATM   23  N   UNL     1      18.051  49.371  48.124  1.00  0.00    -0.074 N 
HETATM   24  C   UNL     1      17.104  50.276  47.359  1.00  0.00     0.269 C 
HETATM   25  H   UNL     1      18.706  48.990  47.430  1.00  0.00     0.279 HD
HETATM   26  C   UNL     1      17.264  48.192  48.659  1.00  0.00     0.269 C 
ENDBRANCH  20  23
ENDBRANCH  13  15
ENDBRANCH   1  10
BRANCH   8  27
HETATM   27  C   UNL     1      25.154  42.579  51.073  1.00  0.00     0.294 C 
BRANCH  27  28
HETATM   28  N   UNL     1      26.451  42.071  50.565  1.00  0.00    -0.064 N 
HETATM   29  H   UNL     1      26.285  41.614  49.659  1.00  0.00     0.278 HD
HETATM   30  H   UNL     1      27.062  42.860  50.322  1.00  0.00     0.278 HD
BRANCH  28  31
HETATM   31  C   UNL     1      27.186  41.152  51.467  1.00  0.00     0.297 C 
BRANCH  31  32
HETATM   32  C   UNL     1      28.166  41.872  52.314  1.00  0.00     0.078 A 
HETATM   33  O   UNL     1      28.237  41.495  53.626  1.00  0.00    -0.325 OA
HETATM   34  C   UNL     1      29.194  42.266  54.207  1.00  0.00     0.142 A 
HETATM   35  C   UNL     1      29.742  43.128  53.285  1.00  0.00     0.027 A 
HETATM   36  C   UNL     1      29.078  42.874  52.061  1.00  0.00     0.036 A 
ENDBRANCH  31  32
ENDBRANCH  28  31
ENDBRANCH  27  28
ENDBRANCH   8  27
TORSDOF 7
ENDMDL
MODEL 8
REMARK VINA RESULT:      -8.7      1.576      1.994
REMARK  7 active torsions:
REMARK  status: ('A' for Active; 'I' for Inactive)
REMARK    1  A    between atoms: N_2  and  C_4 
REMARK       I    between atoms: N_7  and  C_8 
REMARK    2  A    between atoms: C_8  and  C_9 
REMARK    3  A    between atoms: N_12  and  C_13 
REMARK    4  A    between atoms: C_20  and  C_21 
REMARK    5  A    between atoms: C_21  and  N_22 
REMARK    6  A    between atoms: N_22  and  C_25 
REMARK    7  A    between atoms: C_25  and  C_26 
ROOT
HETATM    1  C   UNL     1      24.895  45.982  50.734  1.00  0.00     0.719 A 
HETATM    2  N   UNL     1      24.880  44.692  50.219  1.00  0.00    -0.154 N 
HETATM    3  C   UNL     1      25.006  43.845  51.327  1.00  0.00     0.083 A 
HETATM    4  C   UNL     1      24.958  42.437  51.113  1.00  0.00     0.033 A 
HETATM    5  C   UNL     1      24.850  41.964  49.858  1.00  0.00     0.004 A 
HETATM    6  C   UNL     1      24.804  42.855  48.716  1.00  0.00     0.018 A 
HETATM    7  C   UNL     1      24.820  44.184  48.917  1.00  0.00     0.115 A 
HETATM    8  C   UNL     1      25.198  44.661  52.418  1.00  0.00     0.107 A 
HETATM    9  N   UNL     1      25.133  45.986  52.042  1.00  0.00    -0.064 NA
ENDROOT
BRANCH   1  10
HETATM   10  N   UNL     1      24.687  47.177  50.033  1.00  0.00    -0.147 N 
HETATM   11  C   UNL     1      25.652  48.145  49.835  1.00  0.00     0.233 A 
HETATM   12  N   UNL     1      25.221  49.168  49.131  1.00  0.00    -0.236 NA
HETATM   13  C   UNL     1      23.892  48.906  48.879  1.00  0.00     0.142 A 
HETATM   14  C   UNL     1      23.554  47.688  49.448  1.00  0.00     0.153 A 
BRANCH  13  15
HETATM   15  C   UNL     1      22.966  49.737  48.088  1.00  0.00     0.273 C 
HETATM   16  N   UNL     1      21.616  49.862  48.482  1.00  0.00    -0.347 N 
HETATM   17  C   UNL     1      20.878  48.772  49.116  1.00  0.00     0.128 C 
HETATM   18  C   UNL     1      20.820  50.830  47.733  1.00  0.00     0.128 C 
HETATM   19  C   UNL     1      19.716  49.297  49.950  1.00  0.00     0.053 C 
HETATM   20  C   UNL     1      18.791  50.225  49.150  1.00  0.00     0.190 C 
HETATM   21  C   UNL     1      19.640  51.352  48.547  1.00  0.00     0.053 C 
HETATM   22  O   UNL     1      23.386  50.343  47.101  1.00  0.00    -0.266 OA
BRANCH  20  23
HETATM   23  N   UNL     1      17.993  49.472  48.069  1.00  0.00    -0.074 N 
HETATM   24  C   UNL     1      17.139  50.396  47.221  1.00  0.00     0.269 C 
HETATM   25  H   UNL     1      18.650  49.017  47.422  1.00  0.00     0.279 HD
HETATM   26  C   UNL     1      17.110  48.372  48.623  1.00  0.00     0.269 C 
ENDBRANCH  20  23
ENDBRANCH  13  15
ENDBRANCH   1  10
BRANCH   8  27
HETATM   27  C   UNL     1      25.442  44.297  53.843  1.00  0.00     0.294 C 
BRANCH  27  28
HETATM   28  N   UNL     1      26.687  44.933  54.335  1.00  0.00    -0.064 N 
HETATM   29  H   UNL     1      26.592  45.952  54.227  1.00  0.00     0.278 HD
HETATM   30  H   UNL     1      26.761  44.811  55.352  1.00  0.00     0.278 HD
BRANCH  28  31
HETATM   31  C   UNL     1      27.945  44.473  53.700  1.00  0.00     0.297 C 
BRANCH  31  32
HETATM   32  C   UNL     1      29.053  44.366  54.679  1.00  0.00     0.078 A 
HETATM   33  O   UNL     1      29.773  43.203  54.667  1.00  0.00    -0.325 OA
HETATM   34  C   UNL     1      30.731  43.323  55.623  1.00  0.00     0.142 A 
HETATM   35  C   UNL     1      30.640  44.546  56.245  1.00  0.00     0.027 A 
HETATM   36  C   UNL     1      29.555  45.221  55.636  1.00  0.00     0.036 A 
ENDBRANCH  31  32
ENDBRANCH  28  31
ENDBRANCH  27  28
ENDBRANCH   8  27
TORSDOF 7
ENDMDL
MODEL 9
REMARK VINA RESULT:      -8.7      2.574      4.502
REMARK  7 active torsions:
REMARK  status: ('A' for Active; 'I' for Inactive)
REMARK    1  A    between atoms: N_2  and  C_4 
REMARK       I    between atoms: N_7  and  C_8 
REMARK    2  A    between atoms: C_8  and  C_9 
REMARK    3  A    between atoms: N_12  and  C_13 
REMARK    4  A    between atoms: C_20  and  C_21 
REMARK    5  A    between atoms: C_21  and  N_22 
REMARK    6  A    between atoms: N_22  and  C_25 
REMARK    7  A    between atoms: C_25  and  C_26 
ROOT
HETATM    1  C   UNL     1      23.627  47.906  49.295  1.00  0.00     0.719 A 
HETATM    2  N   UNL     1      24.756  48.660  49.002  1.00  0.00    -0.154 N 
HETATM    3  C   UNL     1      25.824  47.986  49.608  1.00  0.00     0.083 A 
HETATM    4  C   UNL     1      27.141  48.497  49.425  1.00  0.00     0.033 A 
HETATM    5  C   UNL     1      27.315  49.635  48.727  1.00  0.00     0.004 A 
HETATM    6  C   UNL     1      26.190  50.363  48.176  1.00  0.00     0.018 A 
HETATM    7  C   UNL     1      24.950  49.867  48.323  1.00  0.00     0.115 A 
HETATM    8  C   UNL     1      25.271  46.942  50.314  1.00  0.00     0.107 A 
HETATM    9  N   UNL     1      23.907  46.901  50.119  1.00  0.00    -0.064 NA
ENDROOT
BRANCH   1  10
HETATM   10  N   UNL     1      22.326  48.108  48.817  1.00  0.00    -0.147 N 
HETATM   11  C   UNL     1      21.832  47.569  47.644  1.00  0.00     0.233 A 
HETATM   12  N   UNL     1      20.577  47.888  47.419  1.00  0.00    -0.236 NA
HETATM   13  C   UNL     1      20.215  48.717  48.458  1.00  0.00     0.142 A 
HETATM   14  C   UNL     1      21.295  48.869  49.313  1.00  0.00     0.153 A 
BRANCH  13  15
HETATM   15  C   UNL     1      18.887  49.315  48.685  1.00  0.00     0.273 C 
HETATM   16  N   UNL     1      18.161  49.855  47.600  1.00  0.00    -0.347 N 
HETATM   17  C   UNL     1      18.810  50.513  46.469  1.00  0.00     0.128 C 
HETATM   18  C   UNL     1      16.794  50.276  47.894  1.00  0.00     0.128 C 
HETATM   19  C   UNL     1      17.936  50.469  45.222  1.00  0.00     0.053 C 
HETATM   20  C   UNL     1      16.526  51.021  45.473  1.00  0.00     0.190 C 
HETATM   21  C   UNL     1      15.910  50.256  46.652  1.00  0.00     0.053 C 
HETATM   22  O   UNL     1      18.406  49.314  49.819  1.00  0.00    -0.266 OA
BRANCH  20  23
HETATM   23  N   UNL     1      16.524  52.542  45.717  1.00  0.00    -0.074 N 
HETATM   24  C   UNL     1      15.164  53.065  46.139  1.00  0.00     0.269 C 
HETATM   25  H   UNL     1      17.165  52.759  46.490  1.00  0.00     0.279 HD
HETATM   26  C   UNL     1      17.003  53.348  44.526  1.00  0.00     0.269 C 
ENDBRANCH  20  23
ENDBRANCH  13  15
ENDBRANCH   1  10
BRANCH   8  27
HETATM   27  C   UNL     1      25.934  45.932  51.188  1.00  0.00     0.294 C 
BRANCH  27  28
HETATM   28  N   UNL     1      24.978  45.407  52.191  1.00  0.00    -0.064 N 
HETATM   29  H   UNL     1      24.295  46.147  52.401  1.00  0.00     0.278 HD
HETATM   30  H   UNL     1      24.402  44.668  51.770  1.00  0.00     0.278 HD
BRANCH  28  31
HETATM   31  C   UNL     1      25.573  44.897  53.450  1.00  0.00     0.297 C 
BRANCH  31  32
HETATM   32  C   UNL     1      26.350  45.941  54.159  1.00  0.00     0.078 A 
HETATM   33  O   UNL     1      25.675  47.077  54.511  1.00  0.00    -0.325 OA
HETATM   34  C   UNL     1      26.563  47.883  55.150  1.00  0.00     0.142 A 
HETATM   35  C   UNL     1      27.796  47.278  55.219  1.00  0.00     0.027 A 
HETATM   36  C   UNL     1      27.660  46.023  54.579  1.00  0.00     0.036 A 
ENDBRANCH  31  32
ENDBRANCH  28  31
ENDBRANCH  27  28
ENDBRANCH   8  27
TORSDOF 7
ENDMDL
MODEL 10
REMARK VINA RESULT:      -8.6      2.351      4.337
REMARK  7 active torsions:
REMARK  status: ('A' for Active; 'I' for Inactive)
REMARK    1  A    between atoms: N_2  and  C_4 
REMARK       I    between atoms: N_7  and  C_8 
REMARK    2  A    between atoms: C_8  and  C_9 
REMARK    3  A    between atoms: N_12  and  C_13 
REMARK    4  A    between atoms: C_20  and  C_21 
REMARK    5  A    between atoms: C_21  and  N_22 
REMARK    6  A    between atoms: N_22  and  C_25 
REMARK    7  A    between atoms: C_25  and  C_26 
ROOT
HETATM    1  C   UNL     1      25.961  45.531  52.280  1.00  0.00     0.719 A 
HETATM    2  N   UNL     1      26.455  46.188  53.400  1.00  0.00    -0.154 N 
HETATM    3  C   UNL     1      27.248  45.246  54.067  1.00  0.00     0.083 A 
HETATM    4  C   UNL     1      27.949  45.657  55.237  1.00  0.00     0.033 A 
HETATM    5  C   UNL     1      27.786  46.911  55.697  1.00  0.00     0.004 A 
HETATM    6  C   UNL     1      26.898  47.848  55.039  1.00  0.00     0.018 A 
HETATM    7  C   UNL     1      26.259  47.472  53.919  1.00  0.00     0.115 A 
HETATM    8  C   UNL     1      27.100  44.062  53.383  1.00  0.00     0.107 A 
HETATM    9  N   UNL     1      26.295  44.245  52.278  1.00  0.00    -0.064 NA
ENDROOT
BRANCH   1  10
HETATM   10  N   UNL     1      25.205  46.084  51.238  1.00  0.00    -0.147 N 
HETATM   11  C   UNL     1      24.339  45.366  50.435  1.00  0.00     0.233 A 
HETATM   12  N   UNL     1      23.732  46.111  49.538  1.00  0.00    -0.236 NA
HETATM   13  C   UNL     1      24.240  47.380  49.707  1.00  0.00     0.142 A 
HETATM   14  C   UNL     1      25.162  47.365  50.742  1.00  0.00     0.153 A 
BRANCH  13  15
HETATM   15  C   UNL     1      23.848  48.591  48.963  1.00  0.00     0.273 C 
HETATM   16  N   UNL     1      22.492  48.982  48.917  1.00  0.00    -0.347 N 
HETATM   17  C   UNL     1      21.395  48.019  48.901  1.00  0.00     0.128 C 
HETATM   18  C   UNL     1      22.223  50.277  48.297  1.00  0.00     0.128 C 
HETATM   19  C   UNL     1      20.106  48.632  49.434  1.00  0.00     0.053 C 
HETATM   20  C   UNL     1      19.733  49.935  48.713  1.00  0.00     0.190 C 
HETATM   21  C   UNL     1      20.926  50.896  48.805  1.00  0.00     0.053 C 
HETATM   22  O   UNL     1      24.713  49.270  48.409  1.00  0.00    -0.266 OA
BRANCH  20  23
HETATM   23  N   UNL     1      19.303  49.698  47.254  1.00  0.00    -0.074 N 
HETATM   24  C   UNL     1      18.749  50.948  46.597  1.00  0.00     0.269 C 
HETATM   25  H   UNL     1      20.126  49.426  46.701  1.00  0.00     0.279 HD
HETATM   26  C   UNL     1      18.293  48.580  47.093  1.00  0.00     0.269 C 
ENDBRANCH  20  23
ENDBRANCH  13  15
ENDBRANCH   1  10
BRANCH   8  27
HETATM   27  C   UNL     1      27.672  42.718  53.680  1.00  0.00     0.294 C 
BRANCH  27  28
HETATM   28  N   UNL     1      27.243  41.735  52.657  1.00  0.00    -0.064 N 
HETATM   29  H   UNL     1      26.627  41.047  53.110  1.00  0.00     0.278 HD
HETATM   30  H   UNL     1      26.624  42.190  51.974  1.00  0.00     0.278 HD
BRANCH  28  31
HETATM   31  C   UNL     1      28.331  41.036  51.931  1.00  0.00     0.297 C 
BRANCH  31  32
HETATM   32  C   UNL     1      28.055  40.940  50.478  1.00  0.00     0.078 A 
HETATM   33  O   UNL     1      27.308  41.943  49.926  1.00  0.00    -0.325 OA
HETATM   34  C   UNL     1      27.188  41.664  48.601  1.00  0.00     0.142 A 
HETATM   35  C   UNL     1      27.851  40.499  48.294  1.00  0.00     0.027 A 
HETATM   36  C   UNL     1      28.412  40.029  49.506  1.00  0.00     0.036 A 
ENDBRANCH  31  32
ENDBRANCH  28  31
ENDBRANCH  27  28
ENDBRANCH   8  27
TORSDOF 7
ENDMDL
