MODEL 1
REMARK VINA RESULT:      -9.5      0.000      0.000
REMARK  9 active torsions:
REMARK  status: ('A' for Active; 'I' for Inactive)
REMARK    1  A    between atoms: O_2  and  C_3 
REMARK    2  A    between atoms: C_5  and  O_6 
REMARK    3  A    between atoms: C_8  and  N_9 
REMARK    4  A    between atoms: C_10  and  O_11 
REMARK    5  A    between atoms: C_10  and  C_12 
REMARK       I    between atoms: C_12  and  N_13 
REMARK    6  A    between atoms: N_13  and  C_14 
REMARK    7  A    between atoms: C_14  and  C_15 
REMARK    8  A    between atoms: C_15  and  N_16 
REMARK    9  A    between atoms: N_20  and  C_21 
ROOT
HETATM    1  N   UNL     1      19.185  49.105  49.094  1.00  0.00    -0.251 N 
HETATM    2  C   UNL     1      20.168  48.861  48.031  1.00  0.00     0.256 C 
HETATM    3  C   UNL     1      20.173  47.402  47.609  1.00  0.00     0.034 A 
HETATM    4  C   UNL     1      19.842  46.447  48.565  1.00  0.00     0.048 A 
HETATM    5  N   UNL     1      19.414  46.880  49.814  1.00  0.00    -0.308 N 
HETATM    6  C   UNL     1      18.992  48.149  50.079  1.00  0.00     0.330 C 
HETATM    7  O   UNL     1      18.490  48.383  51.178  1.00  0.00    -0.246 OA
HETATM    8  C   UNL     1      20.549  46.966  46.327  1.00  0.00     0.015 A 
HETATM    9  C   UNL     1      20.574  45.604  46.021  1.00  0.00     0.001 A 
HETATM   10  C   UNL     1      20.252  44.663  46.999  1.00  0.00     0.002 A 
HETATM   11  C   UNL     1      19.894  45.083  48.278  1.00  0.00     0.030 A 
HETATM   12  H   UNL     1      19.149  46.195  50.516  1.00  0.00     0.170 HD
ENDROOT
BRANCH   2  13
HETATM   13  O   UNL     1      19.833  49.598  46.853  1.00  0.00    -0.359 OA
HETATM   14  H   UNL     1      19.972  50.534  47.074  1.00  0.00     0.213 HD
ENDBRANCH   2  13
BRANCH   2  15
HETATM   15  C   UNL     1      21.656  49.243  48.480  1.00  0.00     0.279 C 
HETATM   16  N   UNL     1      22.486  48.224  48.914  1.00  0.00    -0.355 N 
HETATM   17  H   UNL     1      21.999  47.371  49.188  1.00  0.00     0.162 HD
HETATM   18  O   UNL     1      22.106  50.392  48.381  1.00  0.00    -0.268 OA
BRANCH  16  19
HETATM   19  C   UNL     1      23.785  48.440  49.546  1.00  0.00     0.150 C 
BRANCH  19  20
HETATM   20  C   UNL     1      24.723  47.213  49.661  1.00  0.00     0.254 C 
BRANCH  20  21
HETATM   21  N   UNL     1      24.853  46.678  51.064  1.00  0.00    -0.067 N 
HETATM   22  H   UNL     1      23.958  46.909  51.544  1.00  0.00     0.280 HD
HETATM   23  C   UNL     1      24.962  45.159  51.176  1.00  0.00     0.254 C 
HETATM   24  C   UNL     1      24.896  44.730  52.659  1.00  0.00     0.150 C 
HETATM   25  N   UNL     1      25.941  45.417  53.441  1.00  0.00    -0.378 N 
HETATM   26  C   UNL     1      25.935  46.886  53.335  1.00  0.00     0.150 C 
HETATM   27  C   UNL     1      25.966  47.350  51.863  1.00  0.00     0.254 C 
BRANCH  25  28
HETATM   28  C   UNL     1      27.085  44.705  53.781  1.00  0.00     0.030 A 
HETATM   29  C   UNL     1      27.361  43.418  53.298  1.00  0.00     0.029 A 
HETATM   30  C   UNL     1      28.532  42.733  53.654  1.00  0.00     0.002 A 
HETATM   31  C   UNL     1      29.465  43.329  54.495  1.00  0.00     0.000 A 
HETATM   32  C   UNL     1      29.229  44.610  54.975  1.00  0.00     0.002 A 
HETATM   33  C   UNL     1      28.057  45.285  54.617  1.00  0.00     0.029 A 
ENDBRANCH  25  28
ENDBRANCH  20  21
ENDBRANCH  19  20
ENDBRANCH  16  19
ENDBRANCH   2  15
BRANCH   1  34
HETATM   34  C   UNL     1      18.342  50.269  49.079  1.00  0.00     0.076 A 
HETATM   35  C   UNL     1      17.069  50.302  48.480  1.00  0.00     0.098 A 
HETATM   36  C   UNL     1      16.221  51.408  48.664  1.00  0.00     0.075 A 
HETATM   37  C   UNL     1      16.654  52.514  49.395  1.00  0.00     0.070 A 
HETATM   38  C   UNL     1      17.948  52.527  49.907  1.00  0.00     0.039 A 
HETATM   39  C   UNL     1      18.783  51.419  49.753  1.00  0.00     0.035 A 
BRANCH  35  40
HETATM   40  O   UNL     1      16.674  49.209  47.741  1.00  0.00    -0.354 OA
HETATM   41  C   UNL     1      15.267  49.183  47.485  1.00  0.00     0.210 C 
ENDBRANCH  35  40
BRANCH  37  42
HETATM   42  O   UNL     1      15.920  53.635  49.661  1.00  0.00    -0.356 OA
HETATM   43  C   UNL     1      14.958  53.541  50.705  1.00  0.00     0.210 C 
ENDBRANCH  37  42
ENDBRANCH   1  34
TORSDOF 9
ENDMDL
MODEL 2
REMARK VINA RESULT:      -9.2      2.040      2.856
REMARK  9 active torsions:
REMARK  status: ('A' for Active; 'I' for Inactive)
REMARK    1  A    between atoms: O_2  and  C_3 
REMARK    2  A    between atoms: C_5  and  O_6 
REMARK    3  A    between atoms: C_8  and  N_9 
REMARK    4  A    between atoms: C_10  and  O_11 
REMARK    5  A    between atoms: C_10  and  C_12 
REMARK       I    between atoms: C_12  and  N_13 
REMARK    6  A    between atoms: N_13  and  C_14 
REMARK    7  A    between atoms: C_14  and  C_15 
REMARK    8  A    between atoms: C_15  and  N_16 
REMARK    9  A    between atoms: N_20  and  C_21 
ROOT
HETATM    1  N   UNL     1      19.549  46.378  47.889  1.00  0.00    -0.251 N 
HETATM    2  C   UNL     1      20.897  46.074  47.390  1.00  0.00     0.256 C 
HETATM    3  C   UNL     1      20.841  45.271  46.102  1.00  0.00     0.034 A 
HETATM    4  C   UNL     1      19.757  44.420  45.913  1.00  0.00     0.048 A 
HETATM    5  N   UNL     1      18.731  44.434  46.851  1.00  0.00    -0.308 N 
HETATM    6  C   UNL     1      18.546  45.429  47.764  1.00  0.00     0.330 C 
HETATM    7  O   UNL     1      17.519  45.419  48.443  1.00  0.00    -0.246 OA
HETATM    8  C   UNL     1      21.850  45.300  45.125  1.00  0.00     0.015 A 
HETATM    9  C   UNL     1      21.754  44.500  43.984  1.00  0.00     0.001 A 
HETATM   10  C   UNL     1      20.666  43.643  43.822  1.00  0.00     0.002 A 
HETATM   11  C   UNL     1      19.667  43.594  44.793  1.00  0.00     0.030 A 
HETATM   12  H   UNL     1      17.923  43.833  46.716  1.00  0.00     0.170 HD
ENDROOT
BRANCH   2  13
HETATM   13  O   UNL     1      21.596  47.277  47.060  1.00  0.00    -0.359 OA
HETATM   14  H   UNL     1      22.457  46.997  46.707  1.00  0.00     0.213 HD
ENDBRANCH   2  13
BRANCH   2  15
HETATM   15  C   UNL     1      21.763  45.241  48.447  1.00  0.00     0.279 C 
HETATM   16  N   UNL     1      22.734  45.914  49.166  1.00  0.00    -0.355 N 
HETATM   17  H   UNL     1      23.017  46.806  48.761  1.00  0.00     0.162 HD
HETATM   18  O   UNL     1      21.541  44.048  48.694  1.00  0.00    -0.268 OA
BRANCH  16  19
HETATM   19  C   UNL     1      23.734  45.257  50.004  1.00  0.00     0.150 C 
BRANCH  19  20
HETATM   20  C   UNL     1      24.853  46.150  50.595  1.00  0.00     0.254 C 
BRANCH  20  21
HETATM   21  N   UNL     1      25.151  45.869  52.046  1.00  0.00    -0.067 N 
HETATM   22  H   UNL     1      24.243  45.961  52.548  1.00  0.00     0.280 HD
HETATM   23  C   UNL     1      25.613  44.448  52.355  1.00  0.00     0.254 C 
HETATM   24  C   UNL     1      25.698  44.237  53.883  1.00  0.00     0.150 C 
HETATM   25  N   UNL     1      26.580  45.249  54.494  1.00  0.00    -0.378 N 
HETATM   26  C   UNL     1      26.229  46.646  54.192  1.00  0.00     0.150 C 
HETATM   27  C   UNL     1      26.103  46.884  52.672  1.00  0.00     0.254 C 
BRANCH  25  28
HETATM   28  C   UNL     1      27.869  44.870  54.850  1.00  0.00     0.030 A 
HETATM   29  C   UNL     1      28.466  43.676  54.422  1.00  0.00     0.029 A 
HETATM   30  C   UNL     1      29.774  43.332  54.793  1.00  0.00     0.002 A 
HETATM   31  C   UNL     1      30.523  44.185  55.595  1.00  0.00     0.000 A 
HETATM   32  C   UNL     1      29.967  45.383  56.020  1.00  0.00     0.002 A 
HETATM   33  C   UNL     1      28.660  45.718  55.648  1.00  0.00     0.029 A 
ENDBRANCH  25  28
ENDBRANCH  20  21
ENDBRANCH  19  20
ENDBRANCH  16  19
ENDBRANCH   2  15
BRANCH   1  34
HETATM   34  C   UNL     1      19.220  47.675  48.411  1.00  0.00     0.076 A 
HETATM   35  C   UNL     1      18.740  48.735  47.619  1.00  0.00     0.098 A 
HETATM   36  C   UNL     1      18.260  49.914  48.216  1.00  0.00     0.075 A 
HETATM   37  C   UNL     1      18.307  50.070  49.601  1.00  0.00     0.070 A 
HETATM   38  C   UNL     1      18.870  49.065  50.382  1.00  0.00     0.039 A 
HETATM   39  C   UNL     1      19.321  47.881  49.796  1.00  0.00     0.035 A 
BRANCH  35  40
HETATM   40  O   UNL     1      18.728  48.566  46.252  1.00  0.00    -0.354 OA
HETATM   41  C   UNL     1      17.410  48.415  45.717  1.00  0.00     0.210 C 
ENDBRANCH  35  40
BRANCH  37  42
HETATM   42  O   UNL     1      17.854  51.154  50.300  1.00  0.00    -0.356 OA
HETATM   43  C   UNL     1      17.757  52.383  49.591  1.00  0.00     0.210 C 
ENDBRANCH  37  42
ENDBRANCH   1  34
TORSDOF 9
ENDMDL
MODEL 3
REMARK VINA RESULT:      -9.1      5.165     11.152
REMARK  9 active torsions:
REMARK  status: ('A' for Active; 'I' for Inactive)
REMARK    1  A    between atoms: O_2  and  C_3 
REMARK    2  A    between atoms: C_5  and  O_6 
REMARK    3  A    between atoms: C_8  and  N_9 
REMARK    4  A    between atoms: C_10  and  O_11 
REMARK    5  A    between atoms: C_10  and  C_12 
REMARK       I    between atoms: C_12  and  N_13 
REMARK    6  A    between atoms: N_13  and  C_14 
REMARK    7  A    between atoms: C_14  and  C_15 
REMARK    8  A    between atoms: C_15  and  N_16 
REMARK    9  A    between atoms: N_20  and  C_21 
ROOT
HETATM    1  N   UNL     1      26.536  41.273  49.571  1.00  0.00    -0.251 N 
HETATM    2  C   UNL     1      26.545  42.646  50.092  1.00  0.00     0.256 C 
HETATM    3  C   UNL     1      27.359  42.746  51.371  1.00  0.00     0.034 A 
HETATM    4  C   UNL     1      27.418  41.626  52.194  1.00  0.00     0.048 A 
HETATM    5  N   UNL     1      26.830  40.447  51.752  1.00  0.00    -0.308 N 
HETATM    6  C   UNL     1      26.479  40.207  50.457  1.00  0.00     0.330 C 
HETATM    7  O   UNL     1      26.110  39.074  50.148  1.00  0.00    -0.246 OA
HETATM    8  C   UNL     1      28.004  43.921  51.791  1.00  0.00     0.015 A 
HETATM    9  C   UNL     1      28.699  43.954  53.001  1.00  0.00     0.001 A 
HETATM   10  C   UNL     1      28.733  42.825  53.818  1.00  0.00     0.002 A 
HETATM   11  C   UNL     1      28.083  41.658  53.419  1.00  0.00     0.030 A 
HETATM   12  H   UNL     1      26.882  39.615  52.333  1.00  0.00     0.170 HD
ENDROOT
BRANCH   2  13
HETATM   13  O   UNL     1      27.177  43.534  49.167  1.00  0.00    -0.359 OA
HETATM   14  H   UNL     1      27.664  42.969  48.545  1.00  0.00     0.213 HD
ENDBRANCH   2  13
BRANCH   2  15
HETATM   15  C   UNL     1      25.071  43.185  50.410  1.00  0.00     0.279 C 
HETATM   16  N   UNL     1      24.548  44.167  49.589  1.00  0.00    -0.355 N 
HETATM   17  H   UNL     1      25.243  44.671  49.037  1.00  0.00     0.162 HD
HETATM   18  O   UNL     1      24.366  42.703  51.306  1.00  0.00    -0.268 OA
BRANCH  16  19
HETATM   19  C   UNL     1      23.316  44.900  49.872  1.00  0.00     0.150 C 
BRANCH  19  20
HETATM   20  C   UNL     1      22.163  44.759  48.848  1.00  0.00     0.254 C 
BRANCH  20  21
HETATM   21  N   UNL     1      21.808  46.049  48.153  1.00  0.00    -0.067 N 
HETATM   22  H   UNL     1      22.110  45.934  47.162  1.00  0.00     0.280 HD
HETATM   23  C   UNL     1      20.315  46.351  48.061  1.00  0.00     0.254 C 
HETATM   24  C   UNL     1      20.076  47.588  47.167  1.00  0.00     0.150 C 
HETATM   25  N   UNL     1      20.843  48.743  47.671  1.00  0.00    -0.378 N 
HETATM   26  C   UNL     1      22.286  48.508  47.842  1.00  0.00     0.150 C 
HETATM   27  C   UNL     1      22.560  47.256  48.704  1.00  0.00     0.254 C 
BRANCH  25  28
HETATM   28  C   UNL     1      20.163  49.722  48.387  1.00  0.00     0.030 A 
HETATM   29  C   UNL     1      19.386  49.446  49.520  1.00  0.00     0.029 A 
HETATM   30  C   UNL     1      18.723  50.463  50.223  1.00  0.00     0.002 A 
HETATM   31  C   UNL     1      18.834  51.786  49.814  1.00  0.00     0.000 A 
HETATM   32  C   UNL     1      19.612  52.094  48.707  1.00  0.00     0.002 A 
HETATM   33  C   UNL     1      20.268  51.073  48.009  1.00  0.00     0.029 A 
ENDBRANCH  25  28
ENDBRANCH  20  21
ENDBRANCH  19  20
ENDBRANCH  16  19
ENDBRANCH   2  15
BRANCH   1  34
HETATM   34  C   UNL     1      26.688  41.006  48.168  1.00  0.00     0.076 A 
HETATM   35  C   UNL     1      25.615  40.985  47.257  1.00  0.00     0.098 A 
HETATM   36  C   UNL     1      25.852  40.904  45.874  1.00  0.00     0.075 A 
HETATM   37  C   UNL     1      27.154  40.786  45.389  1.00  0.00     0.070 A 
HETATM   38  C   UNL     1      28.212  40.708  46.289  1.00  0.00     0.039 A 
HETATM   39  C   UNL     1      27.984  40.817  47.663  1.00  0.00     0.035 A 
BRANCH  35  40
HETATM   40  O   UNL     1      24.337  41.077  47.763  1.00  0.00    -0.354 OA
HETATM   41  C   UNL     1      23.458  41.840  46.931  1.00  0.00     0.210 C 
ENDBRANCH  35  40
BRANCH  37  42
HETATM   42  O   UNL     1      27.515  40.722  44.073  1.00  0.00    -0.356 OA
HETATM   43  C   UNL     1      28.882  40.972  43.768  1.00  0.00     0.210 C 
ENDBRANCH  37  42
ENDBRANCH   1  34
TORSDOF 9
ENDMDL
MODEL 4
REMARK VINA RESULT:      -8.9     13.121     16.855
REMARK  9 active torsions:
REMARK  status: ('A' for Active; 'I' for Inactive)
REMARK    1  A    between atoms: O_2  and  C_3 
REMARK    2  A    between atoms: C_5  and  O_6 
REMARK    3  A    between atoms: C_8  and  N_9 
REMARK    4  A    between atoms: C_10  and  O_11 
REMARK    5  A    between atoms: C_10  and  C_12 
REMARK       I    between atoms: C_12  and  N_13 
REMARK    6  A    between atoms: N_13  and  C_14 
REMARK    7  A    between atoms: C_14  and  C_15 
REMARK    8  A    between atoms: C_15  and  N_16 
REMARK    9  A    between atoms: N_20  and  C_21 
ROOT
HETATM    1  N   UNL     1      35.215  51.379  41.828  1.00  0.00    -0.251 N 
HETATM    2  C   UNL     1      33.779  51.570  42.067  1.00  0.00     0.256 C 
HETATM    3  C   UNL     1      33.048  50.239  42.126  1.00  0.00     0.034 A 
HETATM    4  C   UNL     1      33.555  49.185  41.374  1.00  0.00     0.048 A 
HETATM    5  N   UNL     1      34.758  49.367  40.703  1.00  0.00    -0.308 N 
HETATM    6  C   UNL     1      35.638  50.373  40.972  1.00  0.00     0.330 C 
HETATM    7  O   UNL     1      36.741  50.350  40.426  1.00  0.00    -0.246 OA
HETATM    8  C   UNL     1      31.862  50.037  42.852  1.00  0.00     0.015 A 
HETATM    9  C   UNL     1      31.219  48.798  42.826  1.00  0.00     0.001 A 
HETATM   10  C   UNL     1      31.736  47.760  42.053  1.00  0.00     0.002 A 
HETATM   11  C   UNL     1      32.903  47.954  41.316  1.00  0.00     0.030 A 
HETATM   12  H   UNL     1      35.151  48.600  40.166  1.00  0.00     0.170 HD
ENDROOT
BRANCH   2  13
HETATM   13  O   UNL     1      33.555  52.186  43.338  1.00  0.00    -0.359 OA
HETATM   14  H   UNL     1      32.701  51.846  43.652  1.00  0.00     0.213 HD
ENDBRANCH   2  13
BRANCH   2  15
HETATM   15  C   UNL     1      33.086  52.456  40.928  1.00  0.00     0.279 C 
HETATM   16  N   UNL     1      31.851  53.016  41.203  1.00  0.00    -0.355 N 
HETATM   17  H   UNL     1      31.356  52.585  41.983  1.00  0.00     0.162 HD
HETATM   18  O   UNL     1      33.646  52.716  39.855  1.00  0.00    -0.268 OA
BRANCH  16  19
HETATM   19  C   UNL     1      31.007  53.668  40.204  1.00  0.00     0.150 C 
BRANCH  19  20
HETATM   20  C   UNL     1      29.509  53.839  40.553  1.00  0.00     0.254 C 
BRANCH  20  21
HETATM   21  N   UNL     1      28.667  52.634  40.218  1.00  0.00    -0.067 N 
HETATM   22  H   UNL     1      27.705  52.996  40.045  1.00  0.00     0.280 HD
HETATM   23  C   UNL     1      29.040  51.915  38.925  1.00  0.00     0.254 C 
HETATM   24  C   UNL     1      27.993  50.827  38.600  1.00  0.00     0.150 C 
HETATM   25  N   UNL     1      27.853  49.891  39.731  1.00  0.00    -0.378 N 
HETATM   26  C   UNL     1      27.549  50.520  41.027  1.00  0.00     0.150 C 
HETATM   27  C   UNL     1      28.560  51.637  41.368  1.00  0.00     0.254 C 
BRANCH  25  28
HETATM   28  C   UNL     1      28.470  48.649  39.638  1.00  0.00     0.030 A 
HETATM   29  C   UNL     1      28.015  47.512  40.319  1.00  0.00     0.029 A 
HETATM   30  C   UNL     1      28.658  46.272  40.192  1.00  0.00     0.002 A 
HETATM   31  C   UNL     1      29.767  46.138  39.366  1.00  0.00     0.000 A 
HETATM   32  C   UNL     1      30.231  47.241  38.664  1.00  0.00     0.002 A 
HETATM   33  C   UNL     1      29.586  48.476  38.799  1.00  0.00     0.029 A 
ENDBRANCH  25  28
ENDBRANCH  20  21
ENDBRANCH  19  20
ENDBRANCH  16  19
ENDBRANCH   2  15
BRANCH   1  34
HETATM   34  C   UNL     1      36.200  52.146  42.541  1.00  0.00     0.076 A 
HETATM   35  C   UNL     1      36.700  53.383  42.091  1.00  0.00     0.098 A 
HETATM   36  C   UNL     1      37.516  54.168  42.922  1.00  0.00     0.075 A 
HETATM   37  C   UNL     1      37.889  53.706  44.184  1.00  0.00     0.070 A 
HETATM   38  C   UNL     1      37.477  52.442  44.595  1.00  0.00     0.039 A 
HETATM   39  C   UNL     1      36.642  51.670  43.785  1.00  0.00     0.035 A 
BRANCH  35  40
HETATM   40  O   UNL     1      36.339  53.806  40.831  1.00  0.00    -0.354 OA
HETATM   41  C   UNL     1      37.408  53.724  39.883  1.00  0.00     0.210 C 
ENDBRANCH  35  40
BRANCH  37  42
HETATM   42  O   UNL     1      38.657  54.382  45.090  1.00  0.00    -0.356 OA
HETATM   43  C   UNL     1      38.058  54.678  46.346  1.00  0.00     0.210 C 
ENDBRANCH  37  42
ENDBRANCH   1  34
TORSDOF 9
ENDMDL
MODEL 5
REMARK VINA RESULT:      -8.8      3.250      6.586
REMARK  9 active torsions:
REMARK  status: ('A' for Active; 'I' for Inactive)
REMARK    1  A    between atoms: O_2  and  C_3 
REMARK    2  A    between atoms: C_5  and  O_6 
REMARK    3  A    between atoms: C_8  and  N_9 
REMARK    4  A    between atoms: C_10  and  O_11 
REMARK    5  A    between atoms: C_10  and  C_12 
REMARK       I    between atoms: C_12  and  N_13 
REMARK    6  A    between atoms: N_13  and  C_14 
REMARK    7  A    between atoms: C_14  and  C_15 
REMARK    8  A    between atoms: C_15  and  N_16 
REMARK    9  A    between atoms: N_20  and  C_21 
ROOT
HETATM    1  N   UNL     1      21.815  45.209  46.979  1.00  0.00    -0.251 N 
HETATM    2  C   UNL     1      21.458  45.991  48.170  1.00  0.00     0.256 C 
HETATM    3  C   UNL     1      20.191  46.798  47.942  1.00  0.00     0.034 A 
HETATM    4  C   UNL     1      19.918  47.227  46.648  1.00  0.00     0.048 A 
HETATM    5  N   UNL     1      20.749  46.802  45.618  1.00  0.00    -0.308 N 
HETATM    6  C   UNL     1      21.615  45.754  45.720  1.00  0.00     0.330 C 
HETATM    7  O   UNL     1      22.190  45.367  44.703  1.00  0.00    -0.246 OA
HETATM    8  C   UNL     1      19.317  47.179  48.974  1.00  0.00     0.015 A 
HETATM    9  C   UNL     1      18.193  47.959  48.698  1.00  0.00     0.001 A 
HETATM   10  C   UNL     1      17.946  48.391  47.396  1.00  0.00     0.002 A 
HETATM   11  C   UNL     1      18.815  48.033  46.367  1.00  0.00     0.030 A 
HETATM   12  H   UNL     1      20.551  47.090  44.665  1.00  0.00     0.170 HD
ENDROOT
BRANCH   2  13
HETATM   13  O   UNL     1      21.169  45.129  49.273  1.00  0.00    -0.359 OA
HETATM   14  H   UNL     1      21.755  44.361  49.173  1.00  0.00     0.213 HD
ENDBRANCH   2  13
BRANCH   2  15
HETATM   15  C   UNL     1      22.615  47.012  48.595  1.00  0.00     0.279 C 
HETATM   16  N   UNL     1      23.472  46.635  49.614  1.00  0.00    -0.355 N 
HETATM   17  H   UNL     1      23.122  45.879  50.202  1.00  0.00     0.162 HD
HETATM   18  O   UNL     1      22.814  48.078  47.998  1.00  0.00    -0.268 OA
BRANCH  16  19
HETATM   19  C   UNL     1      24.434  47.533  50.249  1.00  0.00     0.150 C 
BRANCH  19  20
HETATM   20  C   UNL     1      25.851  46.970  50.516  1.00  0.00     0.254 C 
BRANCH  20  21
HETATM   21  N   UNL     1      25.955  46.164  51.785  1.00  0.00    -0.067 N 
HETATM   22  H   UNL     1      24.992  45.823  51.988  1.00  0.00     0.280 HD
HETATM   23  C   UNL     1      26.794  44.893  51.686  1.00  0.00     0.254 C 
HETATM   24  C   UNL     1      26.664  44.066  52.984  1.00  0.00     0.150 C 
HETATM   25  N   UNL     1      27.036  44.883  54.154  1.00  0.00    -0.378 N 
HETATM   26  C   UNL     1      26.308  46.156  54.285  1.00  0.00     0.150 C 
HETATM   27  C   UNL     1      26.390  46.993  52.990  1.00  0.00     0.254 C 
BRANCH  25  28
HETATM   28  C   UNL     1      28.290  44.688  54.721  1.00  0.00     0.030 A 
HETATM   29  C   UNL     1      28.869  45.580  55.634  1.00  0.00     0.029 A 
HETATM   30  C   UNL     1      30.133  45.344  56.194  1.00  0.00     0.002 A 
HETATM   31  C   UNL     1      30.844  44.196  55.863  1.00  0.00     0.000 A 
HETATM   32  C   UNL     1      30.289  43.284  54.976  1.00  0.00     0.002 A 
HETATM   33  C   UNL     1      29.029  43.529  54.419  1.00  0.00     0.029 A 
ENDBRANCH  25  28
ENDBRANCH  20  21
ENDBRANCH  19  20
ENDBRANCH  16  19
ENDBRANCH   2  15
BRANCH   1  34
HETATM   34  C   UNL     1      22.270  43.851  47.086  1.00  0.00     0.076 A 
HETATM   35  C   UNL     1      21.473  42.734  46.768  1.00  0.00     0.098 A 
HETATM   36  C   UNL     1      22.035  41.447  46.714  1.00  0.00     0.075 A 
HETATM   37  C   UNL     1      23.379  41.252  47.030  1.00  0.00     0.070 A 
HETATM   38  C   UNL     1      24.147  42.337  47.439  1.00  0.00     0.039 A 
HETATM   39  C   UNL     1      23.601  43.622  47.467  1.00  0.00     0.035 A 
BRANCH  35  40
HETATM   40  O   UNL     1      20.143  42.950  46.485  1.00  0.00    -0.354 OA
HETATM   41  C   UNL     1      19.785  42.577  45.151  1.00  0.00     0.210 C 
ENDBRANCH  35  40
BRANCH  37  42
HETATM   42  O   UNL     1      24.045  40.059  46.993  1.00  0.00    -0.356 OA
HETATM   43  C   UNL     1      25.257  39.976  47.733  1.00  0.00     0.210 C 
ENDBRANCH  37  42
ENDBRANCH   1  34
TORSDOF 9
ENDMDL
MODEL 6
REMARK VINA RESULT:      -8.6     12.374     16.554
REMARK  9 active torsions:
REMARK  status: ('A' for Active; 'I' for Inactive)
REMARK    1  A    between atoms: O_2  and  C_3 
REMARK    2  A    between atoms: C_5  and  O_6 
REMARK    3  A    between atoms: C_8  and  N_9 
REMARK    4  A    between atoms: C_10  and  O_11 
REMARK    5  A    between atoms: C_10  and  C_12 
REMARK       I    between atoms: C_12  and  N_13 
REMARK    6  A    between atoms: N_13  and  C_14 
REMARK    7  A    between atoms: C_14  and  C_15 
REMARK    8  A    between atoms: C_15  and  N_16 
REMARK    9  A    between atoms: N_20  and  C_21 
ROOT
HETATM    1  N   UNL     1      32.743  51.273  41.000  1.00  0.00    -0.251 N 
HETATM    2  C   UNL     1      32.002  50.667  39.886  1.00  0.00     0.256 C 
HETATM    3  C   UNL     1      30.871  51.569  39.420  1.00  0.00     0.034 A 
HETATM    4  C   UNL     1      30.273  52.401  40.361  1.00  0.00     0.048 A 
HETATM    5  N   UNL     1      30.811  52.449  41.642  1.00  0.00    -0.308 N 
HETATM    6  C   UNL     1      32.056  51.996  41.964  1.00  0.00     0.330 C 
HETATM    7  O   UNL     1      32.491  52.228  43.092  1.00  0.00    -0.246 OA
HETATM    8  C   UNL     1      30.364  51.565  38.110  1.00  0.00     0.015 A 
HETATM    9  C   UNL     1      29.293  52.389  37.762  1.00  0.00     0.001 A 
HETATM   10  C   UNL     1      28.699  53.204  38.725  1.00  0.00     0.002 A 
HETATM   11  C   UNL     1      29.182  53.205  40.032  1.00  0.00     0.030 A 
HETATM   12  H   UNL     1      30.398  53.067  42.334  1.00  0.00     0.170 HD
ENDROOT
BRANCH   2  13
HETATM   13  O   UNL     1      32.849  50.499  38.747  1.00  0.00    -0.359 OA
HETATM   14  H   UNL     1      32.605  49.644  38.356  1.00  0.00     0.213 HD
ENDBRANCH   2  13
BRANCH   2  15
HETATM   15  C   UNL     1      31.365  49.252  40.277  1.00  0.00     0.279 C 
HETATM   16  N   UNL     1      31.313  48.272  39.303  1.00  0.00    -0.355 N 
HETATM   17  H   UNL     1      31.411  48.619  38.349  1.00  0.00     0.162 HD
HETATM   18  O   UNL     1      30.995  48.985  41.428  1.00  0.00    -0.268 OA
BRANCH  16  19
HETATM   19  C   UNL     1      30.581  47.015  39.444  1.00  0.00     0.150 C 
BRANCH  19  20
HETATM   20  C   UNL     1      29.367  46.800  38.507  1.00  0.00     0.254 C 
BRANCH  20  21
HETATM   21  N   UNL     1      28.385  47.943  38.514  1.00  0.00    -0.067 N 
HETATM   22  H   UNL     1      28.913  48.777  38.182  1.00  0.00     0.280 HD
HETATM   23  C   UNL     1      27.224  47.812  37.532  1.00  0.00     0.254 C 
HETATM   24  C   UNL     1      26.405  49.122  37.499  1.00  0.00     0.150 C 
HETATM   25  N   UNL     1      25.943  49.474  38.856  1.00  0.00    -0.378 N 
HETATM   26  C   UNL     1      27.004  49.561  39.873  1.00  0.00     0.150 C 
HETATM   27  C   UNL     1      27.864  48.280  39.908  1.00  0.00     0.254 C 
BRANCH  25  28
HETATM   28  C   UNL     1      24.619  49.215  39.188  1.00  0.00     0.030 A 
HETATM   29  C   UNL     1      23.543  49.976  38.710  1.00  0.00     0.029 A 
HETATM   30  C   UNL     1      22.218  49.677  39.059  1.00  0.00     0.002 A 
HETATM   31  C   UNL     1      21.937  48.597  39.886  1.00  0.00     0.000 A 
HETATM   32  C   UNL     1      22.978  47.813  40.361  1.00  0.00     0.002 A 
HETATM   33  C   UNL     1      24.299  48.119  40.011  1.00  0.00     0.029 A 
ENDBRANCH  25  28
ENDBRANCH  20  21
ENDBRANCH  19  20
ENDBRANCH  16  19
ENDBRANCH   2  15
BRANCH   1  34
HETATM   34  C   UNL     1      34.177  51.220  41.060  1.00  0.00     0.076 A 
HETATM   35  C   UNL     1      35.018  52.193  40.485  1.00  0.00     0.098 A 
HETATM   36  C   UNL     1      36.400  52.183  40.740  1.00  0.00     0.075 A 
HETATM   37  C   UNL     1      36.966  51.175  41.519  1.00  0.00     0.070 A 
HETATM   38  C   UNL     1      36.154  50.156  42.009  1.00  0.00     0.039 A 
HETATM   39  C   UNL     1      34.776  50.177  41.783  1.00  0.00     0.035 A 
BRANCH  35  40
HETATM   40  O   UNL     1      34.438  53.163  39.698  1.00  0.00    -0.354 OA
HETATM   41  C   UNL     1      35.381  54.117  39.198  1.00  0.00     0.210 C 
ENDBRANCH  35  40
BRANCH  37  42
HETATM   42  O   UNL     1      38.286  51.068  41.855  1.00  0.00    -0.356 OA
HETATM   43  C   UNL     1      38.594  50.312  43.020  1.00  0.00     0.210 C 
ENDBRANCH  37  42
ENDBRANCH   1  34
TORSDOF 9
ENDMDL
MODEL 7
REMARK VINA RESULT:      -8.6      7.055     10.503
REMARK  9 active torsions:
REMARK  status: ('A' for Active; 'I' for Inactive)
REMARK    1  A    between atoms: O_2  and  C_3 
REMARK    2  A    between atoms: C_5  and  O_6 
REMARK    3  A    between atoms: C_8  and  N_9 
REMARK    4  A    between atoms: C_10  and  O_11 
REMARK    5  A    between atoms: C_10  and  C_12 
REMARK       I    between atoms: C_12  and  N_13 
REMARK    6  A    between atoms: N_13  and  C_14 
REMARK    7  A    between atoms: C_14  and  C_15 
REMARK    8  A    between atoms: C_15  and  N_16 
REMARK    9  A    between atoms: N_20  and  C_21 
ROOT
HETATM    1  N   UNL     1      26.663  39.888  45.797  1.00  0.00    -0.251 N 
HETATM    2  C   UNL     1      26.832  40.557  47.093  1.00  0.00     0.256 C 
HETATM    3  C   UNL     1      27.462  39.627  48.116  1.00  0.00     0.034 A 
HETATM    4  C   UNL     1      27.211  38.264  47.997  1.00  0.00     0.048 A 
HETATM    5  N   UNL     1      26.499  37.815  46.892  1.00  0.00    -0.308 N 
HETATM    6  C   UNL     1      26.299  38.550  45.761  1.00  0.00     0.330 C 
HETATM    7  O   UNL     1      25.789  38.000  44.785  1.00  0.00    -0.246 OA
HETATM    8  C   UNL     1      28.232  40.076  49.202  1.00  0.00     0.015 A 
HETATM    9  C   UNL     1      28.744  39.167  50.130  1.00  0.00     0.001 A 
HETATM   10  C   UNL     1      28.468  37.807  50.000  1.00  0.00     0.002 A 
HETATM   11  C   UNL     1      27.691  37.352  48.936  1.00  0.00     0.030 A 
HETATM   12  H   UNL     1      26.325  36.820  46.780  1.00  0.00     0.170 HD
ENDROOT
BRANCH   2  13
HETATM   13  O   UNL     1      27.731  41.663  46.978  1.00  0.00    -0.359 OA
HETATM   14  H   UNL     1      27.471  42.292  47.670  1.00  0.00     0.213 HD
ENDBRANCH   2  13
BRANCH   2  15
HETATM   15  C   UNL     1      25.443  41.075  47.696  1.00  0.00     0.279 C 
HETATM   16  N   UNL     1      25.298  42.432  47.922  1.00  0.00    -0.355 N 
HETATM   17  H   UNL     1      26.176  42.949  47.964  1.00  0.00     0.162 HD
HETATM   18  O   UNL     1      24.480  40.321  47.890  1.00  0.00    -0.268 OA
BRANCH  16  19
HETATM   19  C   UNL     1      24.182  43.026  48.654  1.00  0.00     0.150 C 
BRANCH  19  20
HETATM   20  C   UNL     1      24.275  44.538  48.974  1.00  0.00     0.254 C 
BRANCH  20  21
HETATM   21  N   UNL     1      24.816  44.835  50.349  1.00  0.00    -0.067 N 
HETATM   22  H   UNL     1      24.115  45.457  50.805  1.00  0.00     0.280 HD
HETATM   23  C   UNL     1      24.921  43.633  51.284  1.00  0.00     0.254 C 
HETATM   24  C   UNL     1      25.301  44.097  52.707  1.00  0.00     0.150 C 
HETATM   25  N   UNL     1      26.549  44.884  52.676  1.00  0.00    -0.378 N 
HETATM   26  C   UNL     1      26.543  46.028  51.751  1.00  0.00     0.150 C 
HETATM   27  C   UNL     1      26.134  45.604  50.324  1.00  0.00     0.254 C 
BRANCH  25  28
HETATM   28  C   UNL     1      27.727  44.265  53.080  1.00  0.00     0.030 A 
HETATM   29  C   UNL     1      28.503  43.463  52.232  1.00  0.00     0.029 A 
HETATM   30  C   UNL     1      29.693  42.863  52.672  1.00  0.00     0.002 A 
HETATM   31  C   UNL     1      30.141  43.064  53.972  1.00  0.00     0.000 A 
HETATM   32  C   UNL     1      29.404  43.868  54.829  1.00  0.00     0.002 A 
HETATM   33  C   UNL     1      28.216  44.461  54.384  1.00  0.00     0.029 A 
ENDBRANCH  25  28
ENDBRANCH  20  21
ENDBRANCH  19  20
ENDBRANCH  16  19
ENDBRANCH   2  15
BRANCH   1  34
HETATM   34  C   UNL     1      26.964  40.561  44.563  1.00  0.00     0.076 A 
HETATM   35  C   UNL     1      26.051  41.388  43.883  1.00  0.00     0.098 A 
HETATM   36  C   UNL     1      26.467  42.164  42.787  1.00  0.00     0.075 A 
HETATM   37  C   UNL     1      27.780  42.079  42.323  1.00  0.00     0.070 A 
HETATM   38  C   UNL     1      28.661  41.191  42.932  1.00  0.00     0.039 A 
HETATM   39  C   UNL     1      28.260  40.440  44.039  1.00  0.00     0.035 A 
BRANCH  35  40
HETATM   40  O   UNL     1      24.754  41.434  44.344  1.00  0.00    -0.354 OA
HETATM   41  C   UNL     1      24.182  42.745  44.283  1.00  0.00     0.210 C 
ENDBRANCH  35  40
BRANCH  37  42
HETATM   42  O   UNL     1      28.310  42.794  41.287  1.00  0.00    -0.356 OA
HETATM   43  C   UNL     1      27.395  43.320  40.333  1.00  0.00     0.210 C 
ENDBRANCH  37  42
ENDBRANCH   1  34
TORSDOF 9
ENDMDL
MODEL 8
REMARK VINA RESULT:      -8.5      5.345     11.638
REMARK  9 active torsions:
REMARK  status: ('A' for Active; 'I' for Inactive)
REMARK    1  A    between atoms: O_2  and  C_3 
REMARK    2  A    between atoms: C_5  and  O_6 
REMARK    3  A    between atoms: C_8  and  N_9 
REMARK    4  A    between atoms: C_10  and  O_11 
REMARK    5  A    between atoms: C_10  and  C_12 
REMARK       I    between atoms: C_12  and  N_13 
REMARK    6  A    between atoms: N_13  and  C_14 
REMARK    7  A    between atoms: C_14  and  C_15 
REMARK    8  A    between atoms: C_15  and  N_16 
REMARK    9  A    between atoms: N_20  and  C_21 
ROOT
HETATM    1  N   UNL     1      26.373  41.344  49.526  1.00  0.00    -0.251 N 
HETATM    2  C   UNL     1      26.319  42.723  50.026  1.00  0.00     0.256 C 
HETATM    3  C   UNL     1      27.100  42.871  51.321  1.00  0.00     0.034 A 
HETATM    4  C   UNL     1      27.182  41.766  52.161  1.00  0.00     0.048 A 
HETATM    5  N   UNL     1      26.649  40.559  51.724  1.00  0.00    -0.308 N 
HETATM    6  C   UNL     1      26.337  40.289  50.425  1.00  0.00     0.330 C 
HETATM    7  O   UNL     1      26.017  39.139  50.126  1.00  0.00    -0.246 OA
HETATM    8  C   UNL     1      27.691  44.076  51.737  1.00  0.00     0.015 A 
HETATM    9  C   UNL     1      28.357  44.152  52.962  1.00  0.00     0.001 A 
HETATM   10  C   UNL     1      28.414  43.036  53.796  1.00  0.00     0.002 A 
HETATM   11  C   UNL     1      27.818  41.840  53.401  1.00  0.00     0.030 A 
HETATM   12  H   UNL     1      26.719  39.738  52.318  1.00  0.00     0.170 HD
ENDROOT
BRANCH   2  13
HETATM   13  O   UNL     1      26.938  43.621  49.102  1.00  0.00    -0.359 OA
HETATM   14  H   UNL     1      27.662  43.123  48.690  1.00  0.00     0.213 HD
ENDBRANCH   2  13
BRANCH   2  15
HETATM   15  C   UNL     1      24.820  43.210  50.304  1.00  0.00     0.279 C 
HETATM   16  N   UNL     1      24.139  43.835  49.274  1.00  0.00    -0.355 N 
HETATM   17  H   UNL     1      24.736  44.193  48.529  1.00  0.00     0.162 HD
HETATM   18  O   UNL     1      24.232  42.980  51.369  1.00  0.00    -0.268 OA
BRANCH  16  19
HETATM   19  C   UNL     1      22.855  44.514  49.435  1.00  0.00     0.150 C 
BRANCH  19  20
HETATM   20  C   UNL     1      22.487  45.582  48.376  1.00  0.00     0.254 C 
BRANCH  20  21
HETATM   21  N   UNL     1      21.756  46.772  48.943  1.00  0.00    -0.067 N 
HETATM   22  H   UNL     1      21.928  46.752  49.970  1.00  0.00     0.280 HD
HETATM   23  C   UNL     1      22.280  48.134  48.497  1.00  0.00     0.254 C 
HETATM   24  C   UNL     1      21.579  49.260  49.289  1.00  0.00     0.150 C 
HETATM   25  N   UNL     1      20.114  49.157  49.143  1.00  0.00    -0.378 N 
HETATM   26  C   UNL     1      19.542  47.849  49.500  1.00  0.00     0.150 C 
HETATM   27  C   UNL     1      20.244  46.697  48.750  1.00  0.00     0.254 C 
BRANCH  25  28
HETATM   28  C   UNL     1      19.478  50.029  48.267  1.00  0.00     0.030 A 
HETATM   29  C   UNL     1      19.080  51.324  48.626  1.00  0.00     0.029 A 
HETATM   30  C   UNL     1      18.450  52.181  47.711  1.00  0.00     0.002 A 
HETATM   31  C   UNL     1      18.214  51.763  46.407  1.00  0.00     0.000 A 
HETATM   32  C   UNL     1      18.612  50.493  46.016  1.00  0.00     0.002 A 
HETATM   33  C   UNL     1      19.238  49.643  46.935  1.00  0.00     0.029 A 
ENDBRANCH  25  28
ENDBRANCH  20  21
ENDBRANCH  19  20
ENDBRANCH  16  19
ENDBRANCH   2  15
BRANCH   1  34
HETATM   34  C   UNL     1      26.567  41.062  48.130  1.00  0.00     0.076 A 
HETATM   35  C   UNL     1      27.785  40.610  47.588  1.00  0.00     0.098 A 
HETATM   36  C   UNL     1      27.856  40.175  46.254  1.00  0.00     0.075 A 
HETATM   37  C   UNL     1      26.732  40.240  45.431  1.00  0.00     0.070 A 
HETATM   38  C   UNL     1      25.551  40.777  45.934  1.00  0.00     0.039 A 
HETATM   39  C   UNL     1      25.467  41.183  47.267  1.00  0.00     0.035 A 
BRANCH  35  40
HETATM   40  O   UNL     1      28.887  40.579  48.413  1.00  0.00    -0.354 OA
HETATM   41  C   UNL     1      29.274  39.252  48.785  1.00  0.00     0.210 C 
ENDBRANCH  35  40
BRANCH  37  42
HETATM   42  O   UNL     1      26.667  39.829  44.130  1.00  0.00    -0.356 OA
HETATM   43  C   UNL     1      27.471  40.534  43.191  1.00  0.00     0.210 C 
ENDBRANCH  37  42
ENDBRANCH   1  34
TORSDOF 9
ENDMDL
MODEL 9
REMARK VINA RESULT:      -8.2      4.642     10.470
REMARK  9 active torsions:
REMARK  status: ('A' for Active; 'I' for Inactive)
REMARK    1  A    between atoms: O_2  and  C_3 
REMARK    2  A    between atoms: C_5  and  O_6 
REMARK    3  A    between atoms: C_8  and  N_9 
REMARK    4  A    between atoms: C_10  and  O_11 
REMARK    5  A    between atoms: C_10  and  C_12 
REMARK       I    between atoms: C_12  and  N_13 
REMARK    6  A    between atoms: N_13  and  C_14 
REMARK    7  A    between atoms: C_14  and  C_15 
REMARK    8  A    between atoms: C_15  and  N_16 
REMARK    9  A    between atoms: N_20  and  C_21 
ROOT
HETATM    1  N   UNL     1      18.890  50.181  48.681  1.00  0.00    -0.251 N 
HETATM    2  C   UNL     1      17.972  50.249  47.537  1.00  0.00     0.256 C 
HETATM    3  C   UNL     1      16.908  51.313  47.747  1.00  0.00     0.034 A 
HETATM    4  C   UNL     1      16.511  51.588  49.051  1.00  0.00     0.048 A 
HETATM    5  N   UNL     1      17.184  50.964  50.095  1.00  0.00    -0.308 N 
HETATM    6  C   UNL     1      18.397  50.355  49.965  1.00  0.00     0.330 C 
HETATM    7  O   UNL     1      18.972  49.971  50.983  1.00  0.00    -0.246 OA
HETATM    8  C   UNL     1      16.267  51.988  46.694  1.00  0.00     0.015 A 
HETATM    9  C   UNL     1      15.266  52.924  46.958  1.00  0.00     0.001 A 
HETATM   10  C   UNL     1      14.873  53.173  48.272  1.00  0.00     0.002 A 
HETATM   11  C   UNL     1      15.489  52.498  49.324  1.00  0.00     0.030 A 
HETATM   12  H   UNL     1      16.919  51.171  51.053  1.00  0.00     0.170 HD
ENDROOT
BRANCH   2  13
HETATM   13  O   UNL     1      18.669  50.635  46.350  1.00  0.00    -0.359 OA
HETATM   14  H   UNL     1      19.013  51.527  46.521  1.00  0.00     0.213 HD
ENDBRANCH   2  13
BRANCH   2  15
HETATM   15  C   UNL     1      17.224  48.858  47.275  1.00  0.00     0.279 C 
HETATM   16  N   UNL     1      17.791  47.977  46.371  1.00  0.00    -0.355 N 
HETATM   17  H   UNL     1      18.468  48.400  45.736  1.00  0.00     0.162 HD
HETATM   18  O   UNL     1      16.213  48.518  47.902  1.00  0.00    -0.268 OA
BRANCH  16  19
HETATM   19  C   UNL     1      17.126  46.774  45.875  1.00  0.00     0.150 C 
BRANCH  19  20
HETATM   20  C   UNL     1      17.353  46.410  44.387  1.00  0.00     0.254 C 
BRANCH  20  21
HETATM   21  N   UNL     1      16.851  47.455  43.424  1.00  0.00    -0.067 N 
HETATM   22  H   UNL     1      16.573  46.940  42.561  1.00  0.00     0.280 HD
HETATM   23  C   UNL     1      15.582  48.186  43.855  1.00  0.00     0.254 C 
HETATM   24  C   UNL     1      15.069  49.083  42.707  1.00  0.00     0.150 C 
HETATM   25  N   UNL     1      16.125  50.018  42.273  1.00  0.00    -0.378 N 
HETATM   26  C   UNL     1      17.400  49.388  41.896  1.00  0.00     0.150 C 
HETATM   27  C   UNL     1      17.925  48.456  43.009  1.00  0.00     0.254 C 
BRANCH  25  28
HETATM   28  C   UNL     1      16.049  51.339  42.699  1.00  0.00     0.030 A 
HETATM   29  C   UNL     1      17.178  52.132  42.946  1.00  0.00     0.029 A 
HETATM   30  C   UNL     1      17.063  53.466  43.365  1.00  0.00     0.002 A 
HETATM   31  C   UNL     1      15.810  54.043  43.534  1.00  0.00     0.000 A 
HETATM   32  C   UNL     1      14.674  53.289  43.280  1.00  0.00     0.002 A 
HETATM   33  C   UNL     1      14.797  51.958  42.865  1.00  0.00     0.029 A 
ENDBRANCH  25  28
ENDBRANCH  20  21
ENDBRANCH  19  20
ENDBRANCH  16  19
ENDBRANCH   2  15
BRANCH   1  34
HETATM   34  C   UNL     1      20.308  50.041  48.493  1.00  0.00     0.076 A 
HETATM   35  C   UNL     1      20.944  48.808  48.254  1.00  0.00     0.098 A 
HETATM   36  C   UNL     1      22.301  48.762  47.893  1.00  0.00     0.075 A 
HETATM   37  C   UNL     1      23.052  49.935  47.823  1.00  0.00     0.070 A 
HETATM   38  C   UNL     1      22.453  51.147  48.153  1.00  0.00     0.039 A 
HETATM   39  C   UNL     1      21.097  51.201  48.484  1.00  0.00     0.035 A 
BRANCH  35  40
HETATM   40  O   UNL     1      20.188  47.661  48.354  1.00  0.00    -0.354 OA
HETATM   41  C   UNL     1      20.796  46.530  47.722  1.00  0.00     0.210 C 
ENDBRANCH  35  40
BRANCH  37  42
HETATM   42  O   UNL     1      24.367  50.025  47.464  1.00  0.00    -0.356 OA
HETATM   43  C   UNL     1      25.330  49.711  48.464  1.00  0.00     0.210 C 
ENDBRANCH  37  42
ENDBRANCH   1  34
TORSDOF 9
ENDMDL
MODEL 10
REMARK VINA RESULT:      -8.2      7.726     10.773
REMARK  9 active torsions:
REMARK  status: ('A' for Active; 'I' for Inactive)
REMARK    1  A    between atoms: O_2  and  C_3 
REMARK    2  A    between atoms: C_5  and  O_6 
REMARK    3  A    between atoms: C_8  and  N_9 
REMARK    4  A    between atoms: C_10  and  O_11 
REMARK    5  A    between atoms: C_10  and  C_12 
REMARK       I    between atoms: C_12  and  N_13 
REMARK    6  A    between atoms: N_13  and  C_14 
REMARK    7  A    between atoms: C_14  and  C_15 
REMARK    8  A    between atoms: C_15  and  N_16 
REMARK    9  A    between atoms: N_20  and  C_21 
ROOT
HETATM    1  N   UNL     1      26.454  39.988  46.031  1.00  0.00    -0.251 N 
HETATM    2  C   UNL     1      26.982  40.598  47.259  1.00  0.00     0.256 C 
HETATM    3  C   UNL     1      27.579  39.551  48.183  1.00  0.00     0.034 A 
HETATM    4  C   UNL     1      27.039  38.270  48.149  1.00  0.00     0.048 A 
HETATM    5  N   UNL     1      26.067  37.984  47.198  1.00  0.00    -0.308 N 
HETATM    6  C   UNL     1      25.826  38.754  46.098  1.00  0.00     0.330 C 
HETATM    7  O   UNL     1      25.050  38.328  45.243  1.00  0.00    -0.246 OA
HETATM    8  C   UNL     1      28.604  39.823  49.105  1.00  0.00     0.015 A 
HETATM    9  C   UNL     1      29.075  38.822  49.955  1.00  0.00     0.001 A 
HETATM   10  C   UNL     1      28.510  37.548  49.915  1.00  0.00     0.002 A 
HETATM   11  C   UNL     1      27.481  37.271  49.016  1.00  0.00     0.030 A 
HETATM   12  H   UNL     1      25.677  37.048  47.147  1.00  0.00     0.170 HD
ENDROOT
BRANCH   2  13
HETATM   13  O   UNL     1      28.052  41.497  46.957  1.00  0.00    -0.359 OA
HETATM   14  H   UNL     1      28.539  41.094  46.219  1.00  0.00     0.213 HD
ENDBRANCH   2  13
BRANCH   2  15
HETATM   15  C   UNL     1      25.855  41.386  48.079  1.00  0.00     0.279 C 
HETATM   16  N   UNL     1      26.111  42.697  48.438  1.00  0.00    -0.355 N 
HETATM   17  H   UNL     1      27.096  42.959  48.410  1.00  0.00     0.162 HD
HETATM   18  O   UNL     1      24.748  40.892  48.331  1.00  0.00    -0.268 OA
BRANCH  16  19
HETATM   19  C   UNL     1      25.279  43.471  49.357  1.00  0.00     0.150 C 
BRANCH  19  20
HETATM   20  C   UNL     1      25.943  44.684  50.054  1.00  0.00     0.254 C 
BRANCH  20  21
HETATM   21  N   UNL     1      26.064  44.533  51.549  1.00  0.00    -0.067 N 
HETATM   22  H   UNL     1      25.099  44.359  51.899  1.00  0.00     0.280 HD
HETATM   23  C   UNL     1      26.863  43.321  52.021  1.00  0.00     0.254 C 
HETATM   24  C   UNL     1      26.752  43.174  53.554  1.00  0.00     0.150 C 
HETATM   25  N   UNL     1      27.185  44.416  54.223  1.00  0.00    -0.378 N 
HETATM   26  C   UNL     1      26.498  45.638  53.777  1.00  0.00     0.150 C 
HETATM   27  C   UNL     1      26.561  45.798  52.243  1.00  0.00     0.254 C 
BRANCH  25  28
HETATM   28  C   UNL     1      28.451  44.446  54.797  1.00  0.00     0.030 A 
HETATM   29  C   UNL     1      28.915  45.513  55.579  1.00  0.00     0.029 A 
HETATM   30  C   UNL     1      30.195  45.504  56.152  1.00  0.00     0.002 A 
HETATM   31  C   UNL     1      31.039  44.416  55.965  1.00  0.00     0.000 A 
HETATM   32  C   UNL     1      30.602  43.336  55.212  1.00  0.00     0.002 A 
HETATM   33  C   UNL     1      29.324  43.354  54.641  1.00  0.00     0.029 A 
ENDBRANCH  25  28
ENDBRANCH  20  21
ENDBRANCH  19  20
ENDBRANCH  16  19
ENDBRANCH   2  15
BRANCH   1  34
HETATM   34  C   UNL     1      26.664  40.594  44.746  1.00  0.00     0.076 A 
HETATM   35  C   UNL     1      27.759  40.295  43.913  1.00  0.00     0.098 A 
HETATM   36  C   UNL     1      27.807  40.777  42.594  1.00  0.00     0.075 A 
HETATM   37  C   UNL     1      26.796  41.608  42.111  1.00  0.00     0.070 A 
HETATM   38  C   UNL     1      25.761  41.986  42.961  1.00  0.00     0.039 A 
HETATM   39  C   UNL     1      25.694  41.486  44.263  1.00  0.00     0.035 A 
BRANCH  35  40
HETATM   40  O   UNL     1      28.757  39.493  44.421  1.00  0.00    -0.354 OA
HETATM   41  C   UNL     1      29.223  38.515  43.487  1.00  0.00     0.210 C 
ENDBRANCH  35  40
BRANCH  37  42
HETATM   42  O   UNL     1      26.718  42.122  40.847  1.00  0.00    -0.356 OA
HETATM   43  C   UNL     1      25.948  43.307  40.681  1.00  0.00     0.210 C 
ENDBRANCH  37  42
ENDBRANCH   1  34
TORSDOF 9
ENDMDL
