MODEL 1
REMARK VINA RESULT:      -9.6      0.000      0.000
REMARK  3 active torsions:
REMARK  status: ('A' for Active; 'I' for Inactive)
REMARK    1  A    between atoms: C_2  and  N_3 
REMARK    2  A    between atoms: C_7  and  N_8 
REMARK    3  A    between atoms: N_8  and  C_9 
ROOT
HETATM    1  N   UNL     1      26.181  46.369  51.028  1.00  0.00    -0.230 N 
HETATM    2  C   UNL     1      26.189  46.489  52.418  1.00  0.00     0.335 A 
HETATM    3  O   UNL     1      25.622  47.349  53.091  1.00  0.00    -0.246 OA
HETATM    4  N   UNL     1      26.861  45.523  53.117  1.00  0.00    -0.294 N 
HETATM    5  C   UNL     1      27.457  44.417  52.601  1.00  0.00     0.114 A 
HETATM    6  C   UNL     1      27.469  44.299  51.271  1.00  0.00     0.123 A 
HETATM    7  C   UNL     1      26.847  45.316  50.401  1.00  0.00     0.259 A 
HETATM    8  O   UNL     1      27.012  45.161  49.191  1.00  0.00    -0.267 OA
HETATM    9  H   UNL     1      26.810  45.637  54.120  1.00  0.00     0.172 HD
ENDROOT
BRANCH   5  10
HETATM   10  N   UNL     1      28.063  43.524  53.458  1.00  0.00    -0.342 N 
HETATM   11  H   UNL     1      28.242  42.613  53.046  1.00  0.00     0.167 HD
BRANCH  10  12
HETATM   12  C   UNL     1      28.939  43.793  54.535  1.00  0.00     0.036 A 
HETATM   13  C   UNL     1      28.671  44.919  55.334  1.00  0.00     0.069 A 
HETATM   14  C   UNL     1      29.527  45.213  56.376  1.00  0.00     0.107 A 
HETATM   15  C   UNL     1      30.634  44.446  56.640  1.00  0.00     0.105 A 
HETATM   16  O   UNL     1      29.396  46.253  57.243  1.00  0.00    -0.323 OA
HETATM   17  O   UNL     1      31.339  44.901  57.709  1.00  0.00    -0.323 OA
HETATM   18  C   UNL     1      30.948  43.348  55.875  1.00  0.00     0.042 A 
HETATM   19  C   UNL     1      30.545  46.043  58.092  1.00  0.00     0.352 A 
HETATM   20  C   UNL     1      30.093  43.027  54.811  1.00  0.00     0.032 A 
ENDBRANCH  10  12
ENDBRANCH   5  10
BRANCH   1  21
HETATM   21  C   UNL     1      25.494  47.360  50.223  1.00  0.00     0.047 A 
HETATM   22  C   UNL     1      26.182  48.422  49.607  1.00  0.00     0.031 A 
HETATM   23  C   UNL     1      25.515  49.383  48.835  1.00  0.00     0.021 A 
HETATM   24  C   UNL     1      24.139  49.299  48.662  1.00  0.00     0.011 A 
HETATM   25  C   UNL     1      23.429  48.264  49.255  1.00  0.00     0.021 A 
HETATM   26 BR   UNL     1      23.237  50.591  47.621  1.00  0.00    -0.051 Br
HETATM   27  C   UNL     1      24.101  47.307  50.027  1.00  0.00     0.031 A 
ENDBRANCH   1  21
TORSDOF 3
ENDMDL
MODEL 2
REMARK VINA RESULT:      -9.2      4.284      9.432
REMARK  3 active torsions:
REMARK  status: ('A' for Active; 'I' for Inactive)
REMARK    1  A    between atoms: C_2  and  N_3 
REMARK    2  A    between atoms: C_7  and  N_8 
REMARK    3  A    between atoms: N_8  and  C_9 
ROOT
HETATM    1  N   UNL     1      25.459  45.955  50.956  1.00  0.00    -0.230 N 
HETATM    2  C   UNL     1      24.265  45.293  50.674  1.00  0.00     0.335 A 
HETATM    3  O   UNL     1      23.895  44.207  51.122  1.00  0.00    -0.246 OA
HETATM    4  N   UNL     1      23.384  45.933  49.845  1.00  0.00    -0.294 N 
HETATM    5  C   UNL     1      23.520  47.182  49.329  1.00  0.00     0.114 A 
HETATM    6  C   UNL     1      24.665  47.821  49.579  1.00  0.00     0.123 A 
HETATM    7  C   UNL     1      25.729  47.204  50.395  1.00  0.00     0.259 A 
HETATM    8  O   UNL     1      26.782  47.837  50.471  1.00  0.00    -0.267 OA
HETATM    9  H   UNL     1      22.522  45.426  49.698  1.00  0.00     0.172 HD
ENDROOT
BRANCH   5  10
HETATM   10  N   UNL     1      22.513  47.690  48.536  1.00  0.00    -0.342 N 
HETATM   11  H   UNL     1      22.008  46.984  48.009  1.00  0.00     0.167 HD
BRANCH  10  12
HETATM   12  C   UNL     1      21.731  48.850  48.741  1.00  0.00     0.036 A 
HETATM   13  C   UNL     1      20.455  48.690  49.310  1.00  0.00     0.069 A 
HETATM   14  C   UNL     1      19.666  49.807  49.497  1.00  0.00     0.107 A 
HETATM   15  C   UNL     1      20.089  51.060  49.131  1.00  0.00     0.105 A 
HETATM   16  O   UNL     1      18.422  49.818  50.046  1.00  0.00    -0.323 OA
HETATM   17  O   UNL     1      19.168  52.021  49.406  1.00  0.00    -0.323 OA
HETATM   18  C   UNL     1      21.320  51.263  48.553  1.00  0.00     0.042 A 
HETATM   19  C   UNL     1      18.116  51.228  49.992  1.00  0.00     0.352 A 
HETATM   20  C   UNL     1      22.141  50.145  48.354  1.00  0.00     0.032 A 
ENDBRANCH  10  12
ENDBRANCH   5  10
BRANCH   1  21
HETATM   21  C   UNL     1      26.442  45.333  51.821  1.00  0.00     0.047 A 
HETATM   22  C   UNL     1      26.547  45.669  53.184  1.00  0.00     0.031 A 
HETATM   23  C   UNL     1      27.502  45.072  54.019  1.00  0.00     0.021 A 
HETATM   24  C   UNL     1      28.374  44.121  53.503  1.00  0.00     0.011 A 
HETATM   25  C   UNL     1      28.297  43.765  52.164  1.00  0.00     0.021 A 
HETATM   26 BR   UNL     1      29.661  43.313  54.625  1.00  0.00    -0.051 Br
HETATM   27  C   UNL     1      27.341  44.367  51.334  1.00  0.00     0.031 A 
ENDBRANCH   1  21
TORSDOF 3
ENDMDL
MODEL 3
REMARK VINA RESULT:      -9.0      3.669      8.540
REMARK  3 active torsions:
REMARK  status: ('A' for Active; 'I' for Inactive)
REMARK    1  A    between atoms: C_2  and  N_3 
REMARK    2  A    between atoms: C_7  and  N_8 
REMARK    3  A    between atoms: N_8  and  C_9 
ROOT
HETATM    1  N   UNL     1      26.806  44.530  52.731  1.00  0.00    -0.230 N 
HETATM    2  C   UNL     1      25.509  44.727  53.205  1.00  0.00     0.335 A 
HETATM    3  O   UNL     1      25.150  44.786  54.381  1.00  0.00    -0.246 OA
HETATM    4  N   UNL     1      24.532  44.922  52.267  1.00  0.00    -0.294 N 
HETATM    5  C   UNL     1      24.707  45.020  50.923  1.00  0.00     0.114 A 
HETATM    6  C   UNL     1      25.941  44.818  50.457  1.00  0.00     0.123 A 
HETATM    7  C   UNL     1      27.069  44.520  51.361  1.00  0.00     0.259 A 
HETATM    8  O   UNL     1      28.137  44.245  50.815  1.00  0.00    -0.267 OA
HETATM    9  H   UNL     1      23.617  45.093  52.662  1.00  0.00     0.172 HD
ENDROOT
BRANCH   5  10
HETATM   10  N   UNL     1      23.611  45.255  50.123  1.00  0.00    -0.342 N 
HETATM   11  H   UNL     1      22.780  44.741  50.400  1.00  0.00     0.167 HD
BRANCH  10  12
HETATM   12  C   UNL     1      23.285  46.424  49.397  1.00  0.00     0.036 A 
HETATM   13  C   UNL     1      23.931  47.621  49.754  1.00  0.00     0.069 A 
HETATM   14  C   UNL     1      23.610  48.778  49.073  1.00  0.00     0.107 A 
HETATM   15  C   UNL     1      22.672  48.792  48.073  1.00  0.00     0.105 A 
HETATM   16  O   UNL     1      24.156  50.005  49.290  1.00  0.00    -0.323 OA
HETATM   17  O   UNL     1      22.509  50.026  47.528  1.00  0.00    -0.323 OA
HETATM   18  C   UNL     1      21.999  47.651  47.702  1.00  0.00     0.042 A 
HETATM   19  C   UNL     1      23.459  50.790  48.300  1.00  0.00     0.352 A 
HETATM   20  C   UNL     1      22.308  46.462  48.377  1.00  0.00     0.032 A 
ENDBRANCH  10  12
ENDBRANCH   5  10
BRANCH   1  21
HETATM   21  C   UNL     1      27.890  44.310  53.668  1.00  0.00     0.047 A 
HETATM   22  C   UNL     1      28.330  45.322  54.542  1.00  0.00     0.031 A 
HETATM   23  C   UNL     1      29.384  45.111  55.443  1.00  0.00     0.021 A 
HETATM   24  C   UNL     1      30.018  43.876  55.488  1.00  0.00     0.011 A 
HETATM   25  C   UNL     1      29.609  42.855  54.641  1.00  0.00     0.021 A 
HETATM   26 BR   UNL     1      31.436  43.587  56.702  1.00  0.00    -0.051 Br
HETATM   27  C   UNL     1      28.557  43.073  53.742  1.00  0.00     0.031 A 
ENDBRANCH   1  21
TORSDOF 3
ENDMDL
MODEL 4
REMARK VINA RESULT:      -8.9      4.508      9.635
REMARK  3 active torsions:
REMARK  status: ('A' for Active; 'I' for Inactive)
REMARK    1  A    between atoms: C_2  and  N_3 
REMARK    2  A    between atoms: C_7  and  N_8 
REMARK    3  A    between atoms: N_8  and  C_9 
ROOT
HETATM    1  N   UNL     1      24.975  45.941  50.637  1.00  0.00    -0.230 N 
HETATM    2  C   UNL     1      23.879  45.254  50.115  1.00  0.00     0.335 A 
HETATM    3  O   UNL     1      23.604  44.065  50.276  1.00  0.00    -0.246 OA
HETATM    4  N   UNL     1      22.986  45.985  49.380  1.00  0.00    -0.294 N 
HETATM    5  C   UNL     1      23.016  47.327  49.171  1.00  0.00     0.114 A 
HETATM    6  C   UNL     1      24.067  47.992  49.653  1.00  0.00     0.123 A 
HETATM    7  C   UNL     1      25.141  47.304  50.396  1.00  0.00     0.259 A 
HETATM    8  O   UNL     1      26.113  47.997  50.699  1.00  0.00    -0.267 OA
HETATM    9  H   UNL     1      22.194  45.449  49.052  1.00  0.00     0.172 HD
ENDROOT
BRANCH   5  10
HETATM   10  N   UNL     1      22.010  47.909  48.430  1.00  0.00    -0.342 N 
HETATM   11  H   UNL     1      21.832  47.449  47.542  1.00  0.00     0.167 HD
BRANCH  10  12
HETATM   12  C   UNL     1      20.875  48.617  48.890  1.00  0.00     0.036 A 
HETATM   13  C   UNL     1      20.863  50.014  48.730  1.00  0.00     0.069 A 
HETATM   14  C   UNL     1      19.775  50.726  49.193  1.00  0.00     0.107 A 
HETATM   15  C   UNL     1      18.718  50.109  49.814  1.00  0.00     0.105 A 
HETATM   16  O   UNL     1      19.609  52.073  49.099  1.00  0.00    -0.323 OA
HETATM   17  O   UNL     1      17.750  50.987  50.186  1.00  0.00    -0.323 OA
HETATM   18  C   UNL     1      18.694  48.749  50.010  1.00  0.00     0.042 A 
HETATM   19  C   UNL     1      18.318  52.230  49.724  1.00  0.00     0.352 A 
HETATM   20  C   UNL     1      19.787  48.002  49.548  1.00  0.00     0.032 A 
ENDBRANCH  10  12
ENDBRANCH   5  10
BRANCH   1  21
HETATM   21  C   UNL     1      25.966  45.228  51.421  1.00  0.00     0.047 A 
HETATM   22  C   UNL     1      25.899  45.172  52.825  1.00  0.00     0.031 A 
HETATM   23  C   UNL     1      26.861  44.488  53.582  1.00  0.00     0.021 A 
HETATM   24  C   UNL     1      27.913  43.843  52.944  1.00  0.00     0.011 A 
HETATM   25  C   UNL     1      28.009  43.877  51.560  1.00  0.00     0.021 A 
HETATM   26 BR   UNL     1      29.210  42.920  53.961  1.00  0.00    -0.051 Br
HETATM   27  C   UNL     1      27.045  44.564  50.809  1.00  0.00     0.031 A 
ENDBRANCH   1  21
TORSDOF 3
ENDMDL
MODEL 5
REMARK VINA RESULT:      -8.7      4.015      9.136
REMARK  3 active torsions:
REMARK  status: ('A' for Active; 'I' for Inactive)
REMARK    1  A    between atoms: C_2  and  N_3 
REMARK    2  A    between atoms: C_7  and  N_8 
REMARK    3  A    between atoms: N_8  and  C_9 
ROOT
HETATM    1  N   UNL     1      26.293  44.770  51.783  1.00  0.00    -0.230 N 
HETATM    2  C   UNL     1      24.962  44.711  52.198  1.00  0.00     0.335 A 
HETATM    3  O   UNL     1      24.549  44.440  53.326  1.00  0.00    -0.246 OA
HETATM    4  N   UNL     1      24.010  45.031  51.269  1.00  0.00    -0.294 N 
HETATM    5  C   UNL     1      24.230  45.476  50.005  1.00  0.00     0.114 A 
HETATM    6  C   UNL     1      25.498  45.522  49.590  1.00  0.00     0.123 A 
HETATM    7  C   UNL     1      26.613  45.126  50.473  1.00  0.00     0.259 A 
HETATM    8  O   UNL     1      27.728  45.105  49.952  1.00  0.00    -0.267 OA
HETATM    9  H   UNL     1      23.066  45.005  51.629  1.00  0.00     0.172 HD
ENDROOT
BRANCH   5  10
HETATM   10  N   UNL     1      23.149  45.789  49.210  1.00  0.00    -0.342 N 
HETATM   11  H   UNL     1      22.408  45.094  49.229  1.00  0.00     0.167 HD
BRANCH  10  12
HETATM   12  C   UNL     1      22.659  47.066  48.852  1.00  0.00     0.036 A 
HETATM   13  C   UNL     1      21.410  47.135  48.210  1.00  0.00     0.069 A 
HETATM   14  C   UNL     1      20.925  48.371  47.831  1.00  0.00     0.107 A 
HETATM   15  C   UNL     1      21.634  49.524  48.052  1.00  0.00     0.105 A 
HETATM   16  O   UNL     1      19.733  48.602  47.218  1.00  0.00    -0.323 OA
HETATM   17  O   UNL     1      20.979  50.630  47.611  1.00  0.00    -0.323 OA
HETATM   18  C   UNL     1      22.868  49.505  48.658  1.00  0.00     0.042 A 
HETATM   19  C   UNL     1      19.771  50.039  47.090  1.00  0.00     0.352 A 
HETATM   20  C   UNL     1      23.383  48.263  49.054  1.00  0.00     0.032 A 
ENDBRANCH  10  12
ENDBRANCH   5  10
BRANCH   1  21
HETATM   21  C   UNL     1      27.354  44.437  52.713  1.00  0.00     0.047 A 
HETATM   22  C   UNL     1      27.643  45.246  53.828  1.00  0.00     0.031 A 
HETATM   23  C   UNL     1      28.674  44.926  54.722  1.00  0.00     0.021 A 
HETATM   24  C   UNL     1      29.439  43.785  54.518  1.00  0.00     0.011 A 
HETATM   25  C   UNL     1      29.180  42.964  53.429  1.00  0.00     0.021 A 
HETATM   26 BR   UNL     1      30.827  43.350  55.722  1.00  0.00    -0.051 Br
HETATM   27  C   UNL     1      28.149  43.289  52.537  1.00  0.00     0.031 A 
ENDBRANCH   1  21
TORSDOF 3
ENDMDL
MODEL 6
REMARK VINA RESULT:      -8.4      3.988      6.229
REMARK  3 active torsions:
REMARK  status: ('A' for Active; 'I' for Inactive)
REMARK    1  A    between atoms: C_2  and  N_3 
REMARK    2  A    between atoms: C_7  and  N_8 
REMARK    3  A    between atoms: N_8  and  C_9 
ROOT
HETATM    1  N   UNL     1      21.364  48.881  49.223  1.00  0.00    -0.230 N 
HETATM    2  C   UNL     1      21.061  47.559  48.896  1.00  0.00     0.335 A 
HETATM    3  O   UNL     1      19.960  47.106  48.582  1.00  0.00    -0.246 OA
HETATM    4  N   UNL     1      22.104  46.673  48.875  1.00  0.00    -0.294 N 
HETATM    5  C   UNL     1      23.417  46.965  49.066  1.00  0.00     0.114 A 
HETATM    6  C   UNL     1      23.718  48.223  49.396  1.00  0.00     0.123 A 
HETATM    7  C   UNL     1      22.672  49.256  49.528  1.00  0.00     0.259 A 
HETATM    8  O   UNL     1      23.050  50.353  49.940  1.00  0.00    -0.267 OA
HETATM    9  H   UNL     1      21.838  45.738  48.601  1.00  0.00     0.172 HD
ENDROOT
BRANCH   5  10
HETATM   10  N   UNL     1      24.345  45.950  48.975  1.00  0.00    -0.342 N 
HETATM   11  H   UNL     1      24.806  45.893  48.072  1.00  0.00     0.167 HD
BRANCH  10  12
HETATM   12  C   UNL     1      25.135  45.384  50.003  1.00  0.00     0.036 A 
HETATM   13  C   UNL     1      24.544  45.214  51.268  1.00  0.00     0.069 A 
HETATM   14  C   UNL     1      25.305  44.685  52.291  1.00  0.00     0.107 A 
HETATM   15  C   UNL     1      26.619  44.337  52.108  1.00  0.00     0.105 A 
HETATM   16  O   UNL     1      24.875  44.446  53.559  1.00  0.00    -0.323 OA
HETATM   17  O   UNL     1      27.184  43.830  53.236  1.00  0.00    -0.323 OA
HETATM   18  C   UNL     1      27.246  44.503  50.896  1.00  0.00     0.042 A 
HETATM   19  C   UNL     1      26.071  43.896  54.150  1.00  0.00     0.352 A 
HETATM   20  C   UNL     1      26.495  45.037  49.840  1.00  0.00     0.032 A 
ENDBRANCH  10  12
ENDBRANCH   5  10
BRANCH   1  21
HETATM   21  C   UNL     1      20.307  49.872  49.270  1.00  0.00     0.047 A 
HETATM   22  C   UNL     1      20.305  50.995  48.422  1.00  0.00     0.031 A 
HETATM   23  C   UNL     1      19.286  51.956  48.474  1.00  0.00     0.021 A 
HETATM   24  C   UNL     1      18.242  51.810  49.379  1.00  0.00     0.011 A 
HETATM   25  C   UNL     1      18.211  50.714  50.229  1.00  0.00     0.021 A 
HETATM   26 BR   UNL     1      16.866  53.103  49.449  1.00  0.00    -0.051 Br
HETATM   27  C   UNL     1      19.234  49.757  50.174  1.00  0.00     0.031 A 
ENDBRANCH   1  21
TORSDOF 3
ENDMDL
MODEL 7
REMARK VINA RESULT:      -8.3     12.239     14.234
REMARK  3 active torsions:
REMARK  status: ('A' for Active; 'I' for Inactive)
REMARK    1  A    between atoms: C_2  and  N_3 
REMARK    2  A    between atoms: C_7  and  N_8 
REMARK    3  A    between atoms: N_8  and  C_9 
ROOT
HETATM    1  N   UNL     1      32.858  50.981  42.848  1.00  0.00    -0.230 N 
HETATM    2  C   UNL     1      32.980  51.605  44.089  1.00  0.00     0.335 A 
HETATM    3  O   UNL     1      32.086  51.794  44.915  1.00  0.00    -0.246 OA
HETATM    4  N   UNL     1      34.233  52.014  44.455  1.00  0.00    -0.294 N 
HETATM    5  C   UNL     1      35.386  51.806  43.767  1.00  0.00     0.114 A 
HETATM    6  C   UNL     1      35.280  51.223  42.570  1.00  0.00     0.123 A 
HETATM    7  C   UNL     1      33.972  50.807  42.027  1.00  0.00     0.259 A 
HETATM    8  O   UNL     1      33.982  50.381  40.872  1.00  0.00    -0.267 OA
HETATM    9  H   UNL     1      34.273  52.429  45.376  1.00  0.00     0.172 HD
ENDROOT
BRANCH   5  10
HETATM   10  N   UNL     1      36.573  52.256  44.301  1.00  0.00    -0.342 N 
HETATM   11  H   UNL     1      37.243  51.519  44.497  1.00  0.00     0.167 HD
BRANCH  10  12
HETATM   12  C   UNL     1      37.209  53.504  44.106  1.00  0.00     0.036 A 
HETATM   13  C   UNL     1      37.574  54.241  45.247  1.00  0.00     0.069 A 
HETATM   14  C   UNL     1      38.175  55.472  45.079  1.00  0.00     0.107 A 
HETATM   15  C   UNL     1      38.410  55.997  43.833  1.00  0.00     0.105 A 
HETATM   16  O   UNL     1      38.597  56.294  46.077  1.00  0.00    -0.323 OA
HETATM   17  O   UNL     1      39.014  57.213  43.887  1.00  0.00    -0.323 OA
HETATM   18  C   UNL     1      38.053  55.323  42.689  1.00  0.00     0.042 A 
HETATM   19  C   UNL     1      39.137  57.392  45.313  1.00  0.00     0.352 A 
HETATM   20  C   UNL     1      37.443  54.070  42.833  1.00  0.00     0.032 A 
ENDBRANCH  10  12
ENDBRANCH   5  10
BRANCH   1  21
HETATM   21  C   UNL     1      31.558  50.528  42.393  1.00  0.00     0.047 A 
HETATM   22  C   UNL     1      30.669  51.385  41.717  1.00  0.00     0.031 A 
HETATM   23  C   UNL     1      29.410  50.947  41.284  1.00  0.00     0.021 A 
HETATM   24  C   UNL     1      29.014  49.636  41.519  1.00  0.00     0.011 A 
HETATM   25  C   UNL     1      29.866  48.764  42.182  1.00  0.00     0.021 A 
HETATM   26 BR   UNL     1      27.318  49.043  40.935  1.00  0.00    -0.051 Br
HETATM   27  C   UNL     1      31.123  49.208  42.614  1.00  0.00     0.031 A 
ENDBRANCH   1  21
TORSDOF 3
ENDMDL
MODEL 8
REMARK VINA RESULT:      -8.3      3.938      6.138
REMARK  3 active torsions:
REMARK  status: ('A' for Active; 'I' for Inactive)
REMARK    1  A    between atoms: C_2  and  N_3 
REMARK    2  A    between atoms: C_7  and  N_8 
REMARK    3  A    between atoms: N_8  and  C_9 
ROOT
HETATM    1  N   UNL     1      21.611  49.538  49.232  1.00  0.00    -0.230 N 
HETATM    2  C   UNL     1      22.843  50.104  49.557  1.00  0.00     0.335 A 
HETATM    3  O   UNL     1      23.051  51.251  49.953  1.00  0.00    -0.246 OA
HETATM    4  N   UNL     1      23.939  49.289  49.471  1.00  0.00    -0.294 N 
HETATM    5  C   UNL     1      23.941  47.963  49.175  1.00  0.00     0.114 A 
HETATM    6  C   UNL     1      22.769  47.413  48.848  1.00  0.00     0.123 A 
HETATM    7  C   UNL     1      21.525  48.206  48.826  1.00  0.00     0.259 A 
HETATM    8  O   UNL     1      20.525  47.624  48.406  1.00  0.00    -0.267 OA
HETATM    9  H   UNL     1      24.802  49.737  49.747  1.00  0.00     0.172 HD
ENDROOT
BRANCH   5  10
HETATM   10  N   UNL     1      25.139  47.283  49.167  1.00  0.00    -0.342 N 
HETATM   11  H   UNL     1      25.870  47.742  48.631  1.00  0.00     0.167 HD
BRANCH  10  12
HETATM   12  C   UNL     1      25.674  46.429  50.159  1.00  0.00     0.036 A 
HETATM   13  C   UNL     1      25.353  46.700  51.501  1.00  0.00     0.069 A 
HETATM   14  C   UNL     1      25.884  45.892  52.487  1.00  0.00     0.107 A 
HETATM   15  C   UNL     1      26.723  44.847  52.191  1.00  0.00     0.105 A 
HETATM   16  O   UNL     1      25.657  46.015  53.822  1.00  0.00    -0.323 OA
HETATM   17  O   UNL     1      27.128  44.176  53.301  1.00  0.00    -0.323 OA
HETATM   18  C   UNL     1      27.081  44.556  50.896  1.00  0.00     0.042 A 
HETATM   19  C   UNL     1      26.443  44.917  54.332  1.00  0.00     0.352 A 
HETATM   20  C   UNL     1      26.554  45.360  49.876  1.00  0.00     0.032 A 
ENDBRANCH  10  12
ENDBRANCH   5  10
BRANCH   1  21
HETATM   21  C   UNL     1      20.408  50.345  49.296  1.00  0.00     0.047 A 
HETATM   22  C   UNL     1      20.244  51.494  48.500  1.00  0.00     0.031 A 
HETATM   23  C   UNL     1      19.083  52.277  48.567  1.00  0.00     0.021 A 
HETATM   24  C   UNL     1      18.058  51.922  49.435  1.00  0.00     0.011 A 
HETATM   25  C   UNL     1      18.186  50.794  50.233  1.00  0.00     0.021 A 
HETATM   26 BR   UNL     1      16.492  52.974  49.527  1.00  0.00    -0.051 Br
HETATM   27  C   UNL     1      19.349  50.016  50.163  1.00  0.00     0.031 A 
ENDBRANCH   1  21
TORSDOF 3
ENDMDL
MODEL 9
REMARK VINA RESULT:      -8.3      5.140      6.595
REMARK  3 active torsions:
REMARK  status: ('A' for Active; 'I' for Inactive)
REMARK    1  A    between atoms: C_2  and  N_3 
REMARK    2  A    between atoms: C_7  and  N_8 
REMARK    3  A    between atoms: N_8  and  C_9 
ROOT
HETATM    1  N   UNL     1      27.441  40.415  48.843  1.00  0.00    -0.230 N 
HETATM    2  C   UNL     1      28.339  39.781  49.701  1.00  0.00     0.335 A 
HETATM    3  O   UNL     1      29.242  39.005  49.388  1.00  0.00    -0.246 OA
HETATM    4  N   UNL     1      28.240  40.083  51.032  1.00  0.00    -0.294 N 
HETATM    5  C   UNL     1      27.407  40.996  51.595  1.00  0.00     0.114 A 
HETATM    6  C   UNL     1      26.533  41.599  50.787  1.00  0.00     0.123 A 
HETATM    7  C   UNL     1      26.485  41.300  49.342  1.00  0.00     0.259 A 
HETATM    8  O   UNL     1      25.570  41.832  48.714  1.00  0.00    -0.267 OA
HETATM    9  H   UNL     1      28.933  39.623  51.606  1.00  0.00     0.172 HD
ENDROOT
BRANCH   5  10
HETATM   10  N   UNL     1      27.464  41.202  52.957  1.00  0.00    -0.342 N 
HETATM   11  H   UNL     1      27.436  40.347  53.504  1.00  0.00     0.167 HD
BRANCH  10  12
HETATM   12  C   UNL     1      28.090  42.255  53.663  1.00  0.00     0.036 A 
HETATM   13  C   UNL     1      27.303  43.366  54.019  1.00  0.00     0.069 A 
HETATM   14  C   UNL     1      27.900  44.415  54.688  1.00  0.00     0.107 A 
HETATM   15  C   UNL     1      29.236  44.408  54.999  1.00  0.00     0.105 A 
HETATM   16  O   UNL     1      27.274  45.546  55.111  1.00  0.00    -0.323 OA
HETATM   17  O   UNL     1      29.622  45.530  55.662  1.00  0.00    -0.323 OA
HETATM   18  C   UNL     1      30.049  43.354  54.654  1.00  0.00     0.042 A 
HETATM   19  C   UNL     1      28.371  46.244  55.736  1.00  0.00     0.352 A 
HETATM   20  C   UNL     1      29.467  42.275  53.976  1.00  0.00     0.032 A 
ENDBRANCH  10  12
ENDBRANCH   5  10
BRANCH   1  21
HETATM   21  C   UNL     1      27.484  40.137  47.421  1.00  0.00     0.047 A 
HETATM   22  C   UNL     1      26.857  39.006  46.867  1.00  0.00     0.031 A 
HETATM   23  C   UNL     1      26.905  38.735  45.493  1.00  0.00     0.021 A 
HETATM   24  C   UNL     1      27.585  39.596  44.641  1.00  0.00     0.011 A 
HETATM   25  C   UNL     1      28.214  40.723  45.153  1.00  0.00     0.021 A 
HETATM   26 BR   UNL     1      27.651  39.235  42.788  1.00  0.00    -0.051 Br
HETATM   27  C   UNL     1      28.163  40.987  46.528  1.00  0.00     0.031 A 
ENDBRANCH   1  21
TORSDOF 3
ENDMDL
MODEL 10
REMARK VINA RESULT:      -8.2      5.504      8.365
REMARK  3 active torsions:
REMARK  status: ('A' for Active; 'I' for Inactive)
REMARK    1  A    between atoms: C_2  and  N_3 
REMARK    2  A    between atoms: C_7  and  N_8 
REMARK    3  A    between atoms: N_8  and  C_9 
ROOT
HETATM    1  N   UNL     1      19.188  49.650  48.798  1.00  0.00    -0.230 N 
HETATM    2  C   UNL     1      19.483  48.691  49.767  1.00  0.00     0.335 A 
HETATM    3  O   UNL     1      18.868  48.478  50.811  1.00  0.00    -0.246 OA
HETATM    4  N   UNL     1      20.544  47.865  49.514  1.00  0.00    -0.294 N 
HETATM    5  C   UNL     1      21.293  47.832  48.381  1.00  0.00     0.114 A 
HETATM    6  C   UNL     1      21.030  48.754  47.453  1.00  0.00     0.123 A 
HETATM    7  C   UNL     1      19.960  49.754  47.641  1.00  0.00     0.259 A 
HETATM    8  O   UNL     1      19.878  50.622  46.772  1.00  0.00    -0.267 OA
HETATM    9  H   UNL     1      20.697  47.168  50.230  1.00  0.00     0.172 HD
ENDROOT
BRANCH   5  10
HETATM   10  N   UNL     1      22.308  46.905  48.279  1.00  0.00    -0.342 N 
HETATM   11  H   UNL     1      22.651  46.771  47.332  1.00  0.00     0.167 HD
BRANCH  10  12
HETATM   12  C   UNL     1      23.283  46.558  49.243  1.00  0.00     0.036 A 
HETATM   13  C   UNL     1      23.408  45.201  49.590  1.00  0.00     0.069 A 
HETATM   14  C   UNL     1      24.338  44.843  50.546  1.00  0.00     0.107 A 
HETATM   15  C   UNL     1      25.127  45.775  51.171  1.00  0.00     0.105 A 
HETATM   16  O   UNL     1      24.588  43.577  50.977  1.00  0.00    -0.323 OA
HETATM   17  O   UNL     1      25.977  45.216  52.072  1.00  0.00    -0.323 OA
HETATM   18  C   UNL     1      25.026  47.115  50.880  1.00  0.00     0.042 A 
HETATM   19  C   UNL     1      25.635  43.821  51.939  1.00  0.00     0.352 A 
HETATM   20  C   UNL     1      24.091  47.504  49.911  1.00  0.00     0.032 A 
ENDBRANCH  10  12
ENDBRANCH   5  10
BRANCH   1  21
HETATM   21  C   UNL     1      18.081  50.563  49.002  1.00  0.00     0.047 A 
HETATM   22  C   UNL     1      16.795  50.295  48.496  1.00  0.00     0.031 A 
HETATM   23  C   UNL     1      15.727  51.183  48.689  1.00  0.00     0.021 A 
HETATM   24  C   UNL     1      15.926  52.361  49.396  1.00  0.00     0.011 A 
HETATM   25  C   UNL     1      17.181  52.658  49.911  1.00  0.00     0.021 A 
HETATM   26 BR   UNL     1      14.489  53.559  49.659  1.00  0.00    -0.051 Br
HETATM   27  C   UNL     1      18.245  51.767  49.713  1.00  0.00     0.031 A 
ENDBRANCH   1  21
TORSDOF 3
ENDMDL
