MODEL 1
REMARK VINA RESULT:      -8.2      0.000      0.000
REMARK  7 active torsions:
REMARK  status: ('A' for Active; 'I' for Inactive)
REMARK    1  A    between atoms: C_2  and  N_3 
REMARK    2  A    between atoms: C_6  and  C_7 
REMARK    3  A    between atoms: C_7  and  O_8 
REMARK    4  A    between atoms: O_8  and  C_9 
REMARK    5  A    between atoms: C_9  and  C_10 
REMARK    6  A    between atoms: C_12  and  N_13 
REMARK    7  A    between atoms: C_22  and  N_23 
ROOT
HETATM    1  O   UNL     1      25.965  46.113  53.630  1.00  0.00    -0.310 OA
ENDROOT
BRANCH   1   2
HETATM    2  C   UNL     1      25.925  46.451  52.308  1.00  0.00     0.299 C 
HETATM    3  O   UNL     1      25.604  47.557  51.890  1.00  0.00    -0.259 OA
BRANCH   2   4
HETATM    4  C   UNL     1      26.274  45.356  51.426  1.00  0.00     0.103 A 
HETATM    5  C   UNL     1      26.721  45.478  50.091  1.00  0.00     0.160 A 
HETATM    6  N   UNL     1      26.959  44.301  49.509  1.00  0.00    -0.182 NA
HETATM    7  N   UNL     1      26.614  43.402  50.456  1.00  0.00    -0.250 N 
HETATM    8  C   UNL     1      26.252  43.990  51.654  1.00  0.00     0.136 A 
BRANCH   7   9
HETATM    9  C   UNL     1      26.646  41.977  50.135  1.00  0.00     0.104 C 
HETATM   10  C   UNL     1      27.905  41.323  50.701  1.00  0.00     0.034 C 
HETATM   11  C   UNL     1      26.511  41.709  48.634  1.00  0.00     0.034 C 
ENDBRANCH   7   9
BRANCH   8  12
HETATM   12  N   UNL     1      25.933  43.282  52.762  1.00  0.00    -0.383 N 
HETATM   13  H   UNL     1      25.433  43.759  53.514  1.00  0.00     0.157 HD
HETATM   14  H   UNL     1      26.525  42.534  53.113  1.00  0.00     0.157 HD
ENDBRANCH   8  12
ENDBRANCH   2   4
ENDBRANCH   1   2
BRANCH   1  15
HETATM   15  C   UNL     1      26.996  46.774  54.380  1.00  0.00     0.259 C 
BRANCH  15  16
HETATM   16  C   UNL     1      28.120  45.870  54.843  1.00  0.00     0.152 A 
HETATM   17  N   UNL     1      28.431  44.797  54.092  1.00  0.00    -0.219 NA
HETATM   18  C   UNL     1      29.422  44.017  54.544  1.00  0.00     0.115 A 
HETATM   19  C   UNL     1      30.096  44.243  55.749  1.00  0.00     0.033 A 
HETATM   20  C   UNL     1      29.676  45.375  56.457  1.00  0.00     0.072 A 
HETATM   21  C   UNL     1      31.127  43.426  56.275  1.00  0.00     0.017 A 
HETATM   22  N   UNL     1      28.699  46.175  56.020  1.00  0.00    -0.231 NA
HETATM   23  C   UNL     1      30.302  45.671  57.662  1.00  0.00     0.032 A 
HETATM   24  C   UNL     1      31.326  44.872  58.180  1.00  0.00     0.002 A 
HETATM   25  C   UNL     1      31.739  43.744  57.486  1.00  0.00     0.001 A 
BRANCH  18  26
HETATM   26  N   UNL     1      29.734  42.928  53.719  1.00  0.00    -0.286 NA
HETATM   27  H   UNL     1      29.404  42.094  54.200  1.00  0.00     0.125 HD
HETATM   28  H   UNL     1      29.291  43.026  52.813  1.00  0.00     0.125 HD
ENDBRANCH  18  26
ENDBRANCH  15  16
ENDBRANCH   1  15
TORSDOF 7
ENDMDL
MODEL 2
REMARK VINA RESULT:      -8.1      3.132      4.297
REMARK  7 active torsions:
REMARK  status: ('A' for Active; 'I' for Inactive)
REMARK    1  A    between atoms: C_2  and  N_3 
REMARK    2  A    between atoms: C_6  and  C_7 
REMARK    3  A    between atoms: C_7  and  O_8 
REMARK    4  A    between atoms: O_8  and  C_9 
REMARK    5  A    between atoms: C_9  and  C_10 
REMARK    6  A    between atoms: C_12  and  N_13 
REMARK    7  A    between atoms: C_22  and  N_23 
ROOT
HETATM    1  O   UNL     1      25.803  45.051  51.160  1.00  0.00    -0.310 OA
ENDROOT
BRANCH   1   2
HETATM    2  C   UNL     1      26.237  45.760  50.078  1.00  0.00     0.299 C 
HETATM    3  O   UNL     1      27.258  45.502  49.450  1.00  0.00    -0.259 OA
BRANCH   2   4
HETATM    4  C   UNL     1      25.384  46.883  49.748  1.00  0.00     0.103 A 
HETATM    5  C   UNL     1      25.809  48.215  49.544  1.00  0.00     0.160 A 
HETATM    6  N   UNL     1      24.806  49.048  49.264  1.00  0.00    -0.182 NA
HETATM    7  N   UNL     1      23.709  48.263  49.339  1.00  0.00    -0.250 N 
HETATM    8  C   UNL     1      24.012  46.933  49.568  1.00  0.00     0.136 A 
BRANCH   7   9
HETATM    9  C   UNL     1      22.386  48.864  49.188  1.00  0.00     0.104 C 
HETATM   10  C   UNL     1      21.857  48.659  47.770  1.00  0.00     0.034 C 
HETATM   11  C   UNL     1      22.366  50.345  49.577  1.00  0.00     0.034 C 
ENDBRANCH   7   9
BRANCH   8  12
HETATM   12  N   UNL     1      23.076  45.956  49.614  1.00  0.00    -0.383 N 
HETATM   13  H   UNL     1      23.282  45.067  49.155  1.00  0.00     0.157 HD
HETATM   14  H   UNL     1      22.081  46.163  49.615  1.00  0.00     0.157 HD
ENDBRANCH   8  12
ENDBRANCH   2   4
ENDBRANCH   1   2
BRANCH   1  15
HETATM   15  C   UNL     1      26.186  45.608  52.427  1.00  0.00     0.259 C 
BRANCH  15  16
HETATM   16  C   UNL     1      27.389  44.948  53.069  1.00  0.00     0.152 A 
HETATM   17  N   UNL     1      27.895  43.840  52.496  1.00  0.00    -0.219 NA
HETATM   18  C   UNL     1      28.951  43.282  53.103  1.00  0.00     0.115 A 
HETATM   19  C   UNL     1      29.503  43.765  54.295  1.00  0.00     0.033 A 
HETATM   20  C   UNL     1      28.884  44.908  54.811  1.00  0.00     0.072 A 
HETATM   21  C   UNL     1      30.598  43.185  54.982  1.00  0.00     0.017 A 
HETATM   22  N   UNL     1      27.838  45.491  54.217  1.00  0.00    -0.231 NA
HETATM   23  C   UNL     1      29.379  45.453  55.990  1.00  0.00     0.032 A 
HETATM   24  C   UNL     1      30.466  44.890  56.667  1.00  0.00     0.002 A 
HETATM   25  C   UNL     1      31.076  43.750  56.163  1.00  0.00     0.001 A 
BRANCH  18  26
HETATM   26  N   UNL     1      29.465  42.148  52.460  1.00  0.00    -0.286 NA
HETATM   27  H   UNL     1      28.879  41.984  51.644  1.00  0.00     0.125 HD
HETATM   28  H   UNL     1      30.431  42.295  52.192  1.00  0.00     0.125 HD
ENDBRANCH  18  26
ENDBRANCH  15  16
ENDBRANCH   1  15
TORSDOF 7
ENDMDL
MODEL 3
REMARK VINA RESULT:      -8.1      2.032      3.605
REMARK  7 active torsions:
REMARK  status: ('A' for Active; 'I' for Inactive)
REMARK    1  A    between atoms: C_2  and  N_3 
REMARK    2  A    between atoms: C_6  and  C_7 
REMARK    3  A    between atoms: C_7  and  O_8 
REMARK    4  A    between atoms: O_8  and  C_9 
REMARK    5  A    between atoms: C_9  and  C_10 
REMARK    6  A    between atoms: C_12  and  N_13 
REMARK    7  A    between atoms: C_22  and  N_23 
ROOT
HETATM    1  O   UNL     1      28.294  41.693  52.596  1.00  0.00    -0.310 OA
ENDROOT
BRANCH   1   2
HETATM    2  C   UNL     1      27.756  41.614  51.344  1.00  0.00     0.299 C 
HETATM    3  O   UNL     1      27.922  40.669  50.581  1.00  0.00    -0.259 OA
BRANCH   2   4
HETATM    4  C   UNL     1      26.982  42.783  50.978  1.00  0.00     0.103 A 
HETATM    5  C   UNL     1      26.936  43.380  49.698  1.00  0.00     0.160 A 
HETATM    6  N   UNL     1      26.148  44.455  49.649  1.00  0.00    -0.182 NA
HETATM    7  N   UNL     1      25.716  44.591  50.922  1.00  0.00    -0.250 N 
HETATM    8  C   UNL     1      26.143  43.570  51.750  1.00  0.00     0.136 A 
BRANCH   7   9
HETATM    9  C   UNL     1      24.895  45.746  51.279  1.00  0.00     0.104 C 
HETATM   10  C   UNL     1      24.176  46.300  50.051  1.00  0.00     0.034 C 
HETATM   11  C   UNL     1      25.696  46.839  51.991  1.00  0.00     0.034 C 
ENDBRANCH   7   9
BRANCH   8  12
HETATM   12  N   UNL     1      25.777  43.465  53.049  1.00  0.00    -0.383 N 
HETATM   13  H   UNL     1      25.275  44.245  53.475  1.00  0.00     0.157 HD
HETATM   14  H   UNL     1      26.339  42.957  53.727  1.00  0.00     0.157 HD
ENDBRANCH   8  12
ENDBRANCH   2   4
ENDBRANCH   1   2
BRANCH   1  15
HETATM   15  C   UNL     1      29.462  42.523  52.688  1.00  0.00     0.259 C 
BRANCH  15  16
HETATM   16  C   UNL     1      29.491  43.441  53.894  1.00  0.00     0.152 A 
HETATM   17  N   UNL     1      28.669  44.506  53.909  1.00  0.00    -0.219 NA
HETATM   18  C   UNL     1      28.736  45.298  54.988  1.00  0.00     0.115 A 
HETATM   19  C   UNL     1      29.629  45.091  56.045  1.00  0.00     0.033 A 
HETATM   20  C   UNL     1      30.449  43.965  55.913  1.00  0.00     0.072 A 
HETATM   21  C   UNL     1      29.751  45.921  57.186  1.00  0.00     0.017 A 
HETATM   22  N   UNL     1      30.392  43.153  54.853  1.00  0.00    -0.231 NA
HETATM   23  C   UNL     1      31.359  43.688  56.926  1.00  0.00     0.032 A 
HETATM   24  C   UNL     1      31.477  44.499  58.059  1.00  0.00     0.002 A 
HETATM   25  C   UNL     1      30.671  45.622  58.189  1.00  0.00     0.001 A 
BRANCH  18  26
HETATM   26  N   UNL     1      27.845  46.379  54.978  1.00  0.00    -0.286 NA
HETATM   27  H   UNL     1      26.928  46.004  55.212  1.00  0.00     0.125 HD
HETATM   28  H   UNL     1      28.132  47.086  55.646  1.00  0.00     0.125 HD
ENDBRANCH  18  26
ENDBRANCH  15  16
ENDBRANCH   1  15
TORSDOF 7
ENDMDL
MODEL 4
REMARK VINA RESULT:      -8.0      2.444      3.637
REMARK  7 active torsions:
REMARK  status: ('A' for Active; 'I' for Inactive)
REMARK    1  A    between atoms: C_2  and  N_3 
REMARK    2  A    between atoms: C_6  and  C_7 
REMARK    3  A    between atoms: C_7  and  O_8 
REMARK    4  A    between atoms: O_8  and  C_9 
REMARK    5  A    between atoms: C_9  and  C_10 
REMARK    6  A    between atoms: C_12  and  N_13 
REMARK    7  A    between atoms: C_22  and  N_23 
ROOT
HETATM    1  O   UNL     1      26.435  43.091  51.424  1.00  0.00    -0.310 OA
ENDROOT
BRANCH   1   2
HETATM    2  C   UNL     1      26.965  43.064  50.167  1.00  0.00     0.299 C 
HETATM    3  O   UNL     1      26.996  44.029  49.412  1.00  0.00    -0.259 OA
BRANCH   2   4
HETATM    4  C   UNL     1      27.470  41.761  49.786  1.00  0.00     0.103 A 
HETATM    5  C   UNL     1      27.520  41.243  48.471  1.00  0.00     0.160 A 
HETATM    6  N   UNL     1      28.023  40.010  48.414  1.00  0.00    -0.182 NA
HETATM    7  N   UNL     1      28.254  39.699  49.708  1.00  0.00    -0.250 N 
HETATM    8  C   UNL     1      27.994  40.747  50.570  1.00  0.00     0.136 A 
BRANCH   7   9
HETATM    9  C   UNL     1      28.722  38.357  50.049  1.00  0.00     0.104 C 
HETATM   10  C   UNL     1      30.117  38.109  49.479  1.00  0.00     0.034 C 
HETATM   11  C   UNL     1      27.743  37.264  49.611  1.00  0.00     0.034 C 
ENDBRANCH   7   9
BRANCH   8  12
HETATM   12  N   UNL     1      28.217  40.685  51.904  1.00  0.00    -0.383 N 
HETATM   13  H   UNL     1      28.944  40.053  52.244  1.00  0.00     0.157 HD
HETATM   14  H   UNL     1      27.469  40.805  52.581  1.00  0.00     0.157 HD
ENDBRANCH   8  12
ENDBRANCH   2   4
ENDBRANCH   1   2
BRANCH   1  15
HETATM   15  C   UNL     1      26.308  44.407  51.986  1.00  0.00     0.259 C 
BRANCH  15  16
HETATM   16  C   UNL     1      27.237  44.689  53.150  1.00  0.00     0.152 A 
HETATM   17  N   UNL     1      27.099  45.852  53.813  1.00  0.00    -0.219 NA
HETATM   18  C   UNL     1      27.948  46.067  54.827  1.00  0.00     0.115 A 
HETATM   19  C   UNL     1      28.968  45.177  55.183  1.00  0.00     0.033 A 
HETATM   20  C   UNL     1      29.030  44.011  54.413  1.00  0.00     0.072 A 
HETATM   21  C   UNL     1      29.903  45.382  56.227  1.00  0.00     0.017 A 
HETATM   22  N   UNL     1      28.186  43.768  53.405  1.00  0.00    -0.231 NA
HETATM   23  C   UNL     1      30.012  43.074  54.709  1.00  0.00     0.032 A 
HETATM   24  C   UNL     1      30.932  43.268  55.745  1.00  0.00     0.002 A 
HETATM   25  C   UNL     1      30.879  44.428  56.506  1.00  0.00     0.001 A 
BRANCH  18  26
HETATM   26  N   UNL     1      27.753  47.275  55.509  1.00  0.00    -0.286 NA
HETATM   27  H   UNL     1      27.510  47.971  54.807  1.00  0.00     0.125 HD
HETATM   28  H   UNL     1      27.018  47.181  56.201  1.00  0.00     0.125 HD
ENDBRANCH  18  26
ENDBRANCH  15  16
ENDBRANCH   1  15
TORSDOF 7
ENDMDL
MODEL 5
REMARK VINA RESULT:      -8.0      2.516      3.868
REMARK  7 active torsions:
REMARK  status: ('A' for Active; 'I' for Inactive)
REMARK    1  A    between atoms: C_2  and  N_3 
REMARK    2  A    between atoms: C_6  and  C_7 
REMARK    3  A    between atoms: C_7  and  O_8 
REMARK    4  A    between atoms: O_8  and  C_9 
REMARK    5  A    between atoms: C_9  and  C_10 
REMARK    6  A    between atoms: C_12  and  N_13 
REMARK    7  A    between atoms: C_22  and  N_23 
ROOT
HETATM    1  O   UNL     1      25.128  43.745  51.487  1.00  0.00    -0.310 OA
ENDROOT
BRANCH   1   2
HETATM    2  C   UNL     1      24.470  44.584  50.635  1.00  0.00     0.299 C 
HETATM    3  O   UNL     1      23.301  44.443  50.295  1.00  0.00    -0.259 OA
BRANCH   2   4
HETATM    4  C   UNL     1      25.300  45.662  50.136  1.00  0.00     0.103 A 
HETATM    5  C   UNL     1      26.628  45.536  49.667  1.00  0.00     0.160 A 
HETATM    6  N   UNL     1      27.157  46.696  49.278  1.00  0.00    -0.182 NA
HETATM    7  N   UNL     1      26.186  47.596  49.546  1.00  0.00    -0.250 N 
HETATM    8  C   UNL     1      25.021  47.012  50.008  1.00  0.00     0.136 A 
BRANCH   7   9
HETATM    9  C   UNL     1      26.451  49.018  49.340  1.00  0.00     0.104 C 
HETATM   10  C   UNL     1      25.656  49.551  48.150  1.00  0.00     0.034 C 
HETATM   11  C   UNL     1      27.944  49.321  49.188  1.00  0.00     0.034 C 
ENDBRANCH   7   9
BRANCH   8  12
HETATM   12  N   UNL     1      23.895  47.713  50.277  1.00  0.00    -0.383 N 
HETATM   13  H   UNL     1      23.071  47.547  49.696  1.00  0.00     0.157 HD
HETATM   14  H   UNL     1      23.925  48.664  50.634  1.00  0.00     0.157 HD
ENDBRANCH   8  12
ENDBRANCH   2   4
ENDBRANCH   1   2
BRANCH   1  15
HETATM   15  C   UNL     1      25.424  44.316  52.771  1.00  0.00     0.259 C 
BRANCH  15  16
HETATM   16  C   UNL     1      26.821  44.029  53.283  1.00  0.00     0.152 A 
HETATM   17  N   UNL     1      27.492  42.984  52.765  1.00  0.00    -0.219 NA
HETATM   18  C   UNL     1      28.718  42.758  53.255  1.00  0.00     0.115 A 
HETATM   19  C   UNL     1      29.293  43.517  54.282  1.00  0.00     0.033 A 
HETATM   20  C   UNL     1      28.497  44.564  54.758  1.00  0.00     0.072 A 
HETATM   21  C   UNL     1      30.572  43.291  54.846  1.00  0.00     0.017 A 
HETATM   22  N   UNL     1      27.277  44.817  54.276  1.00  0.00    -0.231 NA
HETATM   23  C   UNL     1      29.001  45.368  55.773  1.00  0.00     0.032 A 
HETATM   24  C   UNL     1      30.267  45.155  56.327  1.00  0.00     0.002 A 
HETATM   25  C   UNL     1      31.055  44.111  55.864  1.00  0.00     0.001 A 
BRANCH  18  26
HETATM   26  N   UNL     1      29.395  41.679  52.670  1.00  0.00    -0.286 NA
HETATM   27  H   UNL     1      28.683  41.010  52.382  1.00  0.00     0.125 HD
HETATM   28  H   UNL     1      29.946  41.989  51.878  1.00  0.00     0.125 HD
ENDBRANCH  18  26
ENDBRANCH  15  16
ENDBRANCH   1  15
TORSDOF 7
ENDMDL
MODEL 6
REMARK VINA RESULT:      -7.9      3.323      4.878
REMARK  7 active torsions:
REMARK  status: ('A' for Active; 'I' for Inactive)
REMARK    1  A    between atoms: C_2  and  N_3 
REMARK    2  A    between atoms: C_6  and  C_7 
REMARK    3  A    between atoms: C_7  and  O_8 
REMARK    4  A    between atoms: O_8  and  C_9 
REMARK    5  A    between atoms: C_9  and  C_10 
REMARK    6  A    between atoms: C_12  and  N_13 
REMARK    7  A    between atoms: C_22  and  N_23 
ROOT
HETATM    1  O   UNL     1      25.954  45.204  50.947  1.00  0.00    -0.310 OA
ENDROOT
BRANCH   1   2
HETATM    2  C   UNL     1      24.692  45.448  50.489  1.00  0.00     0.299 C 
HETATM    3  O   UNL     1      23.783  44.625  50.501  1.00  0.00    -0.259 OA
BRANCH   2   4
HETATM    4  C   UNL     1      24.525  46.783  49.951  1.00  0.00     0.103 A 
HETATM    5  C   UNL     1      25.515  47.791  49.914  1.00  0.00     0.160 A 
HETATM    6  N   UNL     1      25.082  48.930  49.373  1.00  0.00    -0.182 NA
HETATM    7  N   UNL     1      23.782  48.680  49.101  1.00  0.00    -0.250 N 
HETATM    8  C   UNL     1      23.414  47.377  49.376  1.00  0.00     0.136 A 
BRANCH   7   9
HETATM    9  C   UNL     1      22.940  49.756  48.582  1.00  0.00     0.104 C 
HETATM   10  C   UNL     1      23.754  50.709  47.710  1.00  0.00     0.034 C 
HETATM   11  C   UNL     1      22.204  50.513  49.691  1.00  0.00     0.034 C 
ENDBRANCH   7   9
BRANCH   8  12
HETATM   12  N   UNL     1      22.179  46.884  49.120  1.00  0.00    -0.383 N 
HETATM   13  H   UNL     1      22.026  46.400  48.234  1.00  0.00     0.157 HD
HETATM   14  H   UNL     1      21.337  47.342  49.455  1.00  0.00     0.157 HD
ENDBRANCH   8  12
ENDBRANCH   2   4
ENDBRANCH   1   2
BRANCH   1  15
HETATM   15  C   UNL     1      26.022  44.247  52.016  1.00  0.00     0.259 C 
BRANCH  15  16
HETATM   16  C   UNL     1      27.002  44.598  53.117  1.00  0.00     0.152 A 
HETATM   17  N   UNL     1      26.884  45.794  53.724  1.00  0.00    -0.219 NA
HETATM   18  C   UNL     1      27.777  46.069  54.683  1.00  0.00     0.115 A 
HETATM   19  C   UNL     1      28.822  45.207  55.037  1.00  0.00     0.033 A 
HETATM   20  C   UNL     1      28.860  44.002  54.328  1.00  0.00     0.072 A 
HETATM   21  C   UNL     1      29.803  45.475  56.023  1.00  0.00     0.017 A 
HETATM   22  N   UNL     1      27.971  43.699  53.376  1.00  0.00    -0.231 NA
HETATM   23  C   UNL     1      29.864  43.090  54.627  1.00  0.00     0.032 A 
HETATM   24  C   UNL     1      30.829  43.345  55.606  1.00  0.00     0.002 A 
HETATM   25  C   UNL     1      30.801  44.544  56.305  1.00  0.00     0.001 A 
BRANCH  18  26
HETATM   26  N   UNL     1      27.603  47.310  55.309  1.00  0.00    -0.286 NA
HETATM   27  H   UNL     1      27.023  47.145  56.129  1.00  0.00     0.125 HD
HETATM   28  H   UNL     1      28.498  47.709  55.568  1.00  0.00     0.125 HD
ENDBRANCH  18  26
ENDBRANCH  15  16
ENDBRANCH   1  15
TORSDOF 7
ENDMDL
MODEL 7
REMARK VINA RESULT:      -7.8      1.054      2.064
REMARK  7 active torsions:
REMARK  status: ('A' for Active; 'I' for Inactive)
REMARK    1  A    between atoms: C_2  and  N_3 
REMARK    2  A    between atoms: C_6  and  C_7 
REMARK    3  A    between atoms: C_7  and  O_8 
REMARK    4  A    between atoms: O_8  and  C_9 
REMARK    5  A    between atoms: C_9  and  C_10 
REMARK    6  A    between atoms: C_12  and  N_13 
REMARK    7  A    between atoms: C_22  and  N_23 
ROOT
HETATM    1  O   UNL     1      25.378  46.366  53.293  1.00  0.00    -0.310 OA
ENDROOT
BRANCH   1   2
HETATM    2  C   UNL     1      25.492  46.582  51.950  1.00  0.00     0.299 C 
HETATM    3  O   UNL     1      25.177  47.626  51.391  1.00  0.00    -0.259 OA
BRANCH   2   4
HETATM    4  C   UNL     1      26.003  45.436  51.226  1.00  0.00     0.103 A 
HETATM    5  C   UNL     1      26.602  45.463  49.946  1.00  0.00     0.160 A 
HETATM    6  N   UNL     1      26.969  44.256  49.514  1.00  0.00    -0.182 NA
HETATM    7  N   UNL     1      26.558  43.427  50.498  1.00  0.00    -0.250 N 
HETATM    8  C   UNL     1      26.024  44.098  51.582  1.00  0.00     0.136 A 
BRANCH   7   9
HETATM    9  C   UNL     1      26.703  41.983  50.325  1.00  0.00     0.104 C 
HETATM   10  C   UNL     1      28.027  41.497  50.910  1.00  0.00     0.034 C 
HETATM   11  C   UNL     1      26.552  41.549  48.864  1.00  0.00     0.034 C 
ENDBRANCH   7   9
BRANCH   8  12
HETATM   12  N   UNL     1      25.609  43.475  52.710  1.00  0.00    -0.383 N 
HETATM   13  H   UNL     1      24.851  42.794  52.637  1.00  0.00     0.157 HD
HETATM   14  H   UNL     1      25.620  43.936  53.616  1.00  0.00     0.157 HD
ENDBRANCH   8  12
ENDBRANCH   2   4
ENDBRANCH   1   2
BRANCH   1  15
HETATM   15  C   UNL     1      26.256  47.166  54.099  1.00  0.00     0.259 C 
BRANCH  15  16
HETATM   16  C   UNL     1      27.369  46.395  54.779  1.00  0.00     0.152 A 
HETATM   17  N   UNL     1      27.777  46.797  55.997  1.00  0.00    -0.219 NA
HETATM   18  C   UNL     1      28.771  46.094  56.557  1.00  0.00     0.115 A 
HETATM   19  C   UNL     1      29.411  45.021  55.926  1.00  0.00     0.033 A 
HETATM   20  C   UNL     1      28.918  44.705  54.655  1.00  0.00     0.072 A 
HETATM   21  C   UNL     1      30.484  44.274  56.471  1.00  0.00     0.017 A 
HETATM   22  N   UNL     1      27.919  45.382  54.082  1.00  0.00    -0.231 NA
HETATM   23  C   UNL     1      29.497  43.646  53.966  1.00  0.00     0.032 A 
HETATM   24  C   UNL     1      30.551  42.900  54.504  1.00  0.00     0.002 A 
HETATM   25  C   UNL     1      31.048  43.217  55.761  1.00  0.00     0.001 A 
BRANCH  18  26
HETATM   26  N   UNL     1      29.148  46.527  57.835  1.00  0.00    -0.286 NA
HETATM   27  H   UNL     1      28.344  47.012  58.227  1.00  0.00     0.125 HD
HETATM   28  H   UNL     1      29.417  45.740  58.415  1.00  0.00     0.125 HD
ENDBRANCH  18  26
ENDBRANCH  15  16
ENDBRANCH   1  15
TORSDOF 7
ENDMDL
MODEL 8
REMARK VINA RESULT:      -7.8      4.006      5.624
REMARK  7 active torsions:
REMARK  status: ('A' for Active; 'I' for Inactive)
REMARK    1  A    between atoms: C_2  and  N_3 
REMARK    2  A    between atoms: C_6  and  C_7 
REMARK    3  A    between atoms: C_7  and  O_8 
REMARK    4  A    between atoms: O_8  and  C_9 
REMARK    5  A    between atoms: C_9  and  C_10 
REMARK    6  A    between atoms: C_12  and  N_13 
REMARK    7  A    between atoms: C_22  and  N_23 
ROOT
HETATM    1  O   UNL     1      25.558  47.809  51.135  1.00  0.00    -0.310 OA
ENDROOT
BRANCH   1   2
HETATM    2  C   UNL     1      25.920  47.894  49.821  1.00  0.00     0.299 C 
HETATM    3  O   UNL     1      26.911  47.353  49.343  1.00  0.00    -0.259 OA
BRANCH   2   4
HETATM    4  C   UNL     1      25.026  48.718  49.033  1.00  0.00     0.103 A 
HETATM    5  C   UNL     1      25.415  49.751  48.151  1.00  0.00     0.160 A 
HETATM    6  N   UNL     1      24.380  50.355  47.564  1.00  0.00    -0.182 NA
HETATM    7  N   UNL     1      23.305  49.745  48.108  1.00  0.00    -0.250 N 
HETATM    8  C   UNL     1      23.644  48.707  48.956  1.00  0.00     0.136 A 
BRANCH   7   9
HETATM    9  C   UNL     1      21.965  50.222  47.772  1.00  0.00     0.104 C 
HETATM   10  C   UNL     1      21.430  51.146  48.864  1.00  0.00     0.034 C 
HETATM   11  C   UNL     1      20.988  49.078  47.488  1.00  0.00     0.034 C 
ENDBRANCH   7   9
BRANCH   8  12
HETATM   12  N   UNL     1      22.729  47.913  49.560  1.00  0.00    -0.383 N 
HETATM   13  H   UNL     1      22.507  47.014  49.128  1.00  0.00     0.157 HD
HETATM   14  H   UNL     1      21.939  48.295  50.072  1.00  0.00     0.157 HD
ENDBRANCH   8  12
ENDBRANCH   2   4
ENDBRANCH   1   2
BRANCH   1  15
HETATM   15  C   UNL     1      25.291  46.474  51.592  1.00  0.00     0.259 C 
BRANCH  15  16
HETATM   16  C   UNL     1      26.342  45.902  52.521  1.00  0.00     0.152 A 
HETATM   17  N   UNL     1      26.636  46.575  53.650  1.00  0.00    -0.219 NA
HETATM   18  C   UNL     1      27.579  46.041  54.437  1.00  0.00     0.115 A 
HETATM   19  C   UNL     1      28.280  44.872  54.120  1.00  0.00     0.033 A 
HETATM   20  C   UNL     1      27.907  44.268  52.914  1.00  0.00     0.072 A 
HETATM   21  C   UNL     1      29.304  44.294  54.910  1.00  0.00     0.017 A 
HETATM   22  N   UNL     1      26.960  44.775  52.119  1.00  0.00    -0.231 NA
HETATM   23  C   UNL     1      28.553  43.099  52.533  1.00  0.00     0.032 A 
HETATM   24  C   UNL     1      29.557  42.519  53.314  1.00  0.00     0.002 A 
HETATM   25  C   UNL     1      29.937  43.120  54.506  1.00  0.00     0.001 A 
BRANCH  18  26
HETATM   26  N   UNL     1      27.834  46.756  55.614  1.00  0.00    -0.286 NA
HETATM   27  H   UNL     1      26.929  46.999  56.011  1.00  0.00     0.125 HD
HETATM   28  H   UNL     1      28.379  46.198  56.262  1.00  0.00     0.125 HD
ENDBRANCH  18  26
ENDBRANCH  15  16
ENDBRANCH   1  15
TORSDOF 7
ENDMDL
MODEL 9
REMARK VINA RESULT:      -7.7      2.129      2.807
REMARK  7 active torsions:
REMARK  status: ('A' for Active; 'I' for Inactive)
REMARK    1  A    between atoms: C_2  and  N_3 
REMARK    2  A    between atoms: C_6  and  C_7 
REMARK    3  A    between atoms: C_7  and  O_8 
REMARK    4  A    between atoms: O_8  and  C_9 
REMARK    5  A    between atoms: C_9  and  C_10 
REMARK    6  A    between atoms: C_12  and  N_13 
REMARK    7  A    between atoms: C_22  and  N_23 
ROOT
HETATM    1  O   UNL     1      24.996  43.390  52.253  1.00  0.00    -0.310 OA
ENDROOT
BRANCH   1   2
HETATM    2  C   UNL     1      24.390  43.190  51.046  1.00  0.00     0.299 C 
HETATM    3  O   UNL     1      23.301  43.659  50.736  1.00  0.00    -0.259 OA
BRANCH   2   4
HETATM    4  C   UNL     1      25.151  42.335  50.158  1.00  0.00     0.103 A 
HETATM    5  C   UNL     1      25.196  42.435  48.749  1.00  0.00     0.160 A 
HETATM    6  N   UNL     1      25.969  41.507  48.183  1.00  0.00    -0.182 NA
HETATM    7  N   UNL     1      26.390  40.762  49.229  1.00  0.00    -0.250 N 
HETATM    8  C   UNL     1      25.972  41.259  50.449  1.00  0.00     0.136 A 
BRANCH   7   9
HETATM    9  C   UNL     1      27.193  39.567  48.979  1.00  0.00     0.104 C 
HETATM   10  C   UNL     1      28.543  39.938  48.371  1.00  0.00     0.034 C 
HETATM   11  C   UNL     1      26.461  38.538  48.112  1.00  0.00     0.034 C 
ENDBRANCH   7   9
BRANCH   8  12
HETATM   12  N   UNL     1      26.331  40.714  51.635  1.00  0.00    -0.383 N 
HETATM   13  H   UNL     1      26.889  39.858  51.625  1.00  0.00     0.157 HD
HETATM   14  H   UNL     1      25.735  40.770  52.456  1.00  0.00     0.157 HD
ENDBRANCH   8  12
ENDBRANCH   2   4
ENDBRANCH   1   2
BRANCH   1  15
HETATM   15  C   UNL     1      25.917  44.492  52.280  1.00  0.00     0.259 C 
BRANCH  15  16
HETATM   16  C   UNL     1      27.225  44.205  52.990  1.00  0.00     0.152 A 
HETATM   17  N   UNL     1      27.974  43.172  52.561  1.00  0.00    -0.219 NA
HETATM   18  C   UNL     1      29.116  42.947  53.224  1.00  0.00     0.115 A 
HETATM   19  C   UNL     1      29.525  43.692  54.337  1.00  0.00     0.033 A 
HETATM   20  C   UNL     1      28.659  44.727  54.705  1.00  0.00     0.072 A 
HETATM   21  C   UNL     1      30.708  43.465  55.082  1.00  0.00     0.017 A 
HETATM   22  N   UNL     1      27.521  44.980  54.051  1.00  0.00    -0.231 NA
HETATM   23  C   UNL     1      28.998  45.516  55.796  1.00  0.00     0.032 A 
HETATM   24  C   UNL     1      30.170  45.302  56.529  1.00  0.00     0.002 A 
HETATM   25  C   UNL     1      31.027  44.271  56.173  1.00  0.00     0.001 A 
BRANCH  18  26
HETATM   26  N   UNL     1      29.881  41.882  52.730  1.00  0.00    -0.286 NA
HETATM   27  H   UNL     1      29.801  41.126  53.408  1.00  0.00     0.125 HD
HETATM   28  H   UNL     1      29.545  41.592  51.819  1.00  0.00     0.125 HD
ENDBRANCH  18  26
ENDBRANCH  15  16
ENDBRANCH   1  15
TORSDOF 7
ENDMDL
MODEL 10
REMARK VINA RESULT:      -7.6      4.830      6.516
REMARK  7 active torsions:
REMARK  status: ('A' for Active; 'I' for Inactive)
REMARK    1  A    between atoms: C_2  and  N_3 
REMARK    2  A    between atoms: C_6  and  C_7 
REMARK    3  A    between atoms: C_7  and  O_8 
REMARK    4  A    between atoms: O_8  and  C_9 
REMARK    5  A    between atoms: C_9  and  C_10 
REMARK    6  A    between atoms: C_12  and  N_13 
REMARK    7  A    between atoms: C_22  and  N_23 
ROOT
HETATM    1  O   UNL     1      24.531  47.232  50.286  1.00  0.00    -0.310 OA
ENDROOT
BRANCH   1   2
HETATM    2  C   UNL     1      23.531  47.088  49.369  1.00  0.00     0.299 C 
HETATM    3  O   UNL     1      23.337  46.069  48.716  1.00  0.00    -0.259 OA
BRANCH   2   4
HETATM    4  C   UNL     1      22.722  48.279  49.211  1.00  0.00     0.103 A 
HETATM    5  C   UNL     1      23.202  49.607  49.158  1.00  0.00     0.160 A 
HETATM    6  N   UNL     1      22.231  50.510  49.019  1.00  0.00    -0.182 NA
HETATM    7  N   UNL     1      21.102  49.769  49.035  1.00  0.00    -0.250 N 
HETATM    8  C   UNL     1      21.349  48.410  49.087  1.00  0.00     0.136 A 
BRANCH   7   9
HETATM    9  C   UNL     1      19.804  50.440  49.006  1.00  0.00     0.104 C 
HETATM   10  C   UNL     1      19.950  51.880  48.517  1.00  0.00     0.034 C 
HETATM   11  C   UNL     1      19.084  50.385  50.356  1.00  0.00     0.034 C 
ENDBRANCH   7   9
BRANCH   8  12
HETATM   12  N   UNL     1      20.370  47.475  49.044  1.00  0.00    -0.383 N 
HETATM   13  H   UNL     1      20.095  47.022  49.918  1.00  0.00     0.157 HD
HETATM   14  H   UNL     1      20.243  46.865  48.242  1.00  0.00     0.157 HD
ENDBRANCH   8  12
ENDBRANCH   2   4
ENDBRANCH   1   2
BRANCH   1  15
HETATM   15  C   UNL     1      24.838  46.038  51.022  1.00  0.00     0.259 C 
BRANCH  15  16
HETATM   16  C   UNL     1      25.618  46.267  52.301  1.00  0.00     0.152 A 
HETATM   17  N   UNL     1      25.347  47.365  53.030  1.00  0.00    -0.219 NA
HETATM   18  C   UNL     1      26.068  47.535  54.147  1.00  0.00     0.115 A 
HETATM   19  C   UNL     1      27.089  46.665  54.548  1.00  0.00     0.033 A 
HETATM   20  C   UNL     1      27.297  45.570  53.703  1.00  0.00     0.072 A 
HETATM   21  C   UNL     1      27.893  46.827  55.703  1.00  0.00     0.017 A 
HETATM   22  N   UNL     1      26.582  45.372  52.592  1.00  0.00    -0.231 NA
HETATM   23  C   UNL     1      28.290  44.657  54.037  1.00  0.00     0.032 A 
HETATM   24  C   UNL     1      29.079  44.807  55.182  1.00  0.00     0.002 A 
HETATM   25  C   UNL     1      28.882  45.898  56.017  1.00  0.00     0.001 A 
BRANCH  18  26
HETATM   26  N   UNL     1      25.736  48.674  54.892  1.00  0.00    -0.286 NA
HETATM   27  H   UNL     1      26.400  48.723  55.662  1.00  0.00     0.125 HD
HETATM   28  H   UNL     1      25.783  49.506  54.315  1.00  0.00     0.125 HD
ENDBRANCH  18  26
ENDBRANCH  15  16
ENDBRANCH   1  15
TORSDOF 7
ENDMDL
