MODEL 1
REMARK VINA RESULT:      -8.1      0.000      0.000
REMARK  7 active torsions:
REMARK  status: ('A' for Active; 'I' for Inactive)
REMARK    1  A    between atoms: O_2  and  C_3 
REMARK    2  A    between atoms: C_4  and  C_5 
REMARK    3  A    between atoms: C_6  and  C_7 
REMARK       I    between atoms: C_7  and  N_8 
REMARK    4  A    between atoms: N_8  and  C_9 
REMARK    5  A    between atoms: C_9  and  C_10 
REMARK    6  A    between atoms: C_10  and  N_11 
REMARK    7  A    between atoms: C_10  and  C_18 
ROOT
HETATM    1  C   UNL     1      25.508  45.706  52.619  1.00  0.00     0.241 C 
HETATM    2  N   UNL     1      24.755  45.515  51.484  1.00  0.00    -0.355 N 
HETATM    3  O   UNL     1      26.409  46.527  52.684  1.00  0.00    -0.269 OA
HETATM    4  H   UNL     1      24.092  44.746  51.480  1.00  0.00     0.162 HD
ENDROOT
BRANCH   2   5
HETATM    5  C   UNL     1      25.197  46.061  50.206  1.00  0.00     0.163 C 
BRANCH   5   6
HETATM    6  C   UNL     1      24.610  47.438  49.805  1.00  0.00     0.262 C 
BRANCH   6   7
HETATM    7  N   UNL     1      23.434  47.369  48.825  1.00  0.00    -0.059 N 
HETATM    8  H   UNL     1      23.882  47.668  47.946  1.00  0.00     0.280 HD
HETATM    9  C   UNL     1      22.881  45.998  48.525  1.00  0.00     0.236 C 
HETATM   10  C   UNL     1      22.016  46.088  47.273  1.00  0.00     0.028 C 
HETATM   11  C   UNL     1      20.897  47.113  47.444  1.00  0.00     0.003 C 
HETATM   12  C   UNL     1      21.436  48.469  47.892  1.00  0.00     0.028 C 
HETATM   13  C   UNL     1      22.330  48.351  49.121  1.00  0.00     0.236 C 
ENDBRANCH   6   7
BRANCH   6  14
HETATM   14  C   UNL     1      25.654  48.418  49.349  1.00  0.00     0.085 A 
HETATM   15  O   UNL     1      26.945  48.111  49.690  1.00  0.00    -0.325 OA
HETATM   16  C   UNL     1      27.736  49.090  49.181  1.00  0.00     0.142 A 
HETATM   17  C   UNL     1      26.978  50.017  48.506  1.00  0.00     0.027 A 
HETATM   18  C   UNL     1      25.635  49.580  48.603  1.00  0.00     0.037 A 
ENDBRANCH   6  14
ENDBRANCH   5   6
ENDBRANCH   2   5
BRANCH   1  19
HETATM   19  C   UNL     1      25.068  44.855  53.747  1.00  0.00     0.075 C 
HETATM   20  C   UNL     1      25.855  43.953  54.353  1.00  0.00     0.020 C 
BRANCH  20  21
HETATM   21  C   UNL     1      27.230  43.619  53.965  1.00  0.00    -0.001 A 
HETATM   22  C   UNL     1      27.513  43.037  52.720  1.00  0.00     0.078 A 
HETATM   23  C   UNL     1      28.823  42.686  52.380  1.00  0.00     0.039 A 
HETATM   24  C   UNL     1      29.868  42.961  53.262  1.00  0.00     0.022 A 
HETATM   25  C   UNL     1      29.596  43.572  54.485  1.00  0.00     0.012 A 
HETATM   26  C   UNL     1      28.287  43.903  54.841  1.00  0.00     0.033 A 
HETATM   27 BR   UNL     1      31.010  43.945  55.684  1.00  0.00    -0.051 Br
BRANCH  22  28
HETATM   28  O   UNL     1      26.489  42.725  51.862  1.00  0.00    -0.355 OA
HETATM   29  C   UNL     1      26.943  42.756  50.509  1.00  0.00     0.210 C 
ENDBRANCH  22  28
ENDBRANCH  20  21
ENDBRANCH   1  19
TORSDOF 7
ENDMDL
MODEL 2
REMARK VINA RESULT:      -8.0      1.552      2.190
REMARK  7 active torsions:
REMARK  status: ('A' for Active; 'I' for Inactive)
REMARK    1  A    between atoms: O_2  and  C_3 
REMARK    2  A    between atoms: C_4  and  C_5 
REMARK    3  A    between atoms: C_6  and  C_7 
REMARK       I    between atoms: C_7  and  N_8 
REMARK    4  A    between atoms: N_8  and  C_9 
REMARK    5  A    between atoms: C_9  and  C_10 
REMARK    6  A    between atoms: C_10  and  N_11 
REMARK    7  A    between atoms: C_10  and  C_18 
ROOT
HETATM    1  C   UNL     1      25.696  45.902  52.862  1.00  0.00     0.241 C 
HETATM    2  N   UNL     1      24.901  45.582  51.787  1.00  0.00    -0.355 N 
HETATM    3  O   UNL     1      26.577  46.747  52.806  1.00  0.00    -0.269 OA
HETATM    4  H   UNL     1      24.261  44.801  51.888  1.00  0.00     0.162 HD
ENDROOT
BRANCH   2   5
HETATM    5  C   UNL     1      25.271  46.011  50.443  1.00  0.00     0.163 C 
BRANCH   5   6
HETATM    6  C   UNL     1      24.642  47.336  49.944  1.00  0.00     0.262 C 
BRANCH   6   7
HETATM    7  N   UNL     1      23.485  47.159  48.953  1.00  0.00    -0.059 N 
HETATM    8  H   UNL     1      23.952  47.361  48.057  1.00  0.00     0.280 HD
HETATM    9  C   UNL     1      22.938  45.762  48.793  1.00  0.00     0.236 C 
HETATM   10  C   UNL     1      22.099  45.715  47.521  1.00  0.00     0.028 C 
HETATM   11  C   UNL     1      20.977  46.751  47.556  1.00  0.00     0.003 C 
HETATM   12  C   UNL     1      21.509  48.148  47.865  1.00  0.00     0.028 C 
HETATM   13  C   UNL     1      22.377  48.165  49.118  1.00  0.00     0.236 C 
ENDBRANCH   6   7
BRANCH   6  14
HETATM   14  C   UNL     1      25.656  48.322  49.441  1.00  0.00     0.085 A 
HETATM   15  O   UNL     1      26.962  48.035  49.740  1.00  0.00    -0.325 OA
HETATM   16  C   UNL     1      27.722  49.018  49.192  1.00  0.00     0.142 A 
HETATM   17  C   UNL     1      26.930  49.927  48.534  1.00  0.00     0.027 A 
HETATM   18  C   UNL     1      25.597  49.475  48.683  1.00  0.00     0.037 A 
ENDBRANCH   6  14
ENDBRANCH   5   6
ENDBRANCH   2   5
BRANCH   1  19
HETATM   19  C   UNL     1      25.331  45.155  54.087  1.00  0.00     0.075 C 
HETATM   20  C   UNL     1      26.071  44.165  54.607  1.00  0.00     0.020 C 
BRANCH  20  21
HETATM   21  C   UNL     1      27.305  43.623  54.026  1.00  0.00    -0.001 A 
HETATM   22  C   UNL     1      28.565  44.074  54.445  1.00  0.00     0.078 A 
HETATM   23  C   UNL     1      29.731  43.580  53.855  1.00  0.00     0.039 A 
HETATM   24  C   UNL     1      29.649  42.592  52.873  1.00  0.00     0.022 A 
HETATM   25  C   UNL     1      28.400  42.115  52.478  1.00  0.00     0.012 A 
HETATM   26  C   UNL     1      27.231  42.622  53.047  1.00  0.00     0.033 A 
HETATM   27 BR   UNL     1      28.284  40.777  51.147  1.00  0.00    -0.051 Br
BRANCH  22  28
HETATM   28  O   UNL     1      28.657  45.074  55.381  1.00  0.00    -0.355 OA
HETATM   29  C   UNL     1      29.950  45.076  55.986  1.00  0.00     0.210 C 
ENDBRANCH  22  28
ENDBRANCH  20  21
ENDBRANCH   1  19
TORSDOF 7
ENDMDL
MODEL 3
REMARK VINA RESULT:      -8.0      1.599      2.934
REMARK  7 active torsions:
REMARK  status: ('A' for Active; 'I' for Inactive)
REMARK    1  A    between atoms: O_2  and  C_3 
REMARK    2  A    between atoms: C_4  and  C_5 
REMARK    3  A    between atoms: C_6  and  C_7 
REMARK       I    between atoms: C_7  and  N_8 
REMARK    4  A    between atoms: N_8  and  C_9 
REMARK    5  A    between atoms: C_9  and  C_10 
REMARK    6  A    between atoms: C_10  and  N_11 
REMARK    7  A    between atoms: C_10  and  C_18 
ROOT
HETATM    1  C   UNL     1      25.982  45.801  53.562  1.00  0.00     0.241 C 
HETATM    2  N   UNL     1      25.535  46.030  52.283  1.00  0.00    -0.355 N 
HETATM    3  O   UNL     1      26.721  46.573  54.154  1.00  0.00    -0.269 OA
HETATM    4  H   UNL     1      25.005  45.293  51.827  1.00  0.00     0.162 HD
ENDROOT
BRANCH   2   5
HETATM    5  C   UNL     1      26.166  47.050  51.453  1.00  0.00     0.163 C 
BRANCH   5   6
HETATM    6  C   UNL     1      26.100  46.830  49.920  1.00  0.00     0.262 C 
BRANCH   6   7
HETATM    7  N   UNL     1      25.398  47.952  49.145  1.00  0.00    -0.059 N 
HETATM    8  H   UNL     1      25.263  47.510  48.224  1.00  0.00     0.280 HD
HETATM    9  C   UNL     1      24.008  48.322  49.599  1.00  0.00     0.236 C 
HETATM   10  C   UNL     1      23.344  49.144  48.500  1.00  0.00     0.028 C 
HETATM   11  C   UNL     1      24.166  50.384  48.159  1.00  0.00     0.003 C 
HETATM   12  C   UNL     1      25.616  50.030  47.841  1.00  0.00     0.028 C 
HETATM   13  C   UNL     1      26.249  49.177  48.934  1.00  0.00     0.236 C 
ENDBRANCH   6   7
BRANCH   6  14
HETATM   14  C   UNL     1      25.571  45.478  49.537  1.00  0.00     0.085 A 
HETATM   15  O   UNL     1      26.444  44.434  49.695  1.00  0.00    -0.325 OA
HETATM   16  C   UNL     1      25.788  43.305  49.320  1.00  0.00     0.142 A 
HETATM   17  C   UNL     1      24.504  43.602  48.935  1.00  0.00     0.027 A 
HETATM   18  C   UNL     1      24.357  45.002  49.084  1.00  0.00     0.037 A 
ENDBRANCH   6  14
ENDBRANCH   5   6
ENDBRANCH   2   5
BRANCH   1  19
HETATM   19  C   UNL     1      25.430  44.558  54.148  1.00  0.00     0.075 C 
HETATM   20  C   UNL     1      26.170  43.481  54.449  1.00  0.00     0.020 C 
BRANCH  20  21
HETATM   21  C   UNL     1      27.608  43.332  54.194  1.00  0.00    -0.001 A 
HETATM   22  C   UNL     1      28.079  42.711  53.028  1.00  0.00     0.078 A 
HETATM   23  C   UNL     1      29.450  42.539  52.818  1.00  0.00     0.039 A 
HETATM   24  C   UNL     1      30.364  43.032  53.749  1.00  0.00     0.022 A 
HETATM   25  C   UNL     1      29.901  43.682  54.891  1.00  0.00     0.012 A 
HETATM   26  C   UNL     1      28.533  43.837  55.119  1.00  0.00     0.033 A 
HETATM   27 BR   UNL     1      31.137  44.352  56.156  1.00  0.00    -0.051 Br
BRANCH  22  28
HETATM   28  O   UNL     1      27.188  42.186  52.126  1.00  0.00    -0.355 OA
HETATM   29  C   UNL     1      27.732  41.020  51.506  1.00  0.00     0.210 C 
ENDBRANCH  22  28
ENDBRANCH  20  21
ENDBRANCH   1  19
TORSDOF 7
ENDMDL
MODEL 4
REMARK VINA RESULT:      -7.8     11.468     14.540
REMARK  7 active torsions:
REMARK  status: ('A' for Active; 'I' for Inactive)
REMARK    1  A    between atoms: O_2  and  C_3 
REMARK    2  A    between atoms: C_4  and  C_5 
REMARK    3  A    between atoms: C_6  and  C_7 
REMARK       I    between atoms: C_7  and  N_8 
REMARK    4  A    between atoms: N_8  and  C_9 
REMARK    5  A    between atoms: C_9  and  C_10 
REMARK    6  A    between atoms: C_10  and  N_11 
REMARK    7  A    between atoms: C_10  and  C_18 
ROOT
HETATM    1  C   UNL     1      30.758  51.709  38.238  1.00  0.00     0.241 C 
HETATM    2  N   UNL     1      31.296  52.265  39.375  1.00  0.00    -0.355 N 
HETATM    3  O   UNL     1      31.278  50.775  37.648  1.00  0.00    -0.269 OA
HETATM    4  H   UNL     1      30.855  53.101  39.747  1.00  0.00     0.162 HD
ENDROOT
BRANCH   2   5
HETATM    5  C   UNL     1      32.672  51.973  39.758  1.00  0.00     0.163 C 
BRANCH   5   6
HETATM    6  C   UNL     1      32.914  51.623  41.248  1.00  0.00     0.262 C 
BRANCH   6   7
HETATM    7  N   UNL     1      34.390  51.570  41.659  1.00  0.00    -0.059 N 
HETATM    8  H   UNL     1      34.756  52.428  41.219  1.00  0.00     0.280 HD
HETATM    9  C   UNL     1      34.691  51.735  43.128  1.00  0.00     0.236 C 
HETATM   10  C   UNL     1      36.176  52.044  43.285  1.00  0.00     0.028 C 
HETATM   11  C   UNL     1      37.041  50.953  42.659  1.00  0.00     0.003 C 
HETATM   12  C   UNL     1      36.642  50.677  41.213  1.00  0.00     0.028 C 
HETATM   13  C   UNL     1      35.148  50.408  41.072  1.00  0.00     0.236 C 
ENDBRANCH   6   7
BRANCH   6  14
HETATM   14  C   UNL     1      32.169  50.400  41.700  1.00  0.00     0.085 A 
HETATM   15  O   UNL     1      31.855  49.500  40.716  1.00  0.00    -0.325 OA
HETATM   16  C   UNL     1      31.209  48.465  41.313  1.00  0.00     0.142 A 
HETATM   17  C   UNL     1      31.113  48.677  42.667  1.00  0.00     0.027 A 
HETATM   18  C   UNL     1      31.742  49.919  42.922  1.00  0.00     0.037 A 
ENDBRANCH   6  14
ENDBRANCH   5   6
ENDBRANCH   2   5
BRANCH   1  19
HETATM   19  C   UNL     1      29.470  52.329  37.852  1.00  0.00     0.075 C 
HETATM   20  C   UNL     1      28.280  51.941  38.334  1.00  0.00     0.020 C 
BRANCH  20  21
HETATM   21  C   UNL     1      28.054  50.819  39.253  1.00  0.00    -0.001 A 
HETATM   22  C   UNL     1      27.869  51.031  40.627  1.00  0.00     0.078 A 
HETATM   23  C   UNL     1      27.696  49.951  41.497  1.00  0.00     0.039 A 
HETATM   24  C   UNL     1      27.655  48.650  40.993  1.00  0.00     0.022 A 
HETATM   25  C   UNL     1      27.802  48.438  39.623  1.00  0.00     0.012 A 
HETATM   26  C   UNL     1      27.999  49.510  38.752  1.00  0.00     0.033 A 
HETATM   27 BR   UNL     1      27.748  46.677  38.936  1.00  0.00    -0.051 Br
BRANCH  22  28
HETATM   28  O   UNL     1      27.948  52.301  41.140  1.00  0.00    -0.355 OA
HETATM   29  C   UNL     1      29.144  52.459  41.904  1.00  0.00     0.210 C 
ENDBRANCH  22  28
ENDBRANCH  20  21
ENDBRANCH   1  19
TORSDOF 7
ENDMDL
MODEL 5
REMARK VINA RESULT:      -7.7     11.220     13.055
REMARK  7 active torsions:
REMARK  status: ('A' for Active; 'I' for Inactive)
REMARK    1  A    between atoms: O_2  and  C_3 
REMARK    2  A    between atoms: C_4  and  C_5 
REMARK    3  A    between atoms: C_6  and  C_7 
REMARK       I    between atoms: C_7  and  N_8 
REMARK    4  A    between atoms: N_8  and  C_9 
REMARK    5  A    between atoms: C_9  and  C_10 
REMARK    6  A    between atoms: C_10  and  N_11 
REMARK    7  A    between atoms: C_10  and  C_18 
ROOT
HETATM    1  C   UNL     1      27.943  50.736  40.972  1.00  0.00     0.241 C 
HETATM    2  N   UNL     1      28.400  50.027  39.886  1.00  0.00    -0.355 N 
HETATM    3  O   UNL     1      27.606  50.202  42.018  1.00  0.00    -0.269 OA
HETATM    4  H   UNL     1      28.564  50.536  39.023  1.00  0.00     0.162 HD
ENDROOT
BRANCH   2   5
HETATM    5  C   UNL     1      28.213  48.583  39.818  1.00  0.00     0.163 C 
BRANCH   5   6
HETATM    6  C   UNL     1      29.489  47.732  39.594  1.00  0.00     0.262 C 
BRANCH   6   7
HETATM    7  N   UNL     1      29.227  46.242  39.348  1.00  0.00    -0.059 N 
HETATM    8  H   UNL     1      30.010  45.809  39.860  1.00  0.00     0.280 HD
HETATM    9  C   UNL     1      27.988  45.659  39.980  1.00  0.00     0.236 C 
HETATM   10  C   UNL     1      28.105  44.139  39.960  1.00  0.00     0.028 C 
HETATM   11  C   UNL     1      28.303  43.615  38.540  1.00  0.00     0.003 C 
HETATM   12  C   UNL     1      29.468  44.309  37.840  1.00  0.00     0.028 C 
HETATM   13  C   UNL     1      29.352  45.827  37.905  1.00  0.00     0.236 C 
ENDBRANCH   6   7
BRANCH   6  14
HETATM   14  C   UNL     1      30.536  47.943  40.650  1.00  0.00     0.085 A 
HETATM   15  O   UNL     1      31.816  47.616  40.290  1.00  0.00    -0.325 OA
HETATM   16  C   UNL     1      32.613  47.890  41.355  1.00  0.00     0.142 A 
HETATM   17  C   UNL     1      31.870  48.400  42.391  1.00  0.00     0.027 A 
HETATM   18  C   UNL     1      30.531  48.447  41.936  1.00  0.00     0.037 A 
ENDBRANCH   6  14
ENDBRANCH   5   6
ENDBRANCH   2   5
BRANCH   1  19
HETATM   19  C   UNL     1      27.958  52.200  40.747  1.00  0.00     0.075 C 
HETATM   20  C   UNL     1      29.068  52.950  40.792  1.00  0.00     0.020 C 
BRANCH  20  21
HETATM   21  C   UNL     1      30.413  52.470  41.127  1.00  0.00    -0.001 A 
HETATM   22  C   UNL     1      31.299  52.033  40.132  1.00  0.00     0.078 A 
HETATM   23  C   UNL     1      32.562  51.539  40.469  1.00  0.00     0.039 A 
HETATM   24  C   UNL     1      32.970  51.524  41.803  1.00  0.00     0.022 A 
HETATM   25  C   UNL     1      32.107  51.990  42.793  1.00  0.00     0.012 A 
HETATM   26  C   UNL     1      30.835  52.463  42.465  1.00  0.00     0.033 A 
HETATM   27 BR   UNL     1      32.655  51.971  44.602  1.00  0.00    -0.051 Br
BRANCH  22  28
HETATM   28  O   UNL     1      30.894  52.005  38.821  1.00  0.00    -0.355 OA
HETATM   29  C   UNL     1      31.796  51.227  38.034  1.00  0.00     0.210 C 
ENDBRANCH  22  28
ENDBRANCH  20  21
ENDBRANCH   1  19
TORSDOF 7
ENDMDL
MODEL 6
REMARK VINA RESULT:      -7.6     11.504     13.788
REMARK  7 active torsions:
REMARK  status: ('A' for Active; 'I' for Inactive)
REMARK    1  A    between atoms: O_2  and  C_3 
REMARK    2  A    between atoms: C_4  and  C_5 
REMARK    3  A    between atoms: C_6  and  C_7 
REMARK       I    between atoms: C_7  and  N_8 
REMARK    4  A    between atoms: N_8  and  C_9 
REMARK    5  A    between atoms: C_9  and  C_10 
REMARK    6  A    between atoms: C_10  and  N_11 
REMARK    7  A    between atoms: C_10  and  C_18 
ROOT
HETATM    1  C   UNL     1      30.188  47.982  41.048  1.00  0.00     0.241 C 
HETATM    2  N   UNL     1      31.251  48.750  41.461  1.00  0.00    -0.355 N 
HETATM    3  O   UNL     1      29.145  47.901  41.680  1.00  0.00    -0.269 OA
HETATM    4  H   UNL     1      32.115  48.685  40.932  1.00  0.00     0.162 HD
ENDROOT
BRANCH   2   5
HETATM    5  C   UNL     1      31.306  49.258  42.827  1.00  0.00     0.163 C 
BRANCH   5   6
HETATM    6  C   UNL     1      31.849  50.699  43.004  1.00  0.00     0.262 C 
BRANCH   6   7
HETATM    7  N   UNL     1      31.056  51.776  42.254  1.00  0.00    -0.059 N 
HETATM    8  H   UNL     1      31.020  52.529  42.957  1.00  0.00     0.280 HD
HETATM    9  C   UNL     1      31.728  52.401  41.057  1.00  0.00     0.236 C 
HETATM   10  C   UNL     1      30.982  53.681  40.698  1.00  0.00     0.028 C 
HETATM   11  C   UNL     1      29.505  53.406  40.425  1.00  0.00     0.003 C 
HETATM   12  C   UNL     1      28.852  52.640  41.572  1.00  0.00     0.028 C 
HETATM   13  C   UNL     1      29.635  51.386  41.942  1.00  0.00     0.236 C 
ENDBRANCH   6   7
BRANCH   6  14
HETATM   14  C   UNL     1      33.323  50.815  42.744  1.00  0.00     0.085 A 
HETATM   15  O   UNL     1      33.826  49.965  41.794  1.00  0.00    -0.325 OA
HETATM   16  C   UNL     1      35.154  50.228  41.685  1.00  0.00     0.142 A 
HETATM   17  C   UNL     1      35.513  51.242  42.540  1.00  0.00     0.027 A 
HETATM   18  C   UNL     1      34.332  51.631  43.216  1.00  0.00     0.037 A 
ENDBRANCH   6  14
ENDBRANCH   5   6
ENDBRANCH   2   5
BRANCH   1  19
HETATM   19  C   UNL     1      30.430  47.322  39.746  1.00  0.00     0.075 C 
HETATM   20  C   UNL     1      29.794  47.652  38.612  1.00  0.00     0.020 C 
BRANCH  20  21
HETATM   21  C   UNL     1      28.729  48.654  38.488  1.00  0.00    -0.001 A 
HETATM   22  C   UNL     1      29.026  50.018  38.350  1.00  0.00     0.078 A 
HETATM   23  C   UNL     1      28.002  50.966  38.275  1.00  0.00     0.039 A 
HETATM   24  C   UNL     1      26.670  50.553  38.287  1.00  0.00     0.022 A 
HETATM   25  C   UNL     1      26.370  49.195  38.388  1.00  0.00     0.012 A 
HETATM   26  C   UNL     1      27.387  48.246  38.487  1.00  0.00     0.033 A 
HETATM   27 BR   UNL     1      24.565  48.632  38.404  1.00  0.00    -0.051 Br
BRANCH  22  28
HETATM   28  O   UNL     1      30.332  50.439  38.378  1.00  0.00    -0.355 OA
HETATM   29  C   UNL     1      30.506  51.587  37.548  1.00  0.00     0.210 C 
ENDBRANCH  22  28
ENDBRANCH  20  21
ENDBRANCH   1  19
TORSDOF 7
ENDMDL
MODEL 7
REMARK VINA RESULT:      -7.5      4.742      9.091
REMARK  7 active torsions:
REMARK  status: ('A' for Active; 'I' for Inactive)
REMARK    1  A    between atoms: O_2  and  C_3 
REMARK    2  A    between atoms: C_4  and  C_5 
REMARK    3  A    between atoms: C_6  and  C_7 
REMARK       I    between atoms: C_7  and  N_8 
REMARK    4  A    between atoms: N_8  and  C_9 
REMARK    5  A    between atoms: C_9  and  C_10 
REMARK    6  A    between atoms: C_10  and  N_11 
REMARK    7  A    between atoms: C_10  and  C_18 
ROOT
HETATM    1  C   UNL     1      22.799  50.151  48.412  1.00  0.00     0.241 C 
HETATM    2  N   UNL     1      22.933  49.139  49.333  1.00  0.00    -0.355 N 
HETATM    3  O   UNL     1      23.320  50.114  47.308  1.00  0.00    -0.269 OA
HETATM    4  H   UNL     1      22.551  49.290  50.261  1.00  0.00     0.162 HD
ENDROOT
BRANCH   2   5
HETATM    5  C   UNL     1      23.957  48.115  49.159  1.00  0.00     0.163 C 
BRANCH   5   6
HETATM    6  C   UNL     1      23.521  46.652  49.422  1.00  0.00     0.262 C 
BRANCH   6   7
HETATM    7  N   UNL     1      24.657  45.714  49.845  1.00  0.00    -0.059 N 
HETATM    8  H   UNL     1      24.654  45.029  49.076  1.00  0.00     0.280 HD
HETATM    9  C   UNL     1      26.051  46.292  49.838  1.00  0.00     0.236 C 
HETATM   10  C   UNL     1      27.051  45.143  49.897  1.00  0.00     0.028 C 
HETATM   11  C   UNL     1      26.819  44.266  51.126  1.00  0.00     0.003 C 
HETATM   12  C   UNL     1      25.370  43.798  51.220  1.00  0.00     0.028 C 
HETATM   13  C   UNL     1      24.386  44.957  51.119  1.00  0.00     0.236 C 
ENDBRANCH   6   7
BRANCH   6  14
HETATM   14  C   UNL     1      22.706  46.065  48.305  1.00  0.00     0.085 A 
HETATM   15  O   UNL     1      22.241  46.959  47.377  1.00  0.00    -0.325 OA
HETATM   16  C   UNL     1      21.553  46.249  46.447  1.00  0.00     0.142 A 
HETATM   17  C   UNL     1      21.577  44.909  46.753  1.00  0.00     0.027 A 
HETATM   18  C   UNL     1      22.330  44.786  47.945  1.00  0.00     0.037 A 
ENDBRANCH   6  14
ENDBRANCH   5   6
ENDBRANCH   2   5
BRANCH   1  19
HETATM   19  C   UNL     1      21.919  51.243  48.885  1.00  0.00     0.075 C 
HETATM   20  C   UNL     1      20.590  51.264  48.702  1.00  0.00     0.020 C 
BRANCH  20  21
HETATM   21  C   UNL     1      19.812  50.264  47.962  1.00  0.00    -0.001 A 
HETATM   22  C   UNL     1      19.445  49.046  48.552  1.00  0.00     0.078 A 
HETATM   23  C   UNL     1      18.739  48.085  47.822  1.00  0.00     0.039 A 
HETATM   24  C   UNL     1      18.351  48.356  46.509  1.00  0.00     0.022 A 
HETATM   25  C   UNL     1      18.684  49.579  45.930  1.00  0.00     0.012 A 
HETATM   26  C   UNL     1      19.408  50.533  46.646  1.00  0.00     0.033 A 
HETATM   27 BR   UNL     1      18.160  49.949  44.151  1.00  0.00    -0.051 Br
BRANCH  22  28
HETATM   28  O   UNL     1      19.856  48.753  49.828  1.00  0.00    -0.355 OA
HETATM   29  C   UNL     1      18.739  48.713  50.716  1.00  0.00     0.210 C 
ENDBRANCH  22  28
ENDBRANCH  20  21
ENDBRANCH   1  19
TORSDOF 7
ENDMDL
MODEL 8
REMARK VINA RESULT:      -7.4      2.774      4.542
REMARK  7 active torsions:
REMARK  status: ('A' for Active; 'I' for Inactive)
REMARK    1  A    between atoms: O_2  and  C_3 
REMARK    2  A    between atoms: C_4  and  C_5 
REMARK    3  A    between atoms: C_6  and  C_7 
REMARK       I    between atoms: C_7  and  N_8 
REMARK    4  A    between atoms: N_8  and  C_9 
REMARK    5  A    between atoms: C_9  and  C_10 
REMARK    6  A    between atoms: C_10  and  N_11 
REMARK    7  A    between atoms: C_10  and  C_18 
ROOT
HETATM    1  C   UNL     1      27.749  42.677  53.210  1.00  0.00     0.241 C 
HETATM    2  N   UNL     1      27.032  43.506  52.380  1.00  0.00    -0.355 N 
HETATM    3  O   UNL     1      27.221  41.962  54.047  1.00  0.00    -0.269 OA
HETATM    4  H   UNL     1      27.552  44.141  51.781  1.00  0.00     0.162 HD
ENDROOT
BRANCH   2   5
HETATM    5  C   UNL     1      25.635  43.807  52.667  1.00  0.00     0.163 C 
BRANCH   5   6
HETATM    6  C   UNL     1      24.836  44.511  51.541  1.00  0.00     0.262 C 
BRANCH   6   7
HETATM    7  N   UNL     1      24.407  43.591  50.392  1.00  0.00    -0.059 N 
HETATM    8  H   UNL     1      24.978  43.955  49.615  1.00  0.00     0.280 HD
HETATM    9  C   UNL     1      24.796  42.138  50.506  1.00  0.00     0.236 C 
HETATM   10  C   UNL     1      24.641  41.488  49.136  1.00  0.00     0.028 C 
HETATM   11  C   UNL     1      23.218  41.641  48.605  1.00  0.00     0.003 C 
HETATM   12  C   UNL     1      22.762  43.098  48.625  1.00  0.00     0.028 C 
HETATM   13  C   UNL     1      22.962  43.741  49.993  1.00  0.00     0.236 C 
ENDBRANCH   6   7
BRANCH   6  14
HETATM   14  C   UNL     1      25.500  45.758  51.033  1.00  0.00     0.085 A 
HETATM   15  O   UNL     1      26.270  45.606  49.910  1.00  0.00    -0.325 OA
HETATM   16  C   UNL     1      26.765  46.831  49.596  1.00  0.00     0.142 A 
HETATM   17  C   UNL     1      26.317  47.773  50.489  1.00  0.00     0.027 A 
HETATM   18  C   UNL     1      25.491  47.087  51.412  1.00  0.00     0.037 A 
ENDBRANCH   6  14
ENDBRANCH   5   6
ENDBRANCH   2   5
BRANCH   1  19
HETATM   19  C   UNL     1      29.204  42.711  52.937  1.00  0.00     0.075 C 
HETATM   20  C   UNL     1      30.080  43.441  53.644  1.00  0.00     0.020 C 
BRANCH  20  21
HETATM   21  C   UNL     1      29.743  44.357  54.739  1.00  0.00    -0.001 A 
HETATM   22  C   UNL     1      30.376  44.263  55.987  1.00  0.00     0.078 A 
HETATM   23  C   UNL     1      30.016  45.115  57.035  1.00  0.00     0.039 A 
HETATM   24  C   UNL     1      29.053  46.103  56.828  1.00  0.00     0.022 A 
HETATM   25  C   UNL     1      28.447  46.224  55.579  1.00  0.00     0.012 A 
HETATM   26  C   UNL     1      28.785  45.361  54.536  1.00  0.00     0.033 A 
HETATM   27 BR   UNL     1      27.141  47.562  55.295  1.00  0.00    -0.051 Br
BRANCH  22  28
HETATM   28  O   UNL     1      31.295  43.268  56.214  1.00  0.00    -0.355 OA
HETATM   29  C   UNL     1      31.973  43.487  57.451  1.00  0.00     0.210 C 
ENDBRANCH  22  28
ENDBRANCH  20  21
ENDBRANCH   1  19
TORSDOF 7
ENDMDL
MODEL 9
REMARK VINA RESULT:      -7.4     11.495     14.240
REMARK  7 active torsions:
REMARK  status: ('A' for Active; 'I' for Inactive)
REMARK    1  A    between atoms: O_2  and  C_3 
REMARK    2  A    between atoms: C_4  and  C_5 
REMARK    3  A    between atoms: C_6  and  C_7 
REMARK       I    between atoms: C_7  and  N_8 
REMARK    4  A    between atoms: N_8  and  C_9 
REMARK    5  A    between atoms: C_9  and  C_10 
REMARK    6  A    between atoms: C_10  and  N_11 
REMARK    7  A    between atoms: C_10  and  C_18 
ROOT
HETATM    1  C   UNL     1      32.005  48.322  41.075  1.00  0.00     0.241 C 
HETATM    2  N   UNL     1      32.983  49.101  40.502  1.00  0.00    -0.355 N 
HETATM    3  O   UNL     1      31.669  48.437  42.244  1.00  0.00    -0.269 OA
HETATM    4  H   UNL     1      33.272  48.876  39.555  1.00  0.00     0.162 HD
ENDROOT
BRANCH   2   5
HETATM    5  C   UNL     1      33.883  49.887  41.337  1.00  0.00     0.163 C 
BRANCH   5   6
HETATM    6  C   UNL     1      33.912  51.414  41.071  1.00  0.00     0.262 C 
BRANCH   6   7
HETATM    7  N   UNL     1      35.015  52.171  41.821  1.00  0.00    -0.059 N 
HETATM    8  H   UNL     1      34.574  53.092  41.957  1.00  0.00     0.280 HD
HETATM    9  C   UNL     1      35.337  51.692  43.215  1.00  0.00     0.236 C 
HETATM   10  C   UNL     1      36.143  52.775  43.923  1.00  0.00     0.028 C 
HETATM   11  C   UNL     1      37.412  53.121  43.148  1.00  0.00     0.003 C 
HETATM   12  C   UNL     1      37.107  53.464  41.692  1.00  0.00     0.028 C 
HETATM   13  C   UNL     1      36.268  52.387  41.014  1.00  0.00     0.236 C 
ENDBRANCH   6   7
BRANCH   6  14
HETATM   14  C   UNL     1      32.573  52.072  41.243  1.00  0.00     0.085 A 
HETATM   15  O   UNL     1      31.885  51.729  42.377  1.00  0.00    -0.325 OA
HETATM   16  C   UNL     1      30.723  52.431  42.366  1.00  0.00     0.142 A 
HETATM   17  C   UNL     1      30.656  53.231  41.251  1.00  0.00     0.027 A 
HETATM   18  C   UNL     1      31.854  53.011  40.530  1.00  0.00     0.037 A 
ENDBRANCH   6  14
ENDBRANCH   5   6
ENDBRANCH   2   5
BRANCH   1  19
HETATM   19  C   UNL     1      31.382  47.385  40.114  1.00  0.00     0.075 C 
HETATM   20  C   UNL     1      30.211  47.614  39.500  1.00  0.00     0.020 C 
BRANCH  20  21
HETATM   21  C   UNL     1      29.340  48.773  39.724  1.00  0.00    -0.001 A 
HETATM   22  C   UNL     1      28.344  48.755  40.711  1.00  0.00     0.078 A 
HETATM   23  C   UNL     1      27.494  49.850  40.886  1.00  0.00     0.039 A 
HETATM   24  C   UNL     1      27.665  50.995  40.107  1.00  0.00     0.022 A 
HETATM   25  C   UNL     1      28.677  51.031  39.148  1.00  0.00     0.012 A 
HETATM   26  C   UNL     1      29.514  49.932  38.953  1.00  0.00     0.033 A 
HETATM   27 BR   UNL     1      28.912  52.581  38.090  1.00  0.00    -0.051 Br
BRANCH  22  28
HETATM   28  O   UNL     1      28.140  47.620  41.455  1.00  0.00    -0.355 OA
HETATM   29  C   UNL     1      26.966  46.937  41.014  1.00  0.00     0.210 C 
ENDBRANCH  22  28
ENDBRANCH  20  21
ENDBRANCH   1  19
TORSDOF 7
ENDMDL
MODEL 10
REMARK VINA RESULT:      -7.4      1.798      2.374
REMARK  7 active torsions:
REMARK  status: ('A' for Active; 'I' for Inactive)
REMARK    1  A    between atoms: O_2  and  C_3 
REMARK    2  A    between atoms: C_4  and  C_5 
REMARK    3  A    between atoms: C_6  and  C_7 
REMARK       I    between atoms: C_7  and  N_8 
REMARK    4  A    between atoms: N_8  and  C_9 
REMARK    5  A    between atoms: C_9  and  C_10 
REMARK    6  A    between atoms: C_10  and  N_11 
REMARK    7  A    between atoms: C_10  and  C_18 
ROOT
HETATM    1  C   UNL     1      26.695  44.200  51.242  1.00  0.00     0.241 C 
HETATM    2  N   UNL     1      25.618  44.898  50.750  1.00  0.00    -0.355 N 
HETATM    3  O   UNL     1      27.848  44.455  50.931  1.00  0.00    -0.269 OA
HETATM    4  H   UNL     1      24.689  44.560  50.981  1.00  0.00     0.162 HD
ENDROOT
BRANCH   2   5
HETATM    5  C   UNL     1      25.773  45.773  49.595  1.00  0.00     0.163 C 
BRANCH   5   6
HETATM    6  C   UNL     1      25.058  47.146  49.668  1.00  0.00     0.262 C 
BRANCH   6   7
HETATM    7  N   UNL     1      23.702  47.198  48.954  1.00  0.00    -0.059 N 
HETATM    8  H   UNL     1      23.989  47.413  47.987  1.00  0.00     0.280 HD
HETATM    9  C   UNL     1      22.942  45.900  48.848  1.00  0.00     0.236 C 
HETATM   10  C   UNL     1      21.851  46.063  47.795  1.00  0.00     0.028 C 
HETATM   11  C   UNL     1      20.921  47.225  48.135  1.00  0.00     0.003 C 
HETATM   12  C   UNL     1      21.697  48.514  48.390  1.00  0.00     0.028 C 
HETATM   13  C   UNL     1      22.808  48.319  49.416  1.00  0.00     0.236 C 
ENDBRANCH   6   7
BRANCH   6  14
HETATM   14  C   UNL     1      25.938  48.296  49.271  1.00  0.00     0.085 A 
HETATM   15  O   UNL     1      27.253  48.193  49.641  1.00  0.00    -0.325 OA
HETATM   16  C   UNL     1      27.885  49.303  49.182  1.00  0.00     0.142 A 
HETATM   17  C   UNL     1      27.003  50.115  48.511  1.00  0.00     0.027 A 
HETATM   18  C   UNL     1      25.748  49.463  48.557  1.00  0.00     0.037 A 
ENDBRANCH   6  14
ENDBRANCH   5   6
ENDBRANCH   2   5
BRANCH   1  19
HETATM   19  C   UNL     1      26.304  43.158  52.219  1.00  0.00     0.075 C 
HETATM   20  C   UNL     1      26.582  43.220  53.529  1.00  0.00     0.020 C 
BRANCH  20  21
HETATM   21  C   UNL     1      27.360  44.275  54.189  1.00  0.00    -0.001 A 
HETATM   22  C   UNL     1      28.699  44.070  54.556  1.00  0.00     0.078 A 
HETATM   23  C   UNL     1      29.416  45.068  55.221  1.00  0.00     0.039 A 
HETATM   24  C   UNL     1      28.815  46.300  55.482  1.00  0.00     0.022 A 
HETATM   25  C   UNL     1      27.496  46.521  55.087  1.00  0.00     0.012 A 
HETATM   26  C   UNL     1      26.768  45.520  54.443  1.00  0.00     0.033 A 
HETATM   27 BR   UNL     1      26.678  48.189  55.438  1.00  0.00    -0.051 Br
BRANCH  22  28
HETATM   28  O   UNL     1      29.287  42.848  54.342  1.00  0.00    -0.355 OA
HETATM   29  C   UNL     1      30.090  42.880  53.162  1.00  0.00     0.210 C 
ENDBRANCH  22  28
ENDBRANCH  20  21
ENDBRANCH   1  19
TORSDOF 7
ENDMDL
