MODEL 1
REMARK VINA RESULT:      -9.0      0.000      0.000
REMARK  8 active torsions:
REMARK  status: ('A' for Active; 'I' for Inactive)
REMARK    1  A    between atoms: C_2  and  C_3 
REMARK    2  A    between atoms: C_3  and  C_4 
REMARK       I    between atoms: C_4  and  N_5 
REMARK    3  A    between atoms: N_8  and  C_9 
REMARK    4  A    between atoms: C_12  and  N_13 
REMARK    5  A    between atoms: N_13  and  C_14 
REMARK    6  A    between atoms: C_14  and  N_15 
REMARK       I    between atoms: N_15  and  C_16 
REMARK    7  A    between atoms: C_16  and  C_17 
REMARK    8  A    between atoms: C_21  and  O_22 
ROOT
HETATM    1  C   UNL     1      23.720  47.587  49.364  1.00  0.00     0.030 A 
HETATM    2  C   UNL     1      23.489  46.215  49.173  1.00  0.00     0.031 A 
HETATM    3  C   UNL     1      24.506  45.253  49.270  1.00  0.00     0.032 A 
HETATM    4  C   UNL     1      25.803  45.620  49.601  1.00  0.00     0.034 A 
HETATM    5  C   UNL     1      26.045  46.961  49.890  1.00  0.00     0.032 A 
HETATM    6  C   UNL     1      25.026  47.924  49.756  1.00  0.00     0.031 A 
ENDROOT
BRANCH   4   7
HETATM    7  N   UNL     1      26.862  44.699  49.739  1.00  0.00    -0.333 N 
HETATM    8  H   UNL     1      27.617  44.791  49.058  1.00  0.00     0.168 HD
BRANCH   7   9
HETATM    9  C   UNL     1      26.995  43.629  50.590  1.00  0.00     0.179 C 
HETATM   10  S   UNL     1      26.402  42.071  50.427  1.00  0.00    -0.040 SA
BRANCH   9  11
HETATM   11  N   UNL     1      27.755  43.856  51.722  1.00  0.00    -0.299 N 
HETATM   12  C   UNL     1      27.450  44.584  52.862  1.00  0.00     0.257 C 
HETATM   13  O   UNL     1      26.438  45.257  53.012  1.00  0.00    -0.267 OA
HETATM   14  H   UNL     1      28.609  43.314  51.718  1.00  0.00     0.171 HD
BRANCH  12  15
HETATM   15  C   UNL     1      28.461  44.486  53.947  1.00  0.00     0.034 A 
HETATM   16  C   UNL     1      28.355  45.342  55.044  1.00  0.00     0.044 A 
HETATM   17  C   UNL     1      29.262  45.224  56.101  1.00  0.00     0.068 A 
HETATM   18 CL   UNL     1      29.063  46.283  57.454  1.00  0.00    -0.081 Cl
HETATM   19  C   UNL     1      30.291  44.265  56.071  1.00  0.00     0.089 A 
HETATM   20  C   UNL     1      30.404  43.435  54.949  1.00  0.00     0.039 A 
HETATM   21  C   UNL     1      29.496  43.545  53.891  1.00  0.00     0.020 A 
BRANCH  19  22
HETATM   22  O   UNL     1      31.123  44.213  57.158  1.00  0.00    -0.354 OA
HETATM   23  C   UNL     1      32.200  43.286  57.127  1.00  0.00     0.210 C 
ENDBRANCH  19  22
ENDBRANCH  12  15
ENDBRANCH   9  11
ENDBRANCH   7   9
ENDBRANCH   4   7
BRANCH   1  24
HETATM   24  N   UNL     1      22.678  48.523  49.252  1.00  0.00    -0.378 N 
HETATM   25  C   UNL     1      21.367  48.014  48.782  1.00  0.00     0.143 C 
HETATM   26  C   UNL     1      20.237  48.993  49.146  1.00  0.00     0.145 C 
HETATM   27  N   UNL     1      20.481  50.359  48.681  1.00  0.00    -0.349 N 
HETATM   28  C   UNL     1      19.482  51.316  48.542  1.00  0.00     0.219 C 
HETATM   29  C   UNL     1      21.832  50.863  48.953  1.00  0.00     0.145 C 
HETATM   30  O   UNL     1      19.745  52.505  48.344  1.00  0.00    -0.273 OA
HETATM   31  C   UNL     1      22.972  49.860  48.681  1.00  0.00     0.143 C 
BRANCH  28  32
HETATM   32  C   UNL     1      18.024  50.888  48.619  1.00  0.00     0.103 C 
BRANCH  32  33
HETATM   33  C   UNL     1      17.313  51.441  49.851  1.00  0.00     0.005 C 
HETATM   34  C   UNL     1      15.985  52.111  49.537  1.00  0.00     0.005 C 
ENDBRANCH  32  33
ENDBRANCH  28  32
ENDBRANCH   1  24
TORSDOF 8
ENDMDL
MODEL 2
REMARK VINA RESULT:      -8.9      1.600      2.057
REMARK  8 active torsions:
REMARK  status: ('A' for Active; 'I' for Inactive)
REMARK    1  A    between atoms: C_2  and  C_3 
REMARK    2  A    between atoms: C_3  and  C_4 
REMARK       I    between atoms: C_4  and  N_5 
REMARK    3  A    between atoms: N_8  and  C_9 
REMARK    4  A    between atoms: C_12  and  N_13 
REMARK    5  A    between atoms: N_13  and  C_14 
REMARK    6  A    between atoms: C_14  and  N_15 
REMARK       I    between atoms: N_15  and  C_16 
REMARK    7  A    between atoms: C_16  and  C_17 
REMARK    8  A    between atoms: C_21  and  O_22 
ROOT
HETATM    1  C   UNL     1      24.160  46.289  49.056  1.00  0.00     0.030 A 
HETATM    2  C   UNL     1      23.962  44.934  48.744  1.00  0.00     0.031 A 
HETATM    3  C   UNL     1      24.916  43.943  49.024  1.00  0.00     0.032 A 
HETATM    4  C   UNL     1      26.104  44.262  49.667  1.00  0.00     0.034 A 
HETATM    5  C   UNL     1      26.290  45.580  50.075  1.00  0.00     0.032 A 
HETATM    6  C   UNL     1      25.342  46.574  49.759  1.00  0.00     0.031 A 
ENDROOT
BRANCH   4   7
HETATM    7  N   UNL     1      27.090  43.309  49.998  1.00  0.00    -0.333 N 
HETATM    8  H   UNL     1      27.824  43.174  49.302  1.00  0.00     0.168 HD
BRANCH   7   9
HETATM    9  C   UNL     1      27.169  42.459  51.074  1.00  0.00     0.179 C 
HETATM   10  S   UNL     1      26.687  40.859  51.193  1.00  0.00    -0.040 SA
BRANCH   9  11
HETATM   11  N   UNL     1      27.759  42.982  52.209  1.00  0.00    -0.299 N 
HETATM   12  C   UNL     1      28.935  42.613  52.847  1.00  0.00     0.257 C 
HETATM   13  O   UNL     1      29.624  41.649  52.539  1.00  0.00    -0.267 OA
HETATM   14  H   UNL     1      27.285  43.816  52.532  1.00  0.00     0.171 HD
BRANCH  12  15
HETATM   15  C   UNL     1      29.336  43.503  53.966  1.00  0.00     0.034 A 
HETATM   16  C   UNL     1      28.599  44.664  54.200  1.00  0.00     0.044 A 
HETATM   17  C   UNL     1      28.925  45.482  55.286  1.00  0.00     0.068 A 
HETATM   18 CL   UNL     1      27.954  46.889  55.555  1.00  0.00    -0.081 Cl
HETATM   19  C   UNL     1      29.998  45.163  56.138  1.00  0.00     0.089 A 
HETATM   20  C   UNL     1      30.749  44.013  55.871  1.00  0.00     0.039 A 
HETATM   21  C   UNL     1      30.423  43.187  54.790  1.00  0.00     0.020 A 
BRANCH  19  22
HETATM   22  O   UNL     1      30.235  46.016  57.183  1.00  0.00    -0.354 OA
HETATM   23  C   UNL     1      30.493  45.448  58.460  1.00  0.00     0.210 C 
ENDBRANCH  19  22
ENDBRANCH  12  15
ENDBRANCH   9  11
ENDBRANCH   7   9
ENDBRANCH   4   7
BRANCH   1  24
HETATM   24  N   UNL     1      23.185  47.255  48.754  1.00  0.00    -0.378 N 
HETATM   25  C   UNL     1      23.196  48.496  49.566  1.00  0.00     0.143 C 
HETATM   26  C   UNL     1      22.428  49.623  48.855  1.00  0.00     0.145 C 
HETATM   27  N   UNL     1      21.068  49.245  48.471  1.00  0.00    -0.349 N 
HETATM   28  C   UNL     1      20.066  50.162  48.174  1.00  0.00     0.219 C 
HETATM   29  C   UNL     1      20.961  47.933  47.821  1.00  0.00     0.145 C 
HETATM   30  O   UNL     1      18.999  49.817  47.662  1.00  0.00    -0.273 OA
HETATM   31  C   UNL     1      21.799  46.812  48.467  1.00  0.00     0.143 C 
BRANCH  28  32
HETATM   32  C   UNL     1      20.282  51.632  48.504  1.00  0.00     0.103 C 
BRANCH  32  33
HETATM   33  C   UNL     1      18.988  52.441  48.460  1.00  0.00     0.005 C 
HETATM   34  C   UNL     1      18.172  52.353  49.740  1.00  0.00     0.005 C 
ENDBRANCH  32  33
ENDBRANCH  28  32
ENDBRANCH   1  24
TORSDOF 8
ENDMDL
MODEL 3
REMARK VINA RESULT:      -8.5      3.672     11.729
REMARK  8 active torsions:
REMARK  status: ('A' for Active; 'I' for Inactive)
REMARK    1  A    between atoms: C_2  and  C_3 
REMARK    2  A    between atoms: C_3  and  C_4 
REMARK       I    between atoms: C_4  and  N_5 
REMARK    3  A    between atoms: N_8  and  C_9 
REMARK    4  A    between atoms: C_12  and  N_13 
REMARK    5  A    between atoms: N_13  and  C_14 
REMARK    6  A    between atoms: C_14  and  N_15 
REMARK       I    between atoms: N_15  and  C_16 
REMARK    7  A    between atoms: C_16  and  C_17 
REMARK    8  A    between atoms: C_21  and  O_22 
ROOT
HETATM    1  C   UNL     1      25.408  46.153  51.306  1.00  0.00     0.030 A 
HETATM    2  C   UNL     1      25.110  47.430  50.803  1.00  0.00     0.031 A 
HETATM    3  C   UNL     1      24.178  47.643  49.776  1.00  0.00     0.032 A 
HETATM    4  C   UNL     1      23.469  46.584  49.229  1.00  0.00     0.034 A 
HETATM    5  C   UNL     1      23.671  45.317  49.770  1.00  0.00     0.032 A 
HETATM    6  C   UNL     1      24.634  45.107  50.776  1.00  0.00     0.031 A 
ENDROOT
BRANCH   4   7
HETATM    7  N   UNL     1      22.502  46.736  48.213  1.00  0.00    -0.333 N 
HETATM    8  H   UNL     1      22.856  47.054  47.311  1.00  0.00     0.168 HD
BRANCH   7   9
HETATM    9  C   UNL     1      21.135  46.614  48.273  1.00  0.00     0.179 C 
HETATM   10  S   UNL     1      20.197  45.226  48.253  1.00  0.00    -0.040 SA
BRANCH   9  11
HETATM   11  N   UNL     1      20.433  47.797  48.403  1.00  0.00    -0.299 N 
HETATM   12  C   UNL     1      20.797  49.087  48.045  1.00  0.00     0.257 C 
HETATM   13  O   UNL     1      21.898  49.410  47.618  1.00  0.00    -0.267 OA
HETATM   14  H   UNL     1      19.485  47.642  48.719  1.00  0.00     0.171 HD
BRANCH  12  15
HETATM   15  C   UNL     1      19.721  50.099  48.203  1.00  0.00     0.034 A 
HETATM   16  C   UNL     1      18.391  49.689  48.101  1.00  0.00     0.044 A 
HETATM   17  C   UNL     1      17.364  50.615  48.306  1.00  0.00     0.068 A 
HETATM   18 CL   UNL     1      15.734  50.045  48.207  1.00  0.00    -0.081 Cl
HETATM   19  C   UNL     1      17.650  51.961  48.597  1.00  0.00     0.089 A 
HETATM   20  C   UNL     1      18.989  52.366  48.664  1.00  0.00     0.039 A 
HETATM   21  C   UNL     1      20.020  51.441  48.466  1.00  0.00     0.020 A 
BRANCH  19  22
HETATM   22  O   UNL     1      16.581  52.794  48.796  1.00  0.00    -0.354 OA
HETATM   23  C   UNL     1      16.244  53.138  50.133  1.00  0.00     0.210 C 
ENDBRANCH  19  22
ENDBRANCH  12  15
ENDBRANCH   9  11
ENDBRANCH   7   9
ENDBRANCH   4   7
BRANCH   1  24
HETATM   24  N   UNL     1      26.354  45.976  52.331  1.00  0.00    -0.378 N 
HETATM   25  C   UNL     1      26.851  44.597  52.554  1.00  0.00     0.143 C 
HETATM   26  C   UNL     1      28.173  44.612  53.339  1.00  0.00     0.145 C 
HETATM   27  N   UNL     1      28.096  45.365  54.592  1.00  0.00    -0.349 N 
HETATM   28  C   UNL     1      29.000  45.217  55.638  1.00  0.00     0.219 C 
HETATM   29  C   UNL     1      27.444  46.675  54.476  1.00  0.00     0.145 C 
HETATM   30  O   UNL     1      29.027  46.003  56.588  1.00  0.00    -0.273 OA
HETATM   31  C   UNL     1      26.165  46.696  53.614  1.00  0.00     0.143 C 
BRANCH  28  32
HETATM   32  C   UNL     1      29.972  44.046  55.622  1.00  0.00     0.103 C 
BRANCH  32  33
HETATM   33  C   UNL     1      31.217  44.305  56.465  1.00  0.00     0.005 C 
HETATM   34  C   UNL     1      31.743  43.066  57.170  1.00  0.00     0.005 C 
ENDBRANCH  32  33
ENDBRANCH  28  32
ENDBRANCH   1  24
TORSDOF 8
ENDMDL
MODEL 4
REMARK VINA RESULT:      -8.4      1.619      2.117
REMARK  8 active torsions:
REMARK  status: ('A' for Active; 'I' for Inactive)
REMARK    1  A    between atoms: C_2  and  C_3 
REMARK    2  A    between atoms: C_3  and  C_4 
REMARK       I    between atoms: C_4  and  N_5 
REMARK    3  A    between atoms: N_8  and  C_9 
REMARK    4  A    between atoms: C_12  and  N_13 
REMARK    5  A    between atoms: N_13  and  C_14 
REMARK    6  A    between atoms: C_14  and  N_15 
REMARK       I    between atoms: N_15  and  C_16 
REMARK    7  A    between atoms: C_16  and  C_17 
REMARK    8  A    between atoms: C_21  and  O_22 
ROOT
HETATM    1  C   UNL     1      22.733  47.007  48.737  1.00  0.00     0.030 A 
HETATM    2  C   UNL     1      22.778  45.635  48.440  1.00  0.00     0.031 A 
HETATM    3  C   UNL     1      23.893  44.833  48.727  1.00  0.00     0.032 A 
HETATM    4  C   UNL     1      25.006  45.364  49.364  1.00  0.00     0.034 A 
HETATM    5  C   UNL     1      24.955  46.698  49.758  1.00  0.00     0.032 A 
HETATM    6  C   UNL     1      23.846  47.505  49.434  1.00  0.00     0.031 A 
ENDROOT
BRANCH   4   7
HETATM    7  N   UNL     1      26.146  44.605  49.702  1.00  0.00    -0.333 N 
HETATM    8  H   UNL     1      26.939  44.694  49.066  1.00  0.00     0.168 HD
BRANCH   7   9
HETATM    9  C   UNL     1      26.326  43.685  50.706  1.00  0.00     0.179 C 
HETATM   10  S   UNL     1      25.857  42.078  50.762  1.00  0.00    -0.040 SA
BRANCH   9  11
HETATM   11  N   UNL     1      27.024  44.134  51.811  1.00  0.00    -0.299 N 
HETATM   12  C   UNL     1      26.612  44.969  52.840  1.00  0.00     0.257 C 
HETATM   13  O   UNL     1      25.534  45.547  52.882  1.00  0.00    -0.267 OA
HETATM   14  H   UNL     1      27.927  43.687  51.895  1.00  0.00     0.171 HD
BRANCH  12  15
HETATM   15  C   UNL     1      27.593  45.118  53.945  1.00  0.00     0.034 A 
HETATM   16  C   UNL     1      28.594  44.156  54.090  1.00  0.00     0.044 A 
HETATM   17  C   UNL     1      29.562  44.312  55.087  1.00  0.00     0.068 A 
HETATM   18 CL   UNL     1      30.803  43.112  55.199  1.00  0.00    -0.081 Cl
HETATM   19  C   UNL     1      29.533  45.415  55.959  1.00  0.00     0.089 A 
HETATM   20  C   UNL     1      28.504  46.354  55.823  1.00  0.00     0.039 A 
HETATM   21  C   UNL     1      27.537  46.207  54.823  1.00  0.00     0.020 A 
BRANCH  19  22
HETATM   22  O   UNL     1      30.530  45.491  56.897  1.00  0.00    -0.354 OA
HETATM   23  C   UNL     1      30.216  46.072  58.156  1.00  0.00     0.210 C 
ENDBRANCH  19  22
ENDBRANCH  12  15
ENDBRANCH   9  11
ENDBRANCH   7   9
ENDBRANCH   4   7
BRANCH   1  24
HETATM   24  N   UNL     1      21.601  47.781  48.428  1.00  0.00    -0.378 N 
HETATM   25  C   UNL     1      21.717  49.247  48.627  1.00  0.00     0.143 C 
HETATM   26  C   UNL     1      20.630  49.994  47.834  1.00  0.00     0.145 C 
HETATM   27  N   UNL     1      19.276  49.518  48.117  1.00  0.00    -0.349 N 
HETATM   28  C   UNL     1      18.128  50.252  47.840  1.00  0.00     0.219 C 
HETATM   29  C   UNL     1      19.130  48.058  48.117  1.00  0.00     0.145 C 
HETATM   30  O   UNL     1      17.004  49.747  47.901  1.00  0.00    -0.273 OA
HETATM   31  C   UNL     1      20.262  47.287  48.828  1.00  0.00     0.143 C 
BRANCH  28  32
HETATM   32  C   UNL     1      18.254  51.722  47.468  1.00  0.00     0.103 C 
BRANCH  32  33
HETATM   33  C   UNL     1      18.569  52.608  48.670  1.00  0.00     0.005 C 
HETATM   34  C   UNL     1      17.501  52.567  49.751  1.00  0.00     0.005 C 
ENDBRANCH  32  33
ENDBRANCH  28  32
ENDBRANCH   1  24
TORSDOF 8
ENDMDL
MODEL 5
REMARK VINA RESULT:      -7.9      3.359     10.787
REMARK  8 active torsions:
REMARK  status: ('A' for Active; 'I' for Inactive)
REMARK    1  A    between atoms: C_2  and  C_3 
REMARK    2  A    between atoms: C_3  and  C_4 
REMARK       I    between atoms: C_4  and  N_5 
REMARK    3  A    between atoms: N_8  and  C_9 
REMARK    4  A    between atoms: C_12  and  N_13 
REMARK    5  A    between atoms: N_13  and  C_14 
REMARK    6  A    between atoms: C_14  and  N_15 
REMARK       I    between atoms: N_15  and  C_16 
REMARK    7  A    between atoms: C_16  and  C_17 
REMARK    8  A    between atoms: C_21  and  O_22 
ROOT
HETATM    1  C   UNL     1      25.378  43.763  50.895  1.00  0.00     0.030 A 
HETATM    2  C   UNL     1      25.485  44.630  49.795  1.00  0.00     0.031 A 
HETATM    3  C   UNL     1      24.556  44.640  48.743  1.00  0.00     0.032 A 
HETATM    4  C   UNL     1      23.450  43.802  48.763  1.00  0.00     0.034 A 
HETATM    5  C   UNL     1      23.264  42.998  49.885  1.00  0.00     0.032 A 
HETATM    6  C   UNL     1      24.220  42.970  50.920  1.00  0.00     0.031 A 
ENDROOT
BRANCH   4   7
HETATM    7  N   UNL     1      22.469  43.782  47.750  1.00  0.00    -0.333 N 
HETATM    8  H   UNL     1      22.010  42.884  47.599  1.00  0.00     0.168 HD
BRANCH   7   9
HETATM    9  C   UNL     1      22.098  44.764  46.863  1.00  0.00     0.179 C 
HETATM   10  S   UNL     1      22.233  44.782  45.193  1.00  0.00    -0.040 SA
BRANCH   9  11
HETATM   11  N   UNL     1      21.497  45.877  47.418  1.00  0.00    -0.299 N 
HETATM   12  C   UNL     1      20.516  45.960  48.395  1.00  0.00     0.257 C 
HETATM   13  O   UNL     1      19.928  45.000  48.878  1.00  0.00    -0.267 OA
HETATM   14  H   UNL     1      21.935  46.735  47.111  1.00  0.00     0.171 HD
BRANCH  12  15
HETATM   15  C   UNL     1      20.214  47.340  48.853  1.00  0.00     0.034 A 
HETATM   16  C   UNL     1      21.245  48.280  48.880  1.00  0.00     0.044 A 
HETATM   17  C   UNL     1      20.967  49.599  49.251  1.00  0.00     0.068 A 
HETATM   18 CL   UNL     1      22.273  50.733  49.230  1.00  0.00    -0.081 Cl
HETATM   19  C   UNL     1      19.666  49.992  49.613  1.00  0.00     0.089 A 
HETATM   20  C   UNL     1      18.648  49.031  49.612  1.00  0.00     0.039 A 
HETATM   21  C   UNL     1      18.919  47.711  49.236  1.00  0.00     0.020 A 
BRANCH  19  22
HETATM   22  O   UNL     1      19.485  51.308  49.949  1.00  0.00    -0.354 OA
HETATM   23  C   UNL     1      18.926  52.173  48.970  1.00  0.00     0.210 C 
ENDBRANCH  19  22
ENDBRANCH  12  15
ENDBRANCH   9  11
ENDBRANCH   7   9
ENDBRANCH   4   7
BRANCH   1  24
HETATM   24  N   UNL     1      26.332  43.776  51.927  1.00  0.00    -0.378 N 
HETATM   25  C   UNL     1      26.768  45.105  52.420  1.00  0.00     0.143 C 
HETATM   26  C   UNL     1      27.419  44.987  53.809  1.00  0.00     0.145 C 
HETATM   27  N   UNL     1      28.509  44.012  53.858  1.00  0.00    -0.349 N 
HETATM   28  C   UNL     1      29.481  43.991  54.851  1.00  0.00     0.219 C 
HETATM   29  C   UNL     1      28.204  42.726  53.219  1.00  0.00     0.145 C 
HETATM   30  O   UNL     1      30.260  43.043  54.977  1.00  0.00    -0.273 OA
HETATM   31  C   UNL     1      27.468  42.824  51.868  1.00  0.00     0.143 C 
BRANCH  28  32
HETATM   32  C   UNL     1      29.603  45.175  55.799  1.00  0.00     0.103 C 
BRANCH  32  33
HETATM   33  C   UNL     1      30.632  44.942  56.902  1.00  0.00     0.005 C 
HETATM   34  C   UNL     1      30.267  45.601  58.222  1.00  0.00     0.005 C 
ENDBRANCH  32  33
ENDBRANCH  28  32
ENDBRANCH   1  24
TORSDOF 8
ENDMDL
MODEL 6
REMARK VINA RESULT:      -7.8      2.376      3.228
REMARK  8 active torsions:
REMARK  status: ('A' for Active; 'I' for Inactive)
REMARK    1  A    between atoms: C_2  and  C_3 
REMARK    2  A    between atoms: C_3  and  C_4 
REMARK       I    between atoms: C_4  and  N_5 
REMARK    3  A    between atoms: N_8  and  C_9 
REMARK    4  A    between atoms: C_12  and  N_13 
REMARK    5  A    between atoms: N_13  and  C_14 
REMARK    6  A    between atoms: C_14  and  N_15 
REMARK       I    between atoms: N_15  and  C_16 
REMARK    7  A    between atoms: C_16  and  C_17 
REMARK    8  A    between atoms: C_21  and  O_22 
ROOT
HETATM    1  C   UNL     1      23.619  44.910  49.257  1.00  0.00     0.030 A 
HETATM    2  C   UNL     1      22.740  43.854  49.550  1.00  0.00     0.031 A 
HETATM    3  C   UNL     1      23.158  42.516  49.623  1.00  0.00     0.032 A 
HETATM    4  C   UNL     1      24.491  42.177  49.443  1.00  0.00     0.034 A 
HETATM    5  C   UNL     1      25.404  43.210  49.245  1.00  0.00     0.032 A 
HETATM    6  C   UNL     1      24.971  44.546  49.138  1.00  0.00     0.031 A 
ENDROOT
BRANCH   4   7
HETATM    7  N   UNL     1      24.977  40.855  49.529  1.00  0.00    -0.333 N 
HETATM    8  H   UNL     1      24.404  40.145  49.072  1.00  0.00     0.168 HD
BRANCH   7   9
HETATM    9  C   UNL     1      26.057  40.356  50.215  1.00  0.00     0.179 C 
HETATM   10  S   UNL     1      26.849  38.894  50.016  1.00  0.00    -0.040 SA
BRANCH   9  11
HETATM   11  N   UNL     1      26.589  41.188  51.181  1.00  0.00    -0.299 N 
HETATM   12  C   UNL     1      27.885  41.261  51.672  1.00  0.00     0.257 C 
HETATM   13  O   UNL     1      28.789  40.491  51.375  1.00  0.00    -0.267 OA
HETATM   14  H   UNL     1      25.929  41.896  51.475  1.00  0.00     0.171 HD
BRANCH  12  15
HETATM   15  C   UNL     1      28.128  42.387  52.610  1.00  0.00     0.034 A 
HETATM   16  C   UNL     1      29.159  42.274  53.544  1.00  0.00     0.044 A 
HETATM   17  C   UNL     1      29.441  43.346  54.394  1.00  0.00     0.068 A 
HETATM   18 CL   UNL     1      30.754  43.168  55.507  1.00  0.00    -0.081 Cl
HETATM   19  C   UNL     1      28.691  44.535  54.336  1.00  0.00     0.089 A 
HETATM   20  C   UNL     1      27.639  44.622  53.416  1.00  0.00     0.039 A 
HETATM   21  C   UNL     1      27.356  43.554  52.558  1.00  0.00     0.020 A 
BRANCH  19  22
HETATM   22  O   UNL     1      29.048  45.538  55.199  1.00  0.00    -0.354 OA
HETATM   23  C   UNL     1      28.010  46.321  55.774  1.00  0.00     0.210 C 
ENDBRANCH  19  22
ENDBRANCH  12  15
ENDBRANCH   9  11
ENDBRANCH   7   9
ENDBRANCH   4   7
BRANCH   1  24
HETATM   24  N   UNL     1      23.164  46.237  49.185  1.00  0.00    -0.378 N 
HETATM   25  C   UNL     1      22.129  46.537  48.165  1.00  0.00     0.143 C 
HETATM   26  C   UNL     1      21.400  47.851  48.494  1.00  0.00     0.145 C 
HETATM   27  N   UNL     1      22.306  48.983  48.688  1.00  0.00    -0.349 N 
HETATM   28  C   UNL     1      21.906  50.312  48.615  1.00  0.00     0.219 C 
HETATM   29  C   UNL     1      23.461  48.699  49.548  1.00  0.00     0.145 C 
HETATM   30  O   UNL     1      22.641  51.233  48.980  1.00  0.00    -0.273 OA
HETATM   31  C   UNL     1      24.148  47.341  49.293  1.00  0.00     0.143 C 
BRANCH  28  32
HETATM   32  C   UNL     1      20.532  50.647  48.053  1.00  0.00     0.103 C 
BRANCH  32  33
HETATM   33  C   UNL     1      20.016  52.002  48.529  1.00  0.00     0.005 C 
HETATM   34  C   UNL     1      18.529  52.205  48.289  1.00  0.00     0.005 C 
ENDBRANCH  32  33
ENDBRANCH  28  32
ENDBRANCH   1  24
TORSDOF 8
ENDMDL
MODEL 7
REMARK VINA RESULT:      -7.7      3.981     12.242
REMARK  8 active torsions:
REMARK  status: ('A' for Active; 'I' for Inactive)
REMARK    1  A    between atoms: C_2  and  C_3 
REMARK    2  A    between atoms: C_3  and  C_4 
REMARK       I    between atoms: C_4  and  N_5 
REMARK    3  A    between atoms: N_8  and  C_9 
REMARK    4  A    between atoms: C_12  and  N_13 
REMARK    5  A    between atoms: N_13  and  C_14 
REMARK    6  A    between atoms: C_14  and  N_15 
REMARK       I    between atoms: N_15  and  C_16 
REMARK    7  A    between atoms: C_16  and  C_17 
REMARK    8  A    between atoms: C_21  and  O_22 
ROOT
HETATM    1  C   UNL     1      24.908  46.103  50.259  1.00  0.00     0.030 A 
HETATM    2  C   UNL     1      23.917  45.488  49.477  1.00  0.00     0.031 A 
HETATM    3  C   UNL     1      22.958  46.215  48.755  1.00  0.00     0.032 A 
HETATM    4  C   UNL     1      22.973  47.603  48.753  1.00  0.00     0.034 A 
HETATM    5  C   UNL     1      24.000  48.244  49.441  1.00  0.00     0.032 A 
HETATM    6  C   UNL     1      24.937  47.506  50.191  1.00  0.00     0.031 A 
ENDROOT
BRANCH   4   7
HETATM    7  N   UNL     1      22.054  48.390  48.028  1.00  0.00    -0.333 N 
HETATM    8  H   UNL     1      22.285  49.381  47.954  1.00  0.00     0.168 HD
BRANCH   7   9
HETATM    9  C   UNL     1      20.839  48.051  47.484  1.00  0.00     0.179 C 
HETATM   10  S   UNL     1      20.428  46.700  46.582  1.00  0.00    -0.040 SA
BRANCH   9  11
HETATM   11  N   UNL     1      19.801  48.924  47.745  1.00  0.00    -0.299 N 
HETATM   12  C   UNL     1      19.594  49.755  48.836  1.00  0.00     0.257 C 
HETATM   13  O   UNL     1      20.294  49.776  49.841  1.00  0.00    -0.267 OA
HETATM   14  H   UNL     1      19.173  49.011  46.956  1.00  0.00     0.171 HD
BRANCH  12  15
HETATM   15  C   UNL     1      18.432  50.670  48.705  1.00  0.00     0.034 A 
HETATM   16  C   UNL     1      18.058  51.106  47.433  1.00  0.00     0.044 A 
HETATM   17  C   UNL     1      16.931  51.919  47.285  1.00  0.00     0.068 A 
HETATM   18 CL   UNL     1      16.489  52.399  45.683  1.00  0.00    -0.081 Cl
HETATM   19  C   UNL     1      16.174  52.320  48.401  1.00  0.00     0.089 A 
HETATM   20  C   UNL     1      16.580  51.902  49.674  1.00  0.00     0.039 A 
HETATM   21  C   UNL     1      17.703  51.083  49.827  1.00  0.00     0.020 A 
BRANCH  19  22
HETATM   22  O   UNL     1      15.078  53.105  48.159  1.00  0.00    -0.354 OA
HETATM   23  C   UNL     1      14.635  53.968  49.198  1.00  0.00     0.210 C 
ENDBRANCH  19  22
ENDBRANCH  12  15
ENDBRANCH   9  11
ENDBRANCH   7   9
ENDBRANCH   4   7
BRANCH   1  24
HETATM   24  N   UNL     1      25.847  45.341  50.975  1.00  0.00    -0.378 N 
HETATM   25  C   UNL     1      26.399  45.947  52.212  1.00  0.00     0.143 C 
HETATM   26  C   UNL     1      27.020  44.870  53.118  1.00  0.00     0.145 C 
HETATM   27  N   UNL     1      28.015  44.042  52.436  1.00  0.00    -0.349 N 
HETATM   28  C   UNL     1      28.971  43.281  53.099  1.00  0.00     0.219 C 
HETATM   29  C   UNL     1      27.601  43.557  51.114  1.00  0.00     0.145 C 
HETATM   30  O   UNL     1      29.658  42.443  52.510  1.00  0.00    -0.273 OA
HETATM   31  C   UNL     1      26.891  44.600  50.226  1.00  0.00     0.143 C 
BRANCH  28  32
HETATM   32  C   UNL     1      29.191  43.496  54.589  1.00  0.00     0.103 C 
BRANCH  32  33
HETATM   33  C   UNL     1      30.621  43.188  55.023  1.00  0.00     0.005 C 
HETATM   34  C   UNL     1      31.010  43.837  56.342  1.00  0.00     0.005 C 
ENDBRANCH  32  33
ENDBRANCH  28  32
ENDBRANCH   1  24
TORSDOF 8
ENDMDL
MODEL 8
REMARK VINA RESULT:      -7.6     18.854     21.946
REMARK  8 active torsions:
REMARK  status: ('A' for Active; 'I' for Inactive)
REMARK    1  A    between atoms: C_2  and  C_3 
REMARK    2  A    between atoms: C_3  and  C_4 
REMARK       I    between atoms: C_4  and  N_5 
REMARK    3  A    between atoms: N_8  and  C_9 
REMARK    4  A    between atoms: C_12  and  N_13 
REMARK    5  A    between atoms: N_13  and  C_14 
REMARK    6  A    between atoms: C_14  and  N_15 
REMARK       I    between atoms: N_15  and  C_16 
REMARK    7  A    between atoms: C_16  and  C_17 
REMARK    8  A    between atoms: C_21  and  O_22 
ROOT
HETATM    1  C   UNL     1      39.560  41.718  63.985  1.00  0.00     0.030 A 
HETATM    2  C   UNL     1      40.564  41.280  64.864  1.00  0.00     0.031 A 
HETATM    3  C   UNL     1      41.109  39.988  64.811  1.00  0.00     0.032 A 
HETATM    4  C   UNL     1      40.698  39.082  63.844  1.00  0.00     0.034 A 
HETATM    5  C   UNL     1      39.773  39.516  62.897  1.00  0.00     0.032 A 
HETATM    6  C   UNL     1      39.205  40.803  62.980  1.00  0.00     0.031 A 
ENDROOT
BRANCH   4   7
HETATM    7  N   UNL     1      41.226  37.780  63.722  1.00  0.00    -0.333 N 
HETATM    8  H   UNL     1      40.891  37.242  62.922  1.00  0.00     0.168 HD
BRANCH   7   9
HETATM    9  C   UNL     1      42.052  37.081  64.568  1.00  0.00     0.179 C 
HETATM   10  S   UNL     1      43.675  37.330  64.901  1.00  0.00    -0.040 SA
BRANCH   9  11
HETATM   11  N   UNL     1      41.457  36.051  65.271  1.00  0.00    -0.299 N 
HETATM   12  C   UNL     1      40.362  36.076  66.122  1.00  0.00     0.257 C 
HETATM   13  O   UNL     1      39.775  37.090  66.477  1.00  0.00    -0.267 OA
HETATM   14  H   UNL     1      41.847  35.151  65.024  1.00  0.00     0.171 HD
BRANCH  12  15
HETATM   15  C   UNL     1      39.912  34.739  66.589  1.00  0.00     0.034 A 
HETATM   16  C   UNL     1      38.865  34.666  67.509  1.00  0.00     0.044 A 
HETATM   17  C   UNL     1      38.388  33.416  67.914  1.00  0.00     0.068 A 
HETATM   18 CL   UNL     1      37.063  33.381  69.025  1.00  0.00    -0.081 Cl
HETATM   19  C   UNL     1      38.958  32.228  67.421  1.00  0.00     0.089 A 
HETATM   20  C   UNL     1      40.029  32.317  66.524  1.00  0.00     0.039 A 
HETATM   21  C   UNL     1      40.506  33.566  66.111  1.00  0.00     0.020 A 
BRANCH  19  22
HETATM   22  O   UNL     1      38.417  31.050  67.864  1.00  0.00    -0.354 OA
HETATM   23  C   UNL     1      38.339  29.967  66.946  1.00  0.00     0.210 C 
ENDBRANCH  19  22
ENDBRANCH  12  15
ENDBRANCH   9  11
ENDBRANCH   7   9
ENDBRANCH   4   7
BRANCH   1  24
HETATM   24  N   UNL     1      39.031  43.017  64.073  1.00  0.00    -0.378 N 
HETATM   25  C   UNL     1      39.158  43.706  65.380  1.00  0.00     0.143 C 
HETATM   26  C   UNL     1      38.983  45.226  65.217  1.00  0.00     0.145 C 
HETATM   27  N   UNL     1      37.744  45.596  64.533  1.00  0.00    -0.349 N 
HETATM   28  C   UNL     1      37.176  46.864  64.599  1.00  0.00     0.219 C 
HETATM   29  C   UNL     1      37.462  44.820  63.321  1.00  0.00     0.145 C 
HETATM   30  O   UNL     1      36.250  47.200  63.856  1.00  0.00    -0.273 OA
HETATM   31  C   UNL     1      37.721  43.304  63.439  1.00  0.00     0.143 C 
BRANCH  28  32
HETATM   32  C   UNL     1      37.695  47.860  65.626  1.00  0.00     0.103 C 
BRANCH  32  33
HETATM   33  C   UNL     1      38.081  49.199  65.003  1.00  0.00     0.005 C 
HETATM   34  C   UNL     1      39.568  49.330  64.718  1.00  0.00     0.005 C 
ENDBRANCH  32  33
ENDBRANCH  28  32
ENDBRANCH   1  24
TORSDOF 8
ENDMDL
MODEL 9
REMARK VINA RESULT:      -7.6      3.443      6.228
REMARK  8 active torsions:
REMARK  status: ('A' for Active; 'I' for Inactive)
REMARK    1  A    between atoms: C_2  and  C_3 
REMARK    2  A    between atoms: C_3  and  C_4 
REMARK       I    between atoms: C_4  and  N_5 
REMARK    3  A    between atoms: N_8  and  C_9 
REMARK    4  A    between atoms: C_12  and  N_13 
REMARK    5  A    between atoms: N_13  and  C_14 
REMARK    6  A    between atoms: C_14  and  N_15 
REMARK       I    between atoms: N_15  and  C_16 
REMARK    7  A    between atoms: C_16  and  C_17 
REMARK    8  A    between atoms: C_21  and  O_22 
ROOT
HETATM    1  C   UNL     1      18.248  50.993  49.090  1.00  0.00     0.030 A 
HETATM    2  C   UNL     1      19.464  51.369  48.497  1.00  0.00     0.031 A 
HETATM    3  C   UNL     1      20.647  50.630  48.653  1.00  0.00     0.032 A 
HETATM    4  C   UNL     1      20.656  49.450  49.384  1.00  0.00     0.034 A 
HETATM    5  C   UNL     1      19.446  48.999  49.906  1.00  0.00     0.032 A 
HETATM    6  C   UNL     1      18.272  49.766  49.774  1.00  0.00     0.031 A 
ENDROOT
BRANCH   4   7
HETATM    7  N   UNL     1      21.805  48.650  49.556  1.00  0.00    -0.333 N 
HETATM    8  H   UNL     1      22.469  48.978  50.258  1.00  0.00     0.168 HD
BRANCH   7   9
HETATM    9  C   UNL     1      22.220  47.543  48.858  1.00  0.00     0.179 C 
HETATM   10  S   UNL     1      21.588  46.882  47.454  1.00  0.00    -0.040 SA
BRANCH   9  11
HETATM   11  N   UNL     1      23.337  46.903  49.359  1.00  0.00    -0.299 N 
HETATM   12  C   UNL     1      24.518  47.437  49.853  1.00  0.00     0.257 C 
HETATM   13  O   UNL     1      24.810  48.626  49.832  1.00  0.00    -0.267 OA
HETATM   14  H   UNL     1      23.191  45.906  49.453  1.00  0.00     0.171 HD
BRANCH  12  15
HETATM   15  C   UNL     1      25.447  46.441  50.447  1.00  0.00     0.034 A 
HETATM   16  C   UNL     1      25.606  46.414  51.833  1.00  0.00     0.044 A 
HETATM   17  C   UNL     1      26.429  45.445  52.415  1.00  0.00     0.068 A 
HETATM   18 CL   UNL     1      26.560  45.430  54.140  1.00  0.00    -0.081 Cl
HETATM   19  C   UNL     1      27.114  44.505  51.623  1.00  0.00     0.089 A 
HETATM   20  C   UNL     1      26.970  44.566  50.232  1.00  0.00     0.039 A 
HETATM   21  C   UNL     1      26.143  45.529  49.645  1.00  0.00     0.020 A 
BRANCH  19  22
HETATM   22  O   UNL     1      27.887  43.585  52.281  1.00  0.00    -0.354 OA
HETATM   23  C   UNL     1      27.832  42.235  51.842  1.00  0.00     0.210 C 
ENDBRANCH  19  22
ENDBRANCH  12  15
ENDBRANCH   9  11
ENDBRANCH   7   9
ENDBRANCH   4   7
BRANCH   1  24
HETATM   24  N   UNL     1      17.085  51.763  48.919  1.00  0.00    -0.378 N 
HETATM   25  C   UNL     1      16.795  52.243  47.546  1.00  0.00     0.143 C 
HETATM   26  C   UNL     1      15.317  52.644  47.407  1.00  0.00     0.145 C 
HETATM   27  N   UNL     1      14.881  53.610  48.416  1.00  0.00    -0.349 N 
HETATM   28  C   UNL     1      13.746  54.401  48.287  1.00  0.00     0.219 C 
HETATM   29  C   UNL     1      15.296  53.287  49.786  1.00  0.00     0.145 C 
HETATM   30  O   UNL     1      13.296  55.052  49.233  1.00  0.00    -0.273 OA
HETATM   31  C   UNL     1      16.750  52.793  49.931  1.00  0.00     0.143 C 
BRANCH  28  32
HETATM   32  C   UNL     1      13.045  54.484  46.939  1.00  0.00     0.103 C 
BRANCH  32  33
HETATM   33  C   UNL     1      13.501  55.684  46.112  1.00  0.00     0.005 C 
HETATM   34  C   UNL     1      12.513  56.839  46.122  1.00  0.00     0.005 C 
ENDBRANCH  32  33
ENDBRANCH  28  32
ENDBRANCH   1  24
TORSDOF 8
ENDMDL
MODEL 10
REMARK VINA RESULT:      -7.6      3.841     10.479
REMARK  8 active torsions:
REMARK  status: ('A' for Active; 'I' for Inactive)
REMARK    1  A    between atoms: C_2  and  C_3 
REMARK    2  A    between atoms: C_3  and  C_4 
REMARK       I    between atoms: C_4  and  N_5 
REMARK    3  A    between atoms: N_8  and  C_9 
REMARK    4  A    between atoms: C_12  and  N_13 
REMARK    5  A    between atoms: N_13  and  C_14 
REMARK    6  A    between atoms: C_14  and  N_15 
REMARK       I    between atoms: N_15  and  C_16 
REMARK    7  A    between atoms: C_16  and  C_17 
REMARK    8  A    between atoms: C_21  and  O_22 
ROOT
HETATM    1  C   UNL     1      24.720  43.657  49.936  1.00  0.00     0.030 A 
HETATM    2  C   UNL     1      24.478  44.539  48.871  1.00  0.00     0.031 A 
HETATM    3  C   UNL     1      23.580  44.247  47.832  1.00  0.00     0.032 A 
HETATM    4  C   UNL     1      22.851  43.066  47.834  1.00  0.00     0.034 A 
HETATM    5  C   UNL     1      22.997  42.213  48.925  1.00  0.00     0.032 A 
HETATM    6  C   UNL     1      23.927  42.498  49.944  1.00  0.00     0.031 A 
ENDROOT
BRANCH   4   7
HETATM    7  N   UNL     1      21.916  42.727  46.834  1.00  0.00    -0.333 N 
HETATM    8  H   UNL     1      22.090  41.846  46.349  1.00  0.00     0.168 HD
BRANCH   7   9
HETATM    9  C   UNL     1      20.854  43.444  46.340  1.00  0.00     0.179 C 
HETATM   10  S   UNL     1      19.664  42.962  45.264  1.00  0.00    -0.040 SA
BRANCH   9  11
HETATM   11  N   UNL     1      20.725  44.732  46.823  1.00  0.00    -0.299 N 
HETATM   12  C   UNL     1      19.853  45.238  47.777  1.00  0.00     0.257 C 
HETATM   13  O   UNL     1      18.947  44.603  48.302  1.00  0.00    -0.267 OA
HETATM   14  H   UNL     1      21.455  45.341  46.477  1.00  0.00     0.171 HD
BRANCH  12  15
HETATM   15  C   UNL     1      20.102  46.653  48.154  1.00  0.00     0.034 A 
HETATM   16  C   UNL     1      19.361  47.212  49.196  1.00  0.00     0.044 A 
HETATM   17  C   UNL     1      19.624  48.523  49.604  1.00  0.00     0.068 A 
HETATM   18 CL   UNL     1      18.705  49.154  50.926  1.00  0.00    -0.081 Cl
HETATM   19  C   UNL     1      20.613  49.296  48.968  1.00  0.00     0.089 A 
HETATM   20  C   UNL     1      21.325  48.733  47.903  1.00  0.00     0.039 A 
HETATM   21  C   UNL     1      21.071  47.419  47.495  1.00  0.00     0.020 A 
BRANCH  19  22
HETATM   22  O   UNL     1      20.809  50.566  49.444  1.00  0.00    -0.354 OA
HETATM   23  C   UNL     1      20.368  51.653  48.641  1.00  0.00     0.210 C 
ENDBRANCH  19  22
ENDBRANCH  12  15
ENDBRANCH   9  11
ENDBRANCH   7   9
ENDBRANCH   4   7
BRANCH   1  24
HETATM   24  N   UNL     1      25.633  43.980  50.955  1.00  0.00    -0.378 N 
HETATM   25  C   UNL     1      26.393  42.857  51.555  1.00  0.00     0.143 C 
HETATM   26  C   UNL     1      27.646  43.372  52.285  1.00  0.00     0.145 C 
HETATM   27  N   UNL     1      27.355  44.412  53.273  1.00  0.00    -0.349 N 
HETATM   28  C   UNL     1      28.219  44.759  54.304  1.00  0.00     0.219 C 
HETATM   29  C   UNL     1      26.453  45.467  52.798  1.00  0.00     0.145 C 
HETATM   30  O   UNL     1      28.039  45.767  54.992  1.00  0.00    -0.273 OA
HETATM   31  C   UNL     1      25.239  44.973  51.984  1.00  0.00     0.143 C 
BRANCH  28  32
HETATM   32  C   UNL     1      29.412  43.864  54.609  1.00  0.00     0.103 C 
BRANCH  32  33
HETATM   33  C   UNL     1      30.293  44.419  55.726  1.00  0.00     0.005 C 
HETATM   34  C   UNL     1      31.194  43.375  56.365  1.00  0.00     0.005 C 
ENDBRANCH  32  33
ENDBRANCH  28  32
ENDBRANCH   1  24
TORSDOF 8
ENDMDL
