MODEL 1
REMARK VINA RESULT:      -8.8      0.000      0.000
REMARK  8 active torsions:
REMARK  status: ('A' for Active; 'I' for Inactive)
REMARK    1  A    between atoms: C_2  and  C_3 
REMARK    2  A    between atoms: C_3  and  N_4 
REMARK    3  A    between atoms: N_9  and  C_11 
REMARK    4  A    between atoms: C_11  and  C_12 
REMARK    5  A    between atoms: C_14  and  C_15 
REMARK    6  A    between atoms: C_15  and  C_16 
REMARK    7  A    between atoms: C_16  and  C_17 
REMARK    8  A    between atoms: C_17  and  O_18 
ROOT
HETATM    1  N   UNL     1      27.564  44.246  53.077  1.00  0.00    -0.066 N 
HETATM    2  H   UNL     1      27.810  45.232  53.222  1.00  0.00     0.280 HD
HETATM    3  C   UNL     1      27.119  44.008  51.649  1.00  0.00     0.246 C 
HETATM    4  C   UNL     1      25.914  44.897  51.287  1.00  0.00     0.009 C 
HETATM    5  C   UNL     1      26.328  46.365  51.111  1.00  0.00     0.246 C 
HETATM    6  N   UNL     1      25.305  46.966  50.173  1.00  0.00    -0.066 N 
HETATM    7  H   UNL     1      24.580  47.437  50.733  1.00  0.00     0.280 HD
HETATM    8  C   UNL     1      24.640  45.829  49.428  1.00  0.00     0.236 C 
HETATM    9  C   UNL     1      25.408  44.587  49.866  1.00  0.00     0.040 C 
HETATM   10  C   UNL     1      24.789  44.701  52.329  1.00  0.00     0.014 C 
HETATM   11  C   UNL     1      25.275  44.807  53.778  1.00  0.00     0.029 C 
HETATM   12  C   UNL     1      26.471  43.906  54.064  1.00  0.00     0.235 C 
ENDROOT
BRANCH   1  13
HETATM   13  C   UNL     1      28.864  43.509  53.415  1.00  0.00     0.273 C 
BRANCH  13  14
HETATM   14  C   UNL     1      29.514  44.074  54.654  1.00  0.00    -0.032 A 
HETATM   15  C   UNL     1      30.544  43.372  55.306  1.00  0.00     0.012 A 
HETATM   16  C   UNL     1      31.080  43.856  56.502  1.00  0.00     0.043 A 
HETATM   17  C   UNL     1      30.602  45.045  57.039  1.00  0.00     0.116 A 
HETATM   18  C   UNL     1      29.605  45.766  56.396  1.00  0.00     0.043 A 
HETATM   19  F   UNL     1      31.104  45.496  58.193  1.00  0.00    -0.206 F 
HETATM   20  C   UNL     1      29.060  45.285  55.204  1.00  0.00     0.012 A 
ENDBRANCH  13  14
ENDBRANCH   1  13
BRANCH   6  21
HETATM   21  C   UNL     1      25.856  48.052  49.258  1.00  0.00     0.280 C 
BRANCH  21  22
HETATM   22  C   UNL     1      24.822  49.075  48.913  1.00  0.00     0.009 A 
HETATM   23  S   UNL     1      23.295  49.050  49.701  1.00  0.00    -0.084 SA
HETATM   24  C   UNL     1      22.721  50.374  48.795  1.00  0.00     0.058 A 
HETATM   25  C   UNL     1      23.682  50.860  47.937  1.00  0.00     0.029 A 
HETATM   26  C   UNL     1      24.898  50.114  48.007  1.00  0.00     0.018 A 
BRANCH  24  27
HETATM   27  C   UNL     1      21.398  50.890  48.923  1.00  0.00    -0.057 C 
BRANCH  27  28
HETATM   28  C   UNL     1      20.297  51.359  49.028  1.00  0.00    -0.075 C 
BRANCH  28  29
HETATM   29  C   UNL     1      18.972  51.964  49.147  1.00  0.00     0.258 C 
BRANCH  29  30
HETATM   30  O   UNL     1      18.809  52.930  48.120  1.00  0.00    -0.389 OA
HETATM   31  H   UNL     1      18.812  53.801  48.552  1.00  0.00     0.210 HD
ENDBRANCH  29  30
ENDBRANCH  28  29
ENDBRANCH  27  28
ENDBRANCH  24  27
ENDBRANCH  21  22
ENDBRANCH   6  21
TORSDOF 8
ENDMDL
MODEL 2
REMARK VINA RESULT:      -8.3      5.127     10.691
REMARK  8 active torsions:
REMARK  status: ('A' for Active; 'I' for Inactive)
REMARK    1  A    between atoms: C_2  and  C_3 
REMARK    2  A    between atoms: C_3  and  N_4 
REMARK    3  A    between atoms: N_9  and  C_11 
REMARK    4  A    between atoms: C_11  and  C_12 
REMARK    5  A    between atoms: C_14  and  C_15 
REMARK    6  A    between atoms: C_15  and  C_16 
REMARK    7  A    between atoms: C_16  and  C_17 
REMARK    8  A    between atoms: C_17  and  O_18 
ROOT
HETATM    1  N   UNL     1      23.077  48.400  48.885  1.00  0.00    -0.066 N 
HETATM    2  H   UNL     1      22.895  48.706  49.848  1.00  0.00     0.280 HD
HETATM    3  C   UNL     1      23.683  47.012  48.869  1.00  0.00     0.246 C 
HETATM    4  C   UNL     1      24.993  46.968  49.678  1.00  0.00     0.009 C 
HETATM    5  C   UNL     1      24.726  47.037  51.189  1.00  0.00     0.246 C 
HETATM    6  N   UNL     1      25.907  46.356  51.842  1.00  0.00    -0.066 N 
HETATM    7  H   UNL     1      26.589  47.074  52.124  1.00  0.00     0.280 HD
HETATM    8  C   UNL     1      26.569  45.482  50.798  1.00  0.00     0.236 C 
HETATM    9  C   UNL     1      25.653  45.580  49.584  1.00  0.00     0.040 C 
HETATM   10  C   UNL     1      25.953  48.072  49.179  1.00  0.00     0.014 C 
HETATM   11  C   UNL     1      25.293  49.449  49.067  1.00  0.00     0.029 C 
HETATM   12  C   UNL     1      24.000  49.418  48.258  1.00  0.00     0.235 C 
ENDROOT
BRANCH   1  13
HETATM   13  C   UNL     1      21.688  48.439  48.239  1.00  0.00     0.273 C 
BRANCH  13  14
HETATM   14  C   UNL     1      20.847  49.559  48.801  1.00  0.00    -0.032 A 
HETATM   15  C   UNL     1      20.011  49.339  49.911  1.00  0.00     0.012 A 
HETATM   16  C   UNL     1      19.168  50.353  50.371  1.00  0.00     0.043 A 
HETATM   17  C   UNL     1      19.169  51.589  49.736  1.00  0.00     0.116 A 
HETATM   18  C   UNL     1      20.006  51.835  48.656  1.00  0.00     0.043 A 
HETATM   19  F   UNL     1      18.348  52.552  50.167  1.00  0.00    -0.206 F 
HETATM   20  C   UNL     1      20.847  50.822  48.187  1.00  0.00     0.012 A 
ENDBRANCH  13  14
ENDBRANCH   1  13
BRANCH   6  21
HETATM   21  C   UNL     1      25.570  45.614  53.129  1.00  0.00     0.280 C 
BRANCH  21  22
HETATM   22  C   UNL     1      26.701  44.755  53.596  1.00  0.00     0.009 A 
HETATM   23  S   UNL     1      27.829  45.370  54.738  1.00  0.00    -0.084 SA
HETATM   24  C   UNL     1      28.752  43.938  54.711  1.00  0.00     0.058 A 
HETATM   25  C   UNL     1      28.195  42.988  53.884  1.00  0.00     0.029 A 
HETATM   26  C   UNL     1      27.009  43.456  53.243  1.00  0.00     0.018 A 
BRANCH  24  27
HETATM   27  C   UNL     1      29.956  43.773  55.457  1.00  0.00    -0.057 C 
BRANCH  27  28
HETATM   28  C   UNL     1      30.950  43.620  56.113  1.00  0.00    -0.075 C 
BRANCH  28  29
HETATM   29  C   UNL     1      32.139  43.436  56.943  1.00  0.00     0.258 C 
BRANCH  29  30
HETATM   30  O   UNL     1      31.961  44.131  58.168  1.00  0.00    -0.389 OA
HETATM   31  H   UNL     1      31.003  44.242  58.289  1.00  0.00     0.210 HD
ENDBRANCH  29  30
ENDBRANCH  28  29
ENDBRANCH  27  28
ENDBRANCH  24  27
ENDBRANCH  21  22
ENDBRANCH   6  21
TORSDOF 8
ENDMDL
MODEL 3
REMARK VINA RESULT:      -8.2      5.059      8.128
REMARK  8 active torsions:
REMARK  status: ('A' for Active; 'I' for Inactive)
REMARK    1  A    between atoms: C_2  and  C_3 
REMARK    2  A    between atoms: C_3  and  N_4 
REMARK    3  A    between atoms: N_9  and  C_11 
REMARK    4  A    between atoms: C_11  and  C_12 
REMARK    5  A    between atoms: C_14  and  C_15 
REMARK    6  A    between atoms: C_15  and  C_16 
REMARK    7  A    between atoms: C_16  and  C_17 
REMARK    8  A    between atoms: C_17  and  O_18 
ROOT
HETATM    1  N   UNL     1      25.929  45.772  51.968  1.00  0.00    -0.066 N 
HETATM    2  H   UNL     1      26.694  45.398  51.394  1.00  0.00     0.280 HD
HETATM    3  C   UNL     1      24.645  45.013  51.712  1.00  0.00     0.246 C 
HETATM    4  C   UNL     1      24.248  45.076  50.225  1.00  0.00     0.009 C 
HETATM    5  C   UNL     1      25.161  44.195  49.360  1.00  0.00     0.246 C 
HETATM    6  N   UNL     1      24.337  43.823  48.148  1.00  0.00    -0.066 N 
HETATM    7  H   UNL     1      24.562  44.475  47.383  1.00  0.00     0.280 HD
HETATM    8  C   UNL     1      22.879  44.022  48.504  1.00  0.00     0.236 C 
HETATM    9  C   UNL     1      22.896  44.380  49.986  1.00  0.00     0.040 C 
HETATM   10  C   UNL     1      24.203  46.549  49.759  1.00  0.00     0.014 C 
HETATM   11  C   UNL     1      25.451  47.349  50.143  1.00  0.00     0.029 C 
HETATM   12  C   UNL     1      25.788  47.237  51.626  1.00  0.00     0.235 C 
ENDROOT
BRANCH   1  13
HETATM   13  C   UNL     1      26.445  45.585  53.399  1.00  0.00     0.273 C 
BRANCH  13  14
HETATM   14  C   UNL     1      27.626  44.647  53.444  1.00  0.00    -0.032 A 
HETATM   15  C   UNL     1      28.461  44.599  54.576  1.00  0.00     0.012 A 
HETATM   16  C   UNL     1      29.602  43.795  54.576  1.00  0.00     0.043 A 
HETATM   17  C   UNL     1      29.904  43.027  53.457  1.00  0.00     0.116 A 
HETATM   18  C   UNL     1      29.078  43.039  52.342  1.00  0.00     0.043 A 
HETATM   19  F   UNL     1      31.007  42.272  53.454  1.00  0.00    -0.206 F 
HETATM   20  C   UNL     1      27.938  43.846  52.333  1.00  0.00     0.012 A 
ENDBRANCH  13  14
ENDBRANCH   1  13
BRANCH   6  21
HETATM   21  C   UNL     1      24.640  42.441  47.583  1.00  0.00     0.280 C 
BRANCH  21  22
HETATM   22  C   UNL     1      25.405  41.594  48.549  1.00  0.00     0.009 A 
HETATM   23  S   UNL     1      26.967  41.015  48.130  1.00  0.00    -0.084 SA
HETATM   24  C   UNL     1      27.127  40.162  49.597  1.00  0.00     0.058 A 
HETATM   25  C   UNL     1      26.035  40.346  50.415  1.00  0.00     0.029 A 
HETATM   26  C   UNL     1      25.041  41.175  49.814  1.00  0.00     0.018 A 
BRANCH  24  27
HETATM   27  C   UNL     1      28.262  39.358  49.910  1.00  0.00    -0.057 C 
BRANCH  27  28
HETATM   28  C   UNL     1      29.205  38.654  50.151  1.00  0.00    -0.075 C 
BRANCH  28  29
HETATM   29  C   UNL     1      30.368  37.826  50.467  1.00  0.00     0.258 C 
BRANCH  29  30
HETATM   30  O   UNL     1      31.508  38.356  49.809  1.00  0.00    -0.389 OA
HETATM   31  H   UNL     1      31.198  39.107  49.274  1.00  0.00     0.210 HD
ENDBRANCH  29  30
ENDBRANCH  28  29
ENDBRANCH  27  28
ENDBRANCH  24  27
ENDBRANCH  21  22
ENDBRANCH   6  21
TORSDOF 8
ENDMDL
MODEL 4
REMARK VINA RESULT:      -8.1      2.469      3.255
REMARK  8 active torsions:
REMARK  status: ('A' for Active; 'I' for Inactive)
REMARK    1  A    between atoms: C_2  and  C_3 
REMARK    2  A    between atoms: C_3  and  N_4 
REMARK    3  A    between atoms: N_9  and  C_11 
REMARK    4  A    between atoms: C_11  and  C_12 
REMARK    5  A    between atoms: C_14  and  C_15 
REMARK    6  A    between atoms: C_15  and  C_16 
REMARK    7  A    between atoms: C_16  and  C_17 
REMARK    8  A    between atoms: C_17  and  O_18 
ROOT
HETATM    1  N   UNL     1      25.676  44.700  52.330  1.00  0.00    -0.066 N 
HETATM    2  H   UNL     1      24.660  44.707  52.184  1.00  0.00     0.280 HD
HETATM    3  C   UNL     1      26.265  46.071  52.071  1.00  0.00     0.246 C 
HETATM    4  C   UNL     1      25.955  46.548  50.640  1.00  0.00     0.009 C 
HETATM    5  C   UNL     1      24.480  46.947  50.484  1.00  0.00     0.246 C 
HETATM    6  N   UNL     1      24.448  47.952  49.356  1.00  0.00    -0.066 N 
HETATM    7  H   UNL     1      24.208  47.461  48.482  1.00  0.00     0.280 HD
HETATM    8  C   UNL     1      25.846  48.511  49.197  1.00  0.00     0.236 C 
HETATM    9  C   UNL     1      26.632  47.900  50.351  1.00  0.00     0.040 C 
HETATM   10  C   UNL     1      26.406  45.475  49.623  1.00  0.00     0.014 C 
HETATM   11  C   UNL     1      25.920  44.064  49.968  1.00  0.00     0.029 C 
HETATM   12  C   UNL     1      26.255  43.660  51.400  1.00  0.00     0.235 C 
ENDROOT
BRANCH   1  13
HETATM   13  C   UNL     1      25.814  44.270  53.795  1.00  0.00     0.273 C 
BRANCH  13  14
HETATM   14  C   UNL     1      27.261  44.137  54.199  1.00  0.00    -0.032 A 
HETATM   15  C   UNL     1      27.963  42.940  53.968  1.00  0.00     0.012 A 
HETATM   16  C   UNL     1      29.274  42.792  54.425  1.00  0.00     0.043 A 
HETATM   17  C   UNL     1      29.891  43.840  55.097  1.00  0.00     0.116 A 
HETATM   18  C   UNL     1      29.225  45.039  55.311  1.00  0.00     0.043 A 
HETATM   19  F   UNL     1      31.141  43.689  55.549  1.00  0.00    -0.206 F 
HETATM   20  C   UNL     1      27.912  45.192  54.862  1.00  0.00     0.012 A 
ENDBRANCH  13  14
ENDBRANCH   1  13
BRANCH   6  21
HETATM   21  C   UNL     1      23.378  49.026  49.503  1.00  0.00     0.280 C 
BRANCH  21  22
HETATM   22  C   UNL     1      22.086  48.624  48.868  1.00  0.00     0.009 A 
HETATM   23  S   UNL     1      20.627  49.411  49.320  1.00  0.00    -0.084 SA
HETATM   24  C   UNL     1      19.690  48.433  48.286  1.00  0.00     0.058 A 
HETATM   25  C   UNL     1      20.470  47.550  47.574  1.00  0.00     0.029 A 
HETATM   26  C   UNL     1      21.855  47.662  47.904  1.00  0.00     0.018 A 
BRANCH  24  27
HETATM   27  C   UNL     1      18.270  48.531  48.196  1.00  0.00    -0.057 C 
BRANCH  27  28
HETATM   28  C   UNL     1      17.078  48.649  48.110  1.00  0.00    -0.075 C 
BRANCH  28  29
HETATM   29  C   UNL     1      15.631  48.796  47.966  1.00  0.00     0.258 C 
BRANCH  29  30
HETATM   30  O   UNL     1      15.125  47.700  47.220  1.00  0.00    -0.389 OA
HETATM   31  H   UNL     1      15.880  47.314  46.743  1.00  0.00     0.210 HD
ENDBRANCH  29  30
ENDBRANCH  28  29
ENDBRANCH  27  28
ENDBRANCH  24  27
ENDBRANCH  21  22
ENDBRANCH   6  21
TORSDOF 8
ENDMDL
MODEL 5
REMARK VINA RESULT:      -7.6      4.541      6.041
REMARK  8 active torsions:
REMARK  status: ('A' for Active; 'I' for Inactive)
REMARK    1  A    between atoms: C_2  and  C_3 
REMARK    2  A    between atoms: C_3  and  N_4 
REMARK    3  A    between atoms: N_9  and  C_11 
REMARK    4  A    between atoms: C_11  and  C_12 
REMARK    5  A    between atoms: C_14  and  C_15 
REMARK    6  A    between atoms: C_15  and  C_16 
REMARK    7  A    between atoms: C_16  and  C_17 
REMARK    8  A    between atoms: C_17  and  O_18 
ROOT
HETATM    1  N   UNL     1      28.354  39.717  50.974  1.00  0.00    -0.066 N 
HETATM    2  H   UNL     1      27.525  39.658  51.576  1.00  0.00     0.280 HD
HETATM    3  C   UNL     1      28.148  40.740  49.876  1.00  0.00     0.246 C 
HETATM    4  C   UNL     1      26.915  40.395  49.020  1.00  0.00     0.009 C 
HETATM    5  C   UNL     1      25.607  40.668  49.777  1.00  0.00     0.246 C 
HETATM    6  N   UNL     1      24.568  40.929  48.710  1.00  0.00    -0.066 N 
HETATM    7  H   UNL     1      24.055  40.054  48.527  1.00  0.00     0.280 HD
HETATM    8  C   UNL     1      25.297  41.305  47.438  1.00  0.00     0.236 C 
HETATM    9  C   UNL     1      26.763  41.385  47.850  1.00  0.00     0.040 C 
HETATM   10  C   UNL     1      27.028  38.942  48.503  1.00  0.00     0.014 C 
HETATM   11  C   UNL     1      27.373  37.930  49.599  1.00  0.00     0.029 C 
HETATM   12  C   UNL     1      28.599  38.337  50.411  1.00  0.00     0.235 C 
ENDROOT
BRANCH   1  13
HETATM   13  C   UNL     1      29.464  40.122  51.950  1.00  0.00     0.273 C 
BRANCH  13  14
HETATM   14  C   UNL     1      29.057  41.306  52.793  1.00  0.00    -0.032 A 
HETATM   15  C   UNL     1      27.757  41.395  53.322  1.00  0.00     0.012 A 
HETATM   16  C   UNL     1      27.359  42.535  54.025  1.00  0.00     0.043 A 
HETATM   17  C   UNL     1      28.259  43.577  54.213  1.00  0.00     0.116 A 
HETATM   18  C   UNL     1      29.555  43.495  53.722  1.00  0.00     0.043 A 
HETATM   19  F   UNL     1      27.870  44.674  54.871  1.00  0.00    -0.206 F 
HETATM   20  C   UNL     1      29.958  42.361  53.013  1.00  0.00     0.012 A 
ENDBRANCH  13  14
ENDBRANCH   1  13
BRANCH   6  21
HETATM   21  C   UNL     1      23.494  41.931  49.113  1.00  0.00     0.280 C 
BRANCH  21  22
HETATM   22  C   UNL     1      24.079  43.220  49.593  1.00  0.00     0.009 A 
HETATM   23  S   UNL     1      24.520  43.399  51.244  1.00  0.00    -0.084 SA
HETATM   24  C   UNL     1      25.007  45.016  51.018  1.00  0.00     0.058 A 
HETATM   25  C   UNL     1      24.882  45.407  49.704  1.00  0.00     0.029 A 
HETATM   26  C   UNL     1      24.350  44.371  48.878  1.00  0.00     0.018 A 
BRANCH  24  27
HETATM   27  C   UNL     1      25.476  45.844  52.080  1.00  0.00    -0.057 C 
BRANCH  27  28
HETATM   28  C   UNL     1      25.838  46.541  52.988  1.00  0.00    -0.075 C 
BRANCH  28  29
HETATM   29  C   UNL     1      26.290  47.416  54.069  1.00  0.00     0.258 C 
BRANCH  29  30
HETATM   30  O   UNL     1      25.307  48.413  54.301  1.00  0.00    -0.389 OA
HETATM   31  H   UNL     1      24.606  47.996  54.830  1.00  0.00     0.210 HD
ENDBRANCH  29  30
ENDBRANCH  28  29
ENDBRANCH  27  28
ENDBRANCH  24  27
ENDBRANCH  21  22
ENDBRANCH   6  21
TORSDOF 8
ENDMDL
MODEL 6
REMARK VINA RESULT:      -7.5      5.508      8.121
REMARK  8 active torsions:
REMARK  status: ('A' for Active; 'I' for Inactive)
REMARK    1  A    between atoms: C_2  and  C_3 
REMARK    2  A    between atoms: C_3  and  N_4 
REMARK    3  A    between atoms: N_9  and  C_11 
REMARK    4  A    between atoms: C_11  and  C_12 
REMARK    5  A    between atoms: C_14  and  C_15 
REMARK    6  A    between atoms: C_15  and  C_16 
REMARK    7  A    between atoms: C_16  and  C_17 
REMARK    8  A    between atoms: C_17  and  O_18 
ROOT
HETATM    1  N   UNL     1      26.504  45.011  52.449  1.00  0.00    -0.066 N 
HETATM    2  H   UNL     1      27.371  44.506  52.235  1.00  0.00     0.280 HD
HETATM    3  C   UNL     1      25.297  44.121  52.236  1.00  0.00     0.246 C 
HETATM    4  C   UNL     1      25.241  43.597  50.789  1.00  0.00     0.009 C 
HETATM    5  C   UNL     1      26.311  42.525  50.535  1.00  0.00     0.246 C 
HETATM    6  N   UNL     1      25.771  41.670  49.410  1.00  0.00    -0.066 N 
HETATM    7  H   UNL     1      26.170  42.004  48.521  1.00  0.00     0.280 HD
HETATM    8  C   UNL     1      24.274  41.883  49.348  1.00  0.00     0.236 C 
HETATM    9  C   UNL     1      23.966  42.768  50.551  1.00  0.00     0.040 C 
HETATM   10  C   UNL     1      25.321  44.783  49.800  1.00  0.00     0.014 C 
HETATM   11  C   UNL     1      26.464  45.756  50.106  1.00  0.00     0.029 C 
HETATM   12  C   UNL     1      26.462  46.229  51.556  1.00  0.00     0.235 C 
ENDROOT
BRANCH   1  13
HETATM   13  C   UNL     1      26.686  45.408  53.918  1.00  0.00     0.273 C 
BRANCH  13  14
HETATM   14  C   UNL     1      28.021  44.950  54.454  1.00  0.00    -0.032 A 
HETATM   15  C   UNL     1      28.566  43.715  54.060  1.00  0.00     0.012 A 
HETATM   16  C   UNL     1      29.757  43.257  54.628  1.00  0.00     0.043 A 
HETATM   17  C   UNL     1      30.412  44.035  55.574  1.00  0.00     0.116 A 
HETATM   18  C   UNL     1      29.905  45.270  55.955  1.00  0.00     0.043 A 
HETATM   19  F   UNL     1      31.543  43.586  56.129  1.00  0.00    -0.206 F 
HETATM   20  C   UNL     1      28.711  45.731  55.396  1.00  0.00     0.012 A 
ENDBRANCH  13  14
ENDBRANCH   1  13
BRANCH   6  21
HETATM   21  C   UNL     1      26.173  40.203  49.489  1.00  0.00     0.280 C 
BRANCH  21  22
HETATM   22  C   UNL     1      26.710  39.697  48.189  1.00  0.00     0.009 A 
HETATM   23  S   UNL     1      27.541  40.765  47.130  1.00  0.00    -0.084 SA
HETATM   24  C   UNL     1      27.763  39.550  45.956  1.00  0.00     0.058 A 
HETATM   25  C   UNL     1      27.255  38.339  46.372  1.00  0.00     0.029 A 
HETATM   26  C   UNL     1      26.651  38.421  47.663  1.00  0.00     0.018 A 
BRANCH  24  27
HETATM   27  C   UNL     1      28.393  39.787  44.699  1.00  0.00    -0.057 C 
BRANCH  27  28
HETATM   28  C   UNL     1      28.928  40.022  43.650  1.00  0.00    -0.075 C 
BRANCH  28  29
HETATM   29  C   UNL     1      29.605  40.278  42.379  1.00  0.00     0.258 C 
BRANCH  29  30
HETATM   30  O   UNL     1      29.143  41.510  41.847  1.00  0.00    -0.389 OA
HETATM   31  H   UNL     1      28.172  41.493  41.906  1.00  0.00     0.210 HD
ENDBRANCH  29  30
ENDBRANCH  28  29
ENDBRANCH  27  28
ENDBRANCH  24  27
ENDBRANCH  21  22
ENDBRANCH   6  21
TORSDOF 8
ENDMDL
MODEL 7
REMARK VINA RESULT:      -7.5      3.984      4.910
REMARK  8 active torsions:
REMARK  status: ('A' for Active; 'I' for Inactive)
REMARK    1  A    between atoms: C_2  and  C_3 
REMARK    2  A    between atoms: C_3  and  N_4 
REMARK    3  A    between atoms: N_9  and  C_11 
REMARK    4  A    between atoms: C_11  and  C_12 
REMARK    5  A    between atoms: C_14  and  C_15 
REMARK    6  A    between atoms: C_15  and  C_16 
REMARK    7  A    between atoms: C_16  and  C_17 
REMARK    8  A    between atoms: C_17  and  O_18 
ROOT
HETATM    1  N   UNL     1      28.874  42.330  52.767  1.00  0.00    -0.066 N 
HETATM    2  H   UNL     1      28.157  42.850  53.286  1.00  0.00     0.280 HD
HETATM    3  C   UNL     1      28.700  42.519  51.275  1.00  0.00     0.246 C 
HETATM    4  C   UNL     1      27.303  42.063  50.816  1.00  0.00     0.009 C 
HETATM    5  C   UNL     1      26.213  43.051  51.258  1.00  0.00     0.246 C 
HETATM    6  N   UNL     1      25.087  42.886  50.262  1.00  0.00    -0.066 N 
HETATM    7  H   UNL     1      24.390  42.238  50.655  1.00  0.00     0.280 HD
HETATM    8  C   UNL     1      25.663  42.239  49.020  1.00  0.00     0.236 C 
HETATM    9  C   UNL     1      27.162  42.171  49.287  1.00  0.00     0.040 C 
HETATM   10  C   UNL     1      27.042  40.616  51.294  1.00  0.00     0.014 C 
HETATM   11  C   UNL     1      27.353  40.399  52.778  1.00  0.00     0.029 C 
HETATM   12  C   UNL     1      28.749  40.878  53.163  1.00  0.00     0.235 C 
ENDROOT
BRANCH   1  13
HETATM   13  C   UNL     1      30.184  42.934  53.285  1.00  0.00     0.273 C 
BRANCH  13  14
HETATM   14  C   UNL     1      29.954  43.798  54.500  1.00  0.00    -0.032 A 
HETATM   15  C   UNL     1      28.860  44.681  54.556  1.00  0.00     0.012 A 
HETATM   16  C   UNL     1      28.704  45.542  55.644  1.00  0.00     0.043 A 
HETATM   17  C   UNL     1      29.626  45.513  56.683  1.00  0.00     0.116 A 
HETATM   18  C   UNL     1      30.697  44.630  56.660  1.00  0.00     0.043 A 
HETATM   19  F   UNL     1      29.483  46.351  57.715  1.00  0.00    -0.206 F 
HETATM   20  C   UNL     1      30.863  43.771  55.572  1.00  0.00     0.012 A 
ENDBRANCH  13  14
ENDBRANCH   1  13
BRANCH   6  21
HETATM   21  C   UNL     1      24.311  44.165  49.975  1.00  0.00     0.280 C 
BRANCH  21  22
HETATM   22  C   UNL     1      24.854  45.334  50.732  1.00  0.00     0.009 A 
HETATM   23  S   UNL     1      24.922  45.288  52.448  1.00  0.00    -0.084 SA
HETATM   24  C   UNL     1      25.550  46.870  52.541  1.00  0.00     0.058 A 
HETATM   25  C   UNL     1      25.749  47.414  51.292  1.00  0.00     0.029 A 
HETATM   26  C   UNL     1      25.352  46.528  50.246  1.00  0.00     0.018 A 
BRANCH  24  27
HETATM   27  C   UNL     1      25.820  47.529  53.776  1.00  0.00    -0.057 C 
BRANCH  27  28
HETATM   28  C   UNL     1      26.056  48.114  54.798  1.00  0.00    -0.075 C 
BRANCH  28  29
HETATM   29  C   UNL     1      26.381  48.818  56.038  1.00  0.00     0.258 C 
BRANCH  29  30
HETATM   30  O   UNL     1      25.177  49.206  56.681  1.00  0.00    -0.389 OA
HETATM   31  H   UNL     1      24.983  50.113  56.387  1.00  0.00     0.210 HD
ENDBRANCH  29  30
ENDBRANCH  28  29
ENDBRANCH  27  28
ENDBRANCH  24  27
ENDBRANCH  21  22
ENDBRANCH   6  21
TORSDOF 8
ENDMDL
MODEL 8
REMARK VINA RESULT:      -7.4      6.841      9.674
REMARK  8 active torsions:
REMARK  status: ('A' for Active; 'I' for Inactive)
REMARK    1  A    between atoms: C_2  and  C_3 
REMARK    2  A    between atoms: C_3  and  N_4 
REMARK    3  A    between atoms: N_9  and  C_11 
REMARK    4  A    between atoms: C_11  and  C_12 
REMARK    5  A    between atoms: C_14  and  C_15 
REMARK    6  A    between atoms: C_15  and  C_16 
REMARK    7  A    between atoms: C_16  and  C_17 
REMARK    8  A    between atoms: C_17  and  O_18 
ROOT
HETATM    1  N   UNL     1      21.966  48.769  49.152  1.00  0.00    -0.066 N 
HETATM    2  H   UNL     1      21.287  48.404  49.830  1.00  0.00     0.280 HD
HETATM    3  C   UNL     1      21.506  48.500  47.734  1.00  0.00     0.246 C 
HETATM    4  C   UNL     1      21.300  46.993  47.494  1.00  0.00     0.009 C 
HETATM    5  C   UNL     1      20.038  46.476  48.200  1.00  0.00     0.246 C 
HETATM    6  N   UNL     1      19.596  45.266  47.407  1.00  0.00    -0.066 N 
HETATM    7  H   UNL     1      19.965  44.420  47.863  1.00  0.00     0.280 HD
HETATM    8  C   UNL     1      20.228  45.358  46.035  1.00  0.00     0.236 C 
HETATM    9  C   UNL     1      20.922  46.716  46.027  1.00  0.00     0.040 C 
HETATM   10  C   UNL     1      22.579  46.220  47.890  1.00  0.00     0.014 C 
HETATM   11  C   UNL     1      23.116  46.599  49.273  1.00  0.00     0.029 C 
HETATM   12  C   UNL     1      23.291  48.105  49.444  1.00  0.00     0.235 C 
ENDROOT
BRANCH   1  13
HETATM   13  C   UNL     1      22.013  50.265  49.478  1.00  0.00     0.273 C 
BRANCH  13  14
HETATM   14  C   UNL     1      20.640  50.889  49.422  1.00  0.00    -0.032 A 
HETATM   15  C   UNL     1      19.603  50.415  50.247  1.00  0.00     0.012 A 
HETATM   16  C   UNL     1      18.313  50.935  50.126  1.00  0.00     0.043 A 
HETATM   17  C   UNL     1      18.058  51.936  49.196  1.00  0.00     0.116 A 
HETATM   18  C   UNL     1      19.074  52.436  48.392  1.00  0.00     0.043 A 
HETATM   19  F   UNL     1      16.818  52.419  49.070  1.00  0.00    -0.206 F 
HETATM   20  C   UNL     1      20.365  51.916  48.503  1.00  0.00     0.012 A 
ENDBRANCH  13  14
ENDBRANCH   1  13
BRANCH   6  21
HETATM   21  C   UNL     1      18.087  45.060  47.368  1.00  0.00     0.280 C 
BRANCH  21  22
HETATM   22  C   UNL     1      17.338  46.332  47.601  1.00  0.00     0.009 A 
HETATM   23  S   UNL     1      17.099  47.436  46.306  1.00  0.00    -0.084 SA
HETATM   24  C   UNL     1      16.288  48.552  47.306  1.00  0.00     0.058 A 
HETATM   25  C   UNL     1      16.159  48.082  48.594  1.00  0.00     0.029 A 
HETATM   26  C   UNL     1      16.760  46.799  48.766  1.00  0.00     0.018 A 
BRANCH  24  27
HETATM   27  C   UNL     1      15.818  49.816  46.842  1.00  0.00    -0.057 C 
BRANCH  27  28
HETATM   28  C   UNL     1      15.450  50.881  46.427  1.00  0.00    -0.075 C 
BRANCH  28  29
HETATM   29  C   UNL     1      15.020  52.170  45.888  1.00  0.00     0.258 C 
BRANCH  29  30
HETATM   30  O   UNL     1      16.057  53.120  46.075  1.00  0.00    -0.389 OA
HETATM   31  H   UNL     1      16.851  52.621  46.333  1.00  0.00     0.210 HD
ENDBRANCH  29  30
ENDBRANCH  28  29
ENDBRANCH  27  28
ENDBRANCH  24  27
ENDBRANCH  21  22
ENDBRANCH   6  21
TORSDOF 8
ENDMDL
MODEL 9
REMARK VINA RESULT:      -7.4      7.555     11.130
REMARK  8 active torsions:
REMARK  status: ('A' for Active; 'I' for Inactive)
REMARK    1  A    between atoms: C_2  and  C_3 
REMARK    2  A    between atoms: C_3  and  N_4 
REMARK    3  A    between atoms: N_9  and  C_11 
REMARK    4  A    between atoms: C_11  and  C_12 
REMARK    5  A    between atoms: C_14  and  C_15 
REMARK    6  A    between atoms: C_15  and  C_16 
REMARK    7  A    between atoms: C_16  and  C_17 
REMARK    8  A    between atoms: C_17  and  O_18 
ROOT
HETATM    1  N   UNL     1      27.526  39.426  46.774  1.00  0.00    -0.066 N 
HETATM    2  H   UNL     1      28.223  40.178  46.723  1.00  0.00     0.280 HD
HETATM    3  C   UNL     1      26.444  39.765  47.778  1.00  0.00     0.246 C 
HETATM    4  C   UNL     1      27.039  40.009  49.177  1.00  0.00     0.009 C 
HETATM    5  C   UNL     1      27.784  41.351  49.247  1.00  0.00     0.246 C 
HETATM    6  N   UNL     1      27.736  41.767  50.699  1.00  0.00    -0.066 N 
HETATM    7  H   UNL     1      28.612  41.476  51.157  1.00  0.00     0.280 HD
HETATM    8  C   UNL     1      26.603  41.009  51.358  1.00  0.00     0.236 C 
HETATM    9  C   UNL     1      25.928  40.263  50.212  1.00  0.00     0.040 C 
HETATM   10  C   UNL     1      27.915  38.804  49.590  1.00  0.00     0.014 C 
HETATM   11  C   UNL     1      28.916  38.380  48.512  1.00  0.00     0.029 C 
HETATM   12  C   UNL     1      28.260  38.161  47.153  1.00  0.00     0.235 C 
ENDROOT
BRANCH   1  13
HETATM   13  C   UNL     1      26.991  39.348  45.341  1.00  0.00     0.273 C 
BRANCH  13  14
HETATM   14  C   UNL     1      28.108  39.417  44.328  1.00  0.00    -0.032 A 
HETATM   15  C   UNL     1      28.652  38.242  43.779  1.00  0.00     0.012 A 
HETATM   16  C   UNL     1      29.744  38.308  42.911  1.00  0.00     0.043 A 
HETATM   17  C   UNL     1      30.285  39.545  42.579  1.00  0.00     0.116 A 
HETATM   18  C   UNL     1      29.745  40.718  43.089  1.00  0.00     0.043 A 
HETATM   19  F   UNL     1      31.342  39.604  41.763  1.00  0.00    -0.206 F 
HETATM   20  C   UNL     1      28.657  40.658  43.962  1.00  0.00     0.012 A 
ENDBRANCH  13  14
ENDBRANCH   1  13
BRANCH   6  21
HETATM   21  C   UNL     1      27.666  43.273  50.918  1.00  0.00     0.280 C 
BRANCH  21  22
HETATM   22  C   UNL     1      28.136  43.666  52.282  1.00  0.00     0.009 A 
HETATM   23  S   UNL     1      29.601  43.019  52.903  1.00  0.00    -0.084 SA
HETATM   24  C   UNL     1      29.419  43.834  54.389  1.00  0.00     0.058 A 
HETATM   25  C   UNL     1      28.289  44.621  54.404  1.00  0.00     0.029 A 
HETATM   26  C   UNL     1      27.549  44.529  53.187  1.00  0.00     0.018 A 
BRANCH  24  27
HETATM   27  C   UNL     1      30.336  43.693  55.472  1.00  0.00    -0.057 C 
BRANCH  27  28
HETATM   28  C   UNL     1      31.128  43.603  56.371  1.00  0.00    -0.075 C 
BRANCH  28  29
HETATM   29  C   UNL     1      32.118  43.511  57.442  1.00  0.00     0.258 C 
BRANCH  29  30
HETATM   30  O   UNL     1      31.794  44.449  58.456  1.00  0.00    -0.389 OA
HETATM   31  H   UNL     1      31.572  45.282  58.006  1.00  0.00     0.210 HD
ENDBRANCH  29  30
ENDBRANCH  28  29
ENDBRANCH  27  28
ENDBRANCH  24  27
ENDBRANCH  21  22
ENDBRANCH   6  21
TORSDOF 8
ENDMDL
MODEL 10
REMARK VINA RESULT:      -7.4      5.515     10.874
REMARK  8 active torsions:
REMARK  status: ('A' for Active; 'I' for Inactive)
REMARK    1  A    between atoms: C_2  and  C_3 
REMARK    2  A    between atoms: C_3  and  N_4 
REMARK    3  A    between atoms: N_9  and  C_11 
REMARK    4  A    between atoms: C_11  and  C_12 
REMARK    5  A    between atoms: C_14  and  C_15 
REMARK    6  A    between atoms: C_15  and  C_16 
REMARK    7  A    between atoms: C_16  and  C_17 
REMARK    8  A    between atoms: C_17  and  O_18 
ROOT
HETATM    1  N   UNL     1      19.658  49.921  48.439  1.00  0.00    -0.066 N 
HETATM    2  H   UNL     1      19.571  49.074  49.012  1.00  0.00     0.280 HD
HETATM    3  C   UNL     1      20.966  49.920  47.676  1.00  0.00     0.246 C 
HETATM    4  C   UNL     1      22.169  49.823  48.633  1.00  0.00     0.009 C 
HETATM    5  C   UNL     1      22.302  48.414  49.231  1.00  0.00     0.246 C 
HETATM    6  N   UNL     1      23.765  48.256  49.575  1.00  0.00    -0.066 N 
HETATM    7  H   UNL     1      23.897  48.482  50.571  1.00  0.00     0.280 HD
HETATM    8  C   UNL     1      24.541  49.275  48.768  1.00  0.00     0.236 C 
HETATM    9  C   UNL     1      23.497  49.915  47.860  1.00  0.00     0.040 C 
HETATM   10  C   UNL     1      22.075  50.933  49.705  1.00  0.00     0.014 C 
HETATM   11  C   UNL     1      20.701  51.016  50.377  1.00  0.00     0.029 C 
HETATM   12  C   UNL     1      19.558  51.105  49.372  1.00  0.00     0.235 C 
ENDROOT
BRANCH   1  13
HETATM   13  C   UNL     1      18.440  49.841  47.513  1.00  0.00     0.273 C 
BRANCH  13  14
HETATM   14  C   UNL     1      18.041  48.411  47.245  1.00  0.00    -0.032 A 
HETATM   15  C   UNL     1      17.764  47.532  48.309  1.00  0.00     0.012 A 
HETATM   16  C   UNL     1      17.483  46.188  48.057  1.00  0.00     0.043 A 
HETATM   17  C   UNL     1      17.462  45.722  46.748  1.00  0.00     0.116 A 
HETATM   18  C   UNL     1      17.705  46.579  45.683  1.00  0.00     0.043 A 
HETATM   19  F   UNL     1      17.210  44.430  46.512  1.00  0.00    -0.206 F 
HETATM   20  C   UNL     1      17.993  47.923  45.928  1.00  0.00     0.012 A 
ENDBRANCH  13  14
ENDBRANCH   1  13
BRANCH   6  21
HETATM   21  C   UNL     1      24.294  46.835  49.427  1.00  0.00     0.280 C 
BRANCH  21  22
HETATM   22  C   UNL     1      24.804  46.287  50.721  1.00  0.00     0.009 A 
HETATM   23  S   UNL     1      25.962  47.173  51.630  1.00  0.00    -0.084 SA
HETATM   24  C   UNL     1      26.063  45.962  52.825  1.00  0.00     0.058 A 
HETATM   25  C   UNL     1      25.202  44.918  52.567  1.00  0.00     0.029 A 
HETATM   26  C   UNL     1      24.471  45.106  51.356  1.00  0.00     0.018 A 
BRANCH  24  27
HETATM   27  C   UNL     1      26.946  46.041  53.941  1.00  0.00    -0.057 C 
BRANCH  27  28
HETATM   28  C   UNL     1      27.676  46.139  54.890  1.00  0.00    -0.075 C 
BRANCH  28  29
HETATM   29  C   UNL     1      28.575  46.223  56.040  1.00  0.00     0.258 C 
BRANCH  29  30
HETATM   30  O   UNL     1      29.580  45.227  55.916  1.00  0.00    -0.389 OA
HETATM   31  H   UNL     1      29.507  44.868  55.015  1.00  0.00     0.210 HD
ENDBRANCH  29  30
ENDBRANCH  28  29
ENDBRANCH  27  28
ENDBRANCH  24  27
ENDBRANCH  21  22
ENDBRANCH   6  21
TORSDOF 8
ENDMDL
