MODEL 1
REMARK VINA RESULT:      -8.5      0.000      0.000
REMARK  2 active torsions:
REMARK  status: ('A' for Active; 'I' for Inactive)
REMARK    1  A    between atoms: C_8  and  N_9 
REMARK       I    between atoms: N_9  and  C_10 
REMARK       I    between atoms: C_10  and  N_11 
REMARK    2  A    between atoms: N_11  and  C_12 
ROOT
HETATM    1  C   UNL     1      31.337  43.544  56.941  1.00  0.00     0.044 A 
HETATM    2  C   UNL     1      31.020  44.649  57.713  1.00  0.00     0.117 A 
HETATM    3  F   UNL     1      31.581  44.794  58.920  1.00  0.00    -0.206 F 
HETATM    4  C   UNL     1      30.106  45.593  57.265  1.00  0.00     0.067 A 
HETATM    5  C   UNL     1      29.493  45.446  56.009  1.00  0.00     0.074 A 
HETATM    6  C   UNL     1      28.457  46.384  55.684  1.00  0.00     0.102 C 
HETATM    7  N   UNL     1      27.601  47.130  55.441  1.00  0.00    -0.191 NA
HETATM    8  C   UNL     1      29.830  44.344  55.194  1.00  0.00     0.057 A 
HETATM    9  C   UNL     1      30.740  43.389  55.688  1.00  0.00     0.034 A 
ENDROOT
BRANCH   8  10
HETATM   10  N   UNL     1      29.284  44.051  53.918  1.00  0.00    -0.308 N 
HETATM   11  C   UNL     1      28.223  43.229  53.639  1.00  0.00     0.321 C 
HETATM   12  N   UNL     1      28.135  42.965  52.292  1.00  0.00    -0.336 N 
HETATM   13  O   UNL     1      27.421  42.760  54.436  1.00  0.00    -0.247 OA
HETATM   14  H   UNL     1      28.981  43.132  51.760  1.00  0.00     0.164 HD
HETATM   15  H   UNL     1      29.471  44.734  53.193  1.00  0.00     0.170 HD
BRANCH  12  16
HETATM   16  C   UNL     1      27.125  42.097  51.681  1.00  0.00     0.118 C 
HETATM   17  C   UNL     1      25.862  42.788  51.131  1.00  0.00     0.210 C 
HETATM   18  N   UNL     1      26.255  43.141  49.725  1.00  0.00    -0.065 N 
HETATM   19  C   UNL     1      25.332  44.031  51.828  1.00  0.00     0.035 C 
HETATM   20  H   UNL     1      26.974  43.899  49.791  1.00  0.00     0.280 HD
HETATM   21  C   UNL     1      25.126  43.639  48.889  1.00  0.00     0.235 C 
HETATM   22  C   UNL     1      26.996  41.941  49.218  1.00  0.00     0.237 C 
HETATM   23  C   UNL     1      24.511  44.860  49.564  1.00  0.00     0.028 C 
HETATM   24  C   UNL     1      24.160  44.619  51.035  1.00  0.00     0.004 C 
HETATM   25  C   UNL     1      27.668  41.340  50.456  1.00  0.00     0.055 C 
ENDBRANCH  12  16
ENDBRANCH   8  10
TORSDOF 2
ENDMDL
MODEL 2
REMARK VINA RESULT:      -8.5      4.734      8.167
REMARK  2 active torsions:
REMARK  status: ('A' for Active; 'I' for Inactive)
REMARK    1  A    between atoms: C_8  and  N_9 
REMARK       I    between atoms: N_9  and  C_10 
REMARK       I    between atoms: C_10  and  N_11 
REMARK    2  A    between atoms: N_11  and  C_12 
ROOT
HETATM    1  C   UNL     1      23.072  48.479  48.761  1.00  0.00     0.044 A 
HETATM    2  C   UNL     1      23.720  49.505  48.094  1.00  0.00     0.117 A 
HETATM    3  F   UNL     1      23.030  50.282  47.249  1.00  0.00    -0.206 F 
HETATM    4  C   UNL     1      25.080  49.720  48.267  1.00  0.00     0.067 A 
HETATM    5  C   UNL     1      25.823  48.902  49.135  1.00  0.00     0.074 A 
HETATM    6  C   UNL     1      27.244  49.098  49.146  1.00  0.00     0.102 C 
HETATM    7  N   UNL     1      28.396  49.244  49.130  1.00  0.00    -0.191 NA
HETATM    8  C   UNL     1      25.172  47.873  49.850  1.00  0.00     0.057 A 
HETATM    9  C   UNL     1      23.796  47.662  49.631  1.00  0.00     0.034 A 
ENDROOT
BRANCH   8  10
HETATM   10  N   UNL     1      25.787  46.957  50.742  1.00  0.00    -0.308 N 
HETATM   11  C   UNL     1      25.679  46.930  52.108  1.00  0.00     0.321 C 
HETATM   12  N   UNL     1      26.611  46.089  52.667  1.00  0.00    -0.336 N 
HETATM   13  O   UNL     1      24.878  47.548  52.798  1.00  0.00    -0.247 OA
HETATM   14  H   UNL     1      27.403  45.863  52.077  1.00  0.00     0.164 HD
HETATM   15  H   UNL     1      26.064  46.070  50.338  1.00  0.00     0.170 HD
BRANCH  12  16
HETATM   16  C   UNL     1      26.769  45.865  54.107  1.00  0.00     0.118 C 
HETATM   17  C   UNL     1      27.551  44.605  54.529  1.00  0.00     0.210 C 
HETATM   18  N   UNL     1      28.974  45.085  54.556  1.00  0.00    -0.065 N 
HETATM   19  C   UNL     1      27.463  43.354  53.670  1.00  0.00     0.035 C 
HETATM   20  H   UNL     1      29.255  45.261  53.563  1.00  0.00     0.280 HD
HETATM   21  C   UNL     1      29.931  44.106  55.145  1.00  0.00     0.235 C 
HETATM   22  C   UNL     1      28.913  46.441  55.192  1.00  0.00     0.237 C 
HETATM   23  C   UNL     1      29.852  42.802  54.360  1.00  0.00     0.028 C 
HETATM   24  C   UNL     1      28.420  42.282  54.203  1.00  0.00     0.004 C 
HETATM   25  C   UNL     1      27.544  47.003  54.794  1.00  0.00     0.055 C 
ENDBRANCH  12  16
ENDBRANCH   8  10
TORSDOF 2
ENDMDL
MODEL 3
REMARK VINA RESULT:      -8.4      7.368     10.002
REMARK  2 active torsions:
REMARK  status: ('A' for Active; 'I' for Inactive)
REMARK    1  A    between atoms: C_8  and  N_9 
REMARK       I    between atoms: N_9  and  C_10 
REMARK       I    between atoms: C_10  and  N_11 
REMARK    2  A    between atoms: N_11  and  C_12 
ROOT
HETATM    1  C   UNL     1      26.575  50.079  48.309  1.00  0.00     0.044 A 
HETATM    2  C   UNL     1      27.340  49.204  49.062  1.00  0.00     0.117 A 
HETATM    3  F   UNL     1      28.669  49.357  49.104  1.00  0.00    -0.206 F 
HETATM    4  C   UNL     1      26.749  48.153  49.751  1.00  0.00     0.067 A 
HETATM    5  C   UNL     1      25.356  47.967  49.702  1.00  0.00     0.074 A 
HETATM    6  C   UNL     1      24.844  46.778  50.321  1.00  0.00     0.102 C 
HETATM    7  N   UNL     1      24.440  45.801  50.800  1.00  0.00    -0.191 NA
HETATM    8  C   UNL     1      24.558  48.870  48.967  1.00  0.00     0.057 A 
HETATM    9  C   UNL     1      25.190  49.909  48.256  1.00  0.00     0.034 A 
ENDROOT
BRANCH   8  10
HETATM   10  N   UNL     1      23.150  48.801  48.808  1.00  0.00    -0.308 N 
HETATM   11  C   UNL     1      22.198  49.432  49.566  1.00  0.00     0.321 C 
HETATM   12  N   UNL     1      20.942  48.935  49.307  1.00  0.00    -0.336 N 
HETATM   13  O   UNL     1      22.376  50.328  50.381  1.00  0.00    -0.247 OA
HETATM   14  H   UNL     1      20.918  48.023  48.866  1.00  0.00     0.164 HD
HETATM   15  H   UNL     1      22.825  48.535  47.886  1.00  0.00     0.170 HD
BRANCH  12  16
HETATM   16  C   UNL     1      19.718  49.383  49.977  1.00  0.00     0.118 C 
HETATM   17  C   UNL     1      18.984  50.582  49.344  1.00  0.00     0.210 C 
HETATM   18  N   UNL     1      18.071  49.930  48.346  1.00  0.00    -0.065 N 
HETATM   19  C   UNL     1      19.793  51.665  48.648  1.00  0.00     0.035 C 
HETATM   20  H   UNL     1      18.678  49.547  47.583  1.00  0.00     0.280 HD
HETATM   21  C   UNL     1      17.082  50.861  47.733  1.00  0.00     0.235 C 
HETATM   22  C   UNL     1      17.524  48.726  49.051  1.00  0.00     0.237 C 
HETATM   23  C   UNL     1      17.830  52.007  47.061  1.00  0.00     0.028 C 
HETATM   24  C   UNL     1      18.853  52.677  47.983  1.00  0.00     0.004 C 
HETATM   25  C   UNL     1      18.636  48.290  50.011  1.00  0.00     0.055 C 
ENDBRANCH  12  16
ENDBRANCH   8  10
TORSDOF 2
ENDMDL
MODEL 4
REMARK VINA RESULT:      -8.3      2.140      2.803
REMARK  2 active torsions:
REMARK  status: ('A' for Active; 'I' for Inactive)
REMARK    1  A    between atoms: C_8  and  N_9 
REMARK       I    between atoms: N_9  and  C_10 
REMARK       I    between atoms: C_10  and  N_11 
REMARK    2  A    between atoms: N_11  and  C_12 
ROOT
HETATM    1  C   UNL     1      31.233  44.017  57.053  1.00  0.00     0.044 A 
HETATM    2  C   UNL     1      30.448  45.125  57.324  1.00  0.00     0.117 A 
HETATM    3  F   UNL     1      30.611  45.783  58.479  1.00  0.00    -0.206 F 
HETATM    4  C   UNL     1      29.476  45.547  56.427  1.00  0.00     0.067 A 
HETATM    5  C   UNL     1      29.279  44.856  55.219  1.00  0.00     0.074 A 
HETATM    6  C   UNL     1      28.162  45.267  54.418  1.00  0.00     0.102 C 
HETATM    7  N   UNL     1      27.240  45.588  53.788  1.00  0.00    -0.191 NA
HETATM    8  C   UNL     1      30.092  43.744  54.911  1.00  0.00     0.057 A 
HETATM    9  C   UNL     1      31.051  43.325  55.854  1.00  0.00     0.034 A 
ENDROOT
BRANCH   8  10
HETATM   10  N   UNL     1      30.000  42.939  53.747  1.00  0.00    -0.308 N 
HETATM   11  C   UNL     1      29.037  42.007  53.458  1.00  0.00     0.321 C 
HETATM   12  N   UNL     1      29.400  41.230  52.383  1.00  0.00    -0.336 N 
HETATM   13  O   UNL     1      27.973  41.839  54.039  1.00  0.00    -0.247 OA
HETATM   14  H   UNL     1      30.389  41.228  52.161  1.00  0.00     0.164 HD
HETATM   15  H   UNL     1      30.482  43.293  52.930  1.00  0.00     0.170 HD
BRANCH  12  16
HETATM   16  C   UNL     1      28.596  40.128  51.847  1.00  0.00     0.118 C 
HETATM   17  C   UNL     1      27.904  40.374  50.491  1.00  0.00     0.210 C 
HETATM   18  N   UNL     1      28.949  39.953  49.498  1.00  0.00    -0.065 N 
HETATM   19  C   UNL     1      27.422  41.774  50.147  1.00  0.00     0.035 C 
HETATM   20  H   UNL     1      29.717  40.664  49.545  1.00  0.00     0.280 HD
HETATM   21  C   UNL     1      28.456  39.891  48.093  1.00  0.00     0.235 C 
HETATM   22  C   UNL     1      29.540  38.699  50.066  1.00  0.00     0.237 C 
HETATM   23  C   UNL     1      27.905  41.257  47.700  1.00  0.00     0.028 C 
HETATM   24  C   UNL     1      26.893  41.809  48.709  1.00  0.00     0.004 C 
HETATM   25  C   UNL     1      29.435  38.865  51.585  1.00  0.00     0.055 C 
ENDBRANCH  12  16
ENDBRANCH   8  10
TORSDOF 2
ENDMDL
MODEL 5
REMARK VINA RESULT:      -8.2      2.379      3.813
REMARK  2 active torsions:
REMARK  status: ('A' for Active; 'I' for Inactive)
REMARK    1  A    between atoms: C_8  and  N_9 
REMARK       I    between atoms: N_9  and  C_10 
REMARK       I    between atoms: C_10  and  N_11 
REMARK    2  A    between atoms: N_11  and  C_12 
ROOT
HETATM    1  C   UNL     1      31.048  44.173  56.428  1.00  0.00     0.044 A 
HETATM    2  C   UNL     1      30.341  45.343  56.653  1.00  0.00     0.117 A 
HETATM    3  F   UNL     1      30.793  46.223  57.554  1.00  0.00    -0.206 F 
HETATM    4  C   UNL     1      29.157  45.601  55.977  1.00  0.00     0.067 A 
HETATM    5  C   UNL     1      28.658  44.678  55.041  1.00  0.00     0.074 A 
HETATM    6  C   UNL     1      27.360  44.952  54.496  1.00  0.00     0.102 C 
HETATM    7  N   UNL     1      26.297  45.166  54.080  1.00  0.00    -0.191 NA
HETATM    8  C   UNL     1      29.383  43.496  54.775  1.00  0.00     0.057 A 
HETATM    9  C   UNL     1      30.567  43.250  55.497  1.00  0.00     0.034 A 
ENDROOT
BRANCH   8  10
HETATM   10  N   UNL     1      28.999  42.466  53.878  1.00  0.00    -0.308 N 
HETATM   11  C   UNL     1      29.001  42.516  52.508  1.00  0.00     0.321 C 
HETATM   12  N   UNL     1      28.321  41.451  51.967  1.00  0.00    -0.336 N 
HETATM   13  O   UNL     1      29.522  43.368  51.800  1.00  0.00    -0.247 OA
HETATM   14  H   UNL     1      27.682  40.978  52.596  1.00  0.00     0.164 HD
HETATM   15  H   UNL     1      29.033  41.525  54.250  1.00  0.00     0.170 HD
BRANCH  12  16
HETATM   16  C   UNL     1      28.122  41.235  50.532  1.00  0.00     0.118 C 
HETATM   17  C   UNL     1      28.330  39.799  50.013  1.00  0.00     0.210 C 
HETATM   18  N   UNL     1      26.974  39.178  50.185  1.00  0.00    -0.065 N 
HETATM   19  C   UNL     1      29.373  38.914  50.677  1.00  0.00     0.035 C 
HETATM   20  H   UNL     1      26.815  39.075  51.215  1.00  0.00     0.280 HD
HETATM   21  C   UNL     1      26.841  37.833  49.557  1.00  0.00     0.235 C 
HETATM   22  C   UNL     1      26.006  40.232  49.742  1.00  0.00     0.237 C 
HETATM   23  C   UNL     1      27.900  36.905  50.141  1.00  0.00     0.028 C 
HETATM   24  C   UNL     1      29.312  37.499  50.091  1.00  0.00     0.004 C 
HETATM   25  C   UNL     1      26.686  41.562  50.084  1.00  0.00     0.055 C 
ENDBRANCH  12  16
ENDBRANCH   8  10
TORSDOF 2
ENDMDL
MODEL 6
REMARK VINA RESULT:      -8.0      6.482      9.791
REMARK  2 active torsions:
REMARK  status: ('A' for Active; 'I' for Inactive)
REMARK    1  A    between atoms: C_8  and  N_9 
REMARK       I    between atoms: N_9  and  C_10 
REMARK       I    between atoms: C_10  and  N_11 
REMARK    2  A    between atoms: N_11  and  C_12 
ROOT
HETATM    1  C   UNL     1      19.234  50.543  49.522  1.00  0.00     0.044 A 
HETATM    2  C   UNL     1      19.752  51.635  48.845  1.00  0.00     0.117 A 
HETATM    3  F   UNL     1      18.974  52.701  48.620  1.00  0.00    -0.206 F 
HETATM    4  C   UNL     1      21.057  51.627  48.372  1.00  0.00     0.067 A 
HETATM    5  C   UNL     1      21.881  50.508  48.583  1.00  0.00     0.074 A 
HETATM    6  C   UNL     1      23.163  50.522  47.939  1.00  0.00     0.102 C 
HETATM    7  N   UNL     1      24.188  50.529  47.393  1.00  0.00    -0.191 NA
HETATM    8  C   UNL     1      21.381  49.400  49.300  1.00  0.00     0.057 A 
HETATM    9  C   UNL     1      20.044  49.427  49.743  1.00  0.00     0.034 A 
ENDROOT
BRANCH   8  10
HETATM   10  N   UNL     1      22.082  48.197  49.574  1.00  0.00    -0.308 N 
HETATM   11  C   UNL     1      22.440  47.224  48.677  1.00  0.00     0.321 C 
HETATM   12  N   UNL     1      22.864  46.084  49.319  1.00  0.00    -0.336 N 
HETATM   13  O   UNL     1      22.413  47.298  47.456  1.00  0.00    -0.247 OA
HETATM   14  H   UNL     1      22.577  45.998  50.287  1.00  0.00     0.164 HD
HETATM   15  H   UNL     1      22.640  48.198  50.419  1.00  0.00     0.170 HD
BRANCH  12  16
HETATM   16  C   UNL     1      23.288  44.858  48.639  1.00  0.00     0.118 C 
HETATM   17  C   UNL     1      24.641  44.259  49.073  1.00  0.00     0.210 C 
HETATM   18  N   UNL     1      24.262  43.365  50.218  1.00  0.00    -0.065 N 
HETATM   19  C   UNL     1      25.758  45.191  49.514  1.00  0.00     0.035 C 
HETATM   20  H   UNL     1      23.974  43.989  51.009  1.00  0.00     0.280 HD
HETATM   21  C   UNL     1      25.371  42.491  50.694  1.00  0.00     0.235 C 
HETATM   22  C   UNL     1      23.002  42.684  49.777  1.00  0.00     0.237 C 
HETATM   23  C   UNL     1      26.551  43.365  51.103  1.00  0.00     0.028 C 
HETATM   24  C   UNL     1      26.951  44.376  50.024  1.00  0.00     0.004 C 
HETATM   25  C   UNL     1      22.305  43.695  48.862  1.00  0.00     0.055 C 
ENDBRANCH  12  16
ENDBRANCH   8  10
TORSDOF 2
ENDMDL
MODEL 7
REMARK VINA RESULT:      -7.9      1.654      2.082
REMARK  2 active torsions:
REMARK  status: ('A' for Active; 'I' for Inactive)
REMARK    1  A    between atoms: C_8  and  N_9 
REMARK       I    between atoms: N_9  and  C_10 
REMARK       I    between atoms: C_10  and  N_11 
REMARK    2  A    between atoms: N_11  and  C_12 
ROOT
HETATM    1  C   UNL     1      30.879  43.034  55.922  1.00  0.00     0.044 A 
HETATM    2  C   UNL     1      31.100  44.148  56.714  1.00  0.00     0.117 A 
HETATM    3  F   UNL     1      32.095  44.134  57.610  1.00  0.00    -0.206 F 
HETATM    4  C   UNL     1      30.288  45.269  56.610  1.00  0.00     0.067 A 
HETATM    5  C   UNL     1      29.227  45.293  55.688  1.00  0.00     0.074 A 
HETATM    6  C   UNL     1      28.350  46.427  55.746  1.00  0.00     0.102 C 
HETATM    7  N   UNL     1      27.629  47.335  55.817  1.00  0.00    -0.191 NA
HETATM    8  C   UNL     1      29.008  44.179  54.849  1.00  0.00     0.057 A 
HETATM    9  C   UNL     1      29.832  43.047  54.997  1.00  0.00     0.034 A 
ENDROOT
BRANCH   8  10
HETATM   10  N   UNL     1      27.972  44.048  53.889  1.00  0.00    -0.308 N 
HETATM   11  C   UNL     1      28.110  43.932  52.530  1.00  0.00     0.321 C 
HETATM   12  N   UNL     1      26.905  44.095  51.889  1.00  0.00    -0.336 N 
HETATM   13  O   UNL     1      29.141  43.710  51.909  1.00  0.00    -0.247 OA
HETATM   14  H   UNL     1      26.185  44.562  52.428  1.00  0.00     0.164 HD
HETATM   15  H   UNL     1      27.091  43.693  54.240  1.00  0.00     0.170 HD
BRANCH  12  16
HETATM   16  C   UNL     1      26.726  44.054  50.435  1.00  0.00     0.118 C 
HETATM   17  C   UNL     1      25.323  43.673  49.922  1.00  0.00     0.210 C 
HETATM   18  N   UNL     1      24.615  44.996  49.863  1.00  0.00    -0.065 N 
HETATM   19  C   UNL     1      24.482  42.690  50.720  1.00  0.00     0.035 C 
HETATM   20  H   UNL     1      24.468  45.307  50.853  1.00  0.00     0.280 HD
HETATM   21  C   UNL     1      23.287  44.941  49.190  1.00  0.00     0.235 C 
HETATM   22  C   UNL     1      25.623  45.950  49.299  1.00  0.00     0.237 C 
HETATM   23  C   UNL     1      22.407  43.927  49.912  1.00  0.00     0.028 C 
HETATM   24  C   UNL     1      23.087  42.567  50.097  1.00  0.00     0.004 C 
HETATM   25  C   UNL     1      26.979  45.421  49.776  1.00  0.00     0.055 C 
ENDBRANCH  12  16
ENDBRANCH   8  10
TORSDOF 2
ENDMDL
MODEL 8
REMARK VINA RESULT:      -7.8      3.406      5.319
REMARK  2 active torsions:
REMARK  status: ('A' for Active; 'I' for Inactive)
REMARK    1  A    between atoms: C_8  and  N_9 
REMARK       I    between atoms: N_9  and  C_10 
REMARK       I    between atoms: C_10  and  N_11 
REMARK    2  A    between atoms: N_11  and  C_12 
ROOT
HETATM    1  C   UNL     1      28.041  47.152  55.198  1.00  0.00     0.044 A 
HETATM    2  C   UNL     1      28.724  45.953  55.309  1.00  0.00     0.117 A 
HETATM    3  F   UNL     1      29.770  45.863  56.140  1.00  0.00    -0.206 F 
HETATM    4  C   UNL     1      28.355  44.850  54.550  1.00  0.00     0.067 A 
HETATM    5  C   UNL     1      27.272  44.933  53.659  1.00  0.00     0.074 A 
HETATM    6  C   UNL     1      27.049  43.798  52.810  1.00  0.00     0.102 C 
HETATM    7  N   UNL     1      26.891  42.887  52.107  1.00  0.00    -0.191 NA
HETATM    8  C   UNL     1      26.543  46.138  53.558  1.00  0.00     0.057 A 
HETATM    9  C   UNL     1      26.959  47.246  54.321  1.00  0.00     0.034 A 
ENDROOT
BRANCH   8  10
HETATM   10  N   UNL     1      25.444  46.379  52.694  1.00  0.00    -0.308 N 
HETATM   11  C   UNL     1      25.491  46.684  51.358  1.00  0.00     0.321 C 
HETATM   12  N   UNL     1      24.268  47.114  50.900  1.00  0.00    -0.336 N 
HETATM   13  O   UNL     1      26.460  46.602  50.614  1.00  0.00    -0.247 OA
HETATM   14  H   UNL     1      23.624  47.434  51.614  1.00  0.00     0.164 HD
HETATM   15  H   UNL     1      24.559  45.988  52.991  1.00  0.00     0.170 HD
BRANCH  12  16
HETATM   16  C   UNL     1      24.000  47.540  49.524  1.00  0.00     0.118 C 
HETATM   17  C   UNL     1      22.969  46.712  48.732  1.00  0.00     0.210 C 
HETATM   18  N   UNL     1      21.667  47.375  49.077  1.00  0.00    -0.065 N 
HETATM   19  C   UNL     1      22.855  45.219  48.997  1.00  0.00     0.035 C 
HETATM   20  H   UNL     1      21.473  47.161  50.084  1.00  0.00     0.280 HD
HETATM   21  C   UNL     1      20.511  46.895  48.268  1.00  0.00     0.235 C 
HETATM   22  C   UNL     1      21.959  48.844  49.038  1.00  0.00     0.237 C 
HETATM   23  C   UNL     1      20.374  45.387  48.446  1.00  0.00     0.028 C 
HETATM   24  C   UNL     1      21.684  44.632  48.201  1.00  0.00     0.004 C 
HETATM   25  C   UNL     1      23.428  48.967  49.454  1.00  0.00     0.055 C 
ENDBRANCH  12  16
ENDBRANCH   8  10
TORSDOF 2
ENDMDL
MODEL 9
REMARK VINA RESULT:      -7.6      4.378      8.297
REMARK  2 active torsions:
REMARK  status: ('A' for Active; 'I' for Inactive)
REMARK    1  A    between atoms: C_8  and  N_9 
REMARK       I    between atoms: N_9  and  C_10 
REMARK       I    between atoms: C_10  and  N_11 
REMARK    2  A    between atoms: N_11  and  C_12 
ROOT
HETATM    1  C   UNL     1      27.716  39.665  46.563  1.00  0.00     0.044 A 
HETATM    2  C   UNL     1      28.228  38.379  46.523  1.00  0.00     0.117 A 
HETATM    3  F   UNL     1      28.030  37.623  45.437  1.00  0.00    -0.206 F 
HETATM    4  C   UNL     1      28.921  37.855  47.606  1.00  0.00     0.067 A 
HETATM    5  C   UNL     1      29.122  38.629  48.762  1.00  0.00     0.074 A 
HETATM    6  C   UNL     1      29.718  37.966  49.885  1.00  0.00     0.102 C 
HETATM    7  N   UNL     1      30.177  37.414  50.799  1.00  0.00    -0.191 NA
HETATM    8  C   UNL     1      28.636  39.954  48.806  1.00  0.00     0.057 A 
HETATM    9  C   UNL     1      27.913  40.447  47.703  1.00  0.00     0.034 A 
ENDROOT
BRANCH   8  10
HETATM   10  N   UNL     1      28.743  40.846  49.904  1.00  0.00    -0.308 N 
HETATM   11  C   UNL     1      27.862  40.990  50.945  1.00  0.00     0.321 C 
HETATM   12  N   UNL     1      28.136  42.119  51.679  1.00  0.00    -0.336 N 
HETATM   13  O   UNL     1      26.935  40.245  51.237  1.00  0.00    -0.247 OA
HETATM   14  H   UNL     1      28.702  42.817  51.210  1.00  0.00     0.164 HD
HETATM   15  H   UNL     1      29.678  41.171  50.115  1.00  0.00     0.170 HD
BRANCH  12  16
HETATM   16  C   UNL     1      27.358  42.564  52.839  1.00  0.00     0.118 C 
HETATM   17  C   UNL     1      28.158  43.062  54.058  1.00  0.00     0.210 C 
HETATM   18  N   UNL     1      28.351  44.521  53.763  1.00  0.00    -0.065 N 
HETATM   19  C   UNL     1      29.507  42.432  54.368  1.00  0.00     0.035 C 
HETATM   20  H   UNL     1      29.016  44.583  52.956  1.00  0.00     0.280 HD
HETATM   21  C   UNL     1      28.923  45.297  54.900  1.00  0.00     0.235 C 
HETATM   22  C   UNL     1      27.033  44.984  53.220  1.00  0.00     0.237 C 
HETATM   23  C   UNL     1      30.258  44.681  55.299  1.00  0.00     0.028 C 
HETATM   24  C   UNL     1      30.175  43.170  55.534  1.00  0.00     0.004 C 
HETATM   25  C   UNL     1      26.448  43.760  52.508  1.00  0.00     0.055 C 
ENDBRANCH  12  16
ENDBRANCH   8  10
TORSDOF 2
ENDMDL
MODEL 10
REMARK VINA RESULT:      -7.6      1.496      1.696
REMARK  2 active torsions:
REMARK  status: ('A' for Active; 'I' for Inactive)
REMARK    1  A    between atoms: C_8  and  N_9 
REMARK       I    between atoms: N_9  and  C_10 
REMARK       I    between atoms: C_10  and  N_11 
REMARK    2  A    between atoms: N_11  and  C_12 
ROOT
HETATM    1  C   UNL     1      30.825  43.576  55.424  1.00  0.00     0.044 A 
HETATM    2  C   UNL     1      30.448  44.615  56.259  1.00  0.00     0.117 A 
HETATM    3  F   UNL     1      31.116  44.821  57.400  1.00  0.00    -0.206 F 
HETATM    4  C   UNL     1      29.368  45.428  55.941  1.00  0.00     0.067 A 
HETATM    5  C   UNL     1      28.644  45.214  54.756  1.00  0.00     0.074 A 
HETATM    6  C   UNL     1      27.459  46.002  54.574  1.00  0.00     0.102 C 
HETATM    7  N   UNL     1      26.487  46.624  54.447  1.00  0.00    -0.191 NA
HETATM    8  C   UNL     1      29.036  44.180  53.877  1.00  0.00     0.057 A 
HETATM    9  C   UNL     1      30.118  43.356  54.241  1.00  0.00     0.034 A 
ENDROOT
BRANCH   8  10
HETATM   10  N   UNL     1      28.395  43.831  52.660  1.00  0.00    -0.308 N 
HETATM   11  C   UNL     1      27.739  42.662  52.374  1.00  0.00     0.321 C 
HETATM   12  N   UNL     1      27.475  42.552  51.030  1.00  0.00    -0.336 N 
HETATM   13  O   UNL     1      27.401  41.791  53.166  1.00  0.00    -0.247 OA
HETATM   14  H   UNL     1      28.035  43.143  50.427  1.00  0.00     0.164 HD
HETATM   15  H   UNL     1      28.116  44.608  52.073  1.00  0.00     0.170 HD
BRANCH  12  16
HETATM   16  C   UNL     1      26.810  41.405  50.405  1.00  0.00     0.118 C 
HETATM   17  C   UNL     1      25.375  41.634  49.891  1.00  0.00     0.210 C 
HETATM   18  N   UNL     1      25.593  42.133  48.492  1.00  0.00    -0.065 N 
HETATM   19  C   UNL     1      24.467  42.604  50.631  1.00  0.00     0.035 C 
HETATM   20  H   UNL     1      26.010  43.090  48.571  1.00  0.00     0.280 HD
HETATM   21  C   UNL     1      24.344  42.234  47.685  1.00  0.00     0.235 C 
HETATM   22  C   UNL     1      26.690  41.273  47.941  1.00  0.00     0.237 C 
HETATM   23  C   UNL     1      23.363  43.154  48.402  1.00  0.00     0.028 C 
HETATM   24  C   UNL     1      23.148  42.772  49.870  1.00  0.00     0.004 C 
HETATM   25  C   UNL     1      27.553  40.909  49.152  1.00  0.00     0.055 C 
ENDBRANCH  12  16
ENDBRANCH   8  10
TORSDOF 2
ENDMDL
