MODEL 1
REMARK VINA RESULT:      -8.6      0.000      0.000
REMARK  6 active torsions:
REMARK  status: ('A' for Active; 'I' for Inactive)
REMARK    1  A    between atoms: C_6  and  C_7 
REMARK       I    between atoms: C_7  and  N_8 
REMARK    2  A    between atoms: N_8  and  C_9 
REMARK    3  A    between atoms: C_9  and  C_10 
REMARK    4  A    between atoms: C_10  and  O_11 
REMARK    5  A    between atoms: C_10  and  C_12 
REMARK    6  A    between atoms: C_15  and  O_16 
ROOT
HETATM    1  C   UNL     1      26.303  46.435  49.952  1.00  0.00     0.258 C 
HETATM    2  N   UNL     1      25.703  45.974  51.096  1.00  0.00    -0.350 N 
HETATM    3  O   UNL     1      27.222  45.822  49.411  1.00  0.00    -0.267 OA
HETATM    4  H   UNL     1      24.981  46.565  51.506  1.00  0.00     0.163 HD
ENDROOT
BRANCH   2   5
HETATM    5  C   UNL     1      26.011  44.687  51.717  1.00  0.00     0.114 C 
HETATM    6  C   UNL     1      25.067  43.620  51.162  1.00  0.00     0.035 C 
BRANCH   5   7
HETATM    7  C   UNL     1      26.026  44.701  53.280  1.00  0.00     0.173 C 
BRANCH   7   8
HETATM    8  O   UNL     1      24.986  43.894  53.845  1.00  0.00    -0.389 OA
HETATM    9  H   UNL     1      24.263  43.828  53.186  1.00  0.00     0.210 HD
ENDBRANCH   7   8
BRANCH   7  10
HETATM   10  C   UNL     1      27.348  44.333  53.926  1.00  0.00    -0.028 A 
HETATM   11  C   UNL     1      27.925  43.078  53.690  1.00  0.00     0.012 A 
HETATM   12  C   UNL     1      29.155  42.739  54.261  1.00  0.00     0.037 A 
HETATM   13  C   UNL     1      29.841  43.650  55.064  1.00  0.00     0.068 A 
HETATM   14  C   UNL     1      29.268  44.894  55.324  1.00  0.00     0.037 A 
HETATM   15  C   UNL     1      28.031  45.231  54.760  1.00  0.00     0.012 A 
BRANCH  13  16
HETATM   16  O   UNL     1      31.043  43.208  55.542  1.00  0.00    -0.356 OA
HETATM   17  C   UNL     1      31.376  43.603  56.868  1.00  0.00     0.210 C 
ENDBRANCH  13  16
ENDBRANCH   7  10
ENDBRANCH   5   7
ENDBRANCH   2   5
BRANCH   1  18
HETATM   18  C   UNL     1      25.784  47.687  49.435  1.00  0.00     0.105 A 
HETATM   19  C   UNL     1      26.510  48.858  49.091  1.00  0.00     0.071 A 
HETATM   20  C   UNL     1      27.975  49.087  49.200  1.00  0.00     0.073 C 
HETATM   21  N   UNL     1      25.719  49.830  48.620  1.00  0.00    -0.170 NA
HETATM   22  N   UNL     1      24.476  49.304  48.640  1.00  0.00    -0.225 N 
HETATM   23  C   UNL     1      24.466  48.001  49.147  1.00  0.00     0.168 A 
HETATM   24  C   UNL     1      23.294  49.907  48.221  1.00  0.00     0.122 A 
HETATM   25  N   UNL     1      23.304  47.276  49.264  1.00  0.00    -0.240 NA
HETATM   26  C   UNL     1      22.221  47.874  48.862  1.00  0.00     0.120 A 
HETATM   27  C   UNL     1      22.131  49.249  48.300  1.00  0.00     0.038 A 
ENDBRANCH   1  18
TORSDOF 6
ENDMDL
MODEL 2
REMARK VINA RESULT:      -8.6      1.003      1.473
REMARK  6 active torsions:
REMARK  status: ('A' for Active; 'I' for Inactive)
REMARK    1  A    between atoms: C_6  and  C_7 
REMARK       I    between atoms: C_7  and  N_8 
REMARK    2  A    between atoms: N_8  and  C_9 
REMARK    3  A    between atoms: C_9  and  C_10 
REMARK    4  A    between atoms: C_10  and  O_11 
REMARK    5  A    between atoms: C_10  and  C_12 
REMARK    6  A    between atoms: C_15  and  O_16 
ROOT
HETATM    1  C   UNL     1      26.034  46.659  49.983  1.00  0.00     0.258 C 
HETATM    2  N   UNL     1      25.403  46.299  51.146  1.00  0.00    -0.350 N 
HETATM    3  O   UNL     1      26.907  45.956  49.476  1.00  0.00    -0.267 OA
HETATM    4  H   UNL     1      24.725  46.960  51.524  1.00  0.00     0.163 HD
ENDROOT
BRANCH   2   5
HETATM    5  C   UNL     1      25.618  45.027  51.831  1.00  0.00     0.114 C 
HETATM    6  C   UNL     1      24.672  43.975  51.252  1.00  0.00     0.035 C 
BRANCH   5   7
HETATM    7  C   UNL     1      25.530  45.098  53.391  1.00  0.00     0.173 C 
BRANCH   7   8
HETATM    8  O   UNL     1      24.801  44.000  53.949  1.00  0.00    -0.389 OA
HETATM    9  H   UNL     1      25.344  43.607  54.663  1.00  0.00     0.210 HD
ENDBRANCH   7   8
BRANCH   7  10
HETATM   10  C   UNL     1      26.855  45.236  54.117  1.00  0.00    -0.028 A 
HETATM   11  C   UNL     1      27.153  46.407  54.828  1.00  0.00     0.012 A 
HETATM   12  C   UNL     1      28.360  46.533  55.521  1.00  0.00     0.037 A 
HETATM   13  C   UNL     1      29.285  45.490  55.532  1.00  0.00     0.068 A 
HETATM   14  C   UNL     1      29.010  44.328  54.813  1.00  0.00     0.037 A 
HETATM   15  C   UNL     1      27.805  44.204  54.110  1.00  0.00     0.012 A 
BRANCH  13  16
HETATM   16  O   UNL     1      30.414  45.727  56.266  1.00  0.00    -0.356 OA
HETATM   17  C   UNL     1      30.221  45.955  57.658  1.00  0.00     0.210 C 
ENDBRANCH  13  16
ENDBRANCH   7  10
ENDBRANCH   5   7
ENDBRANCH   2   5
BRANCH   1  18
HETATM   18  C   UNL     1      25.605  47.918  49.403  1.00  0.00     0.105 A 
HETATM   19  C   UNL     1      26.412  49.017  49.006  1.00  0.00     0.071 A 
HETATM   20  C   UNL     1      27.890  49.147  49.113  1.00  0.00     0.073 C 
HETATM   21  N   UNL     1      25.693  50.018  48.484  1.00  0.00    -0.170 NA
HETATM   22  N   UNL     1      24.416  49.581  48.523  1.00  0.00    -0.225 N 
HETATM   23  C   UNL     1      24.313  48.309  49.092  1.00  0.00     0.168 A 
HETATM   24  C   UNL     1      23.281  50.245  48.069  1.00  0.00     0.122 A 
HETATM   25  N   UNL     1      23.103  47.673  49.238  1.00  0.00    -0.240 NA
HETATM   26  C   UNL     1      22.066  48.326  48.801  1.00  0.00     0.120 A 
HETATM   27  C   UNL     1      22.073  49.675  48.173  1.00  0.00     0.038 A 
ENDBRANCH   1  18
TORSDOF 6
ENDMDL
MODEL 3
REMARK VINA RESULT:      -8.5      3.033      7.773
REMARK  6 active torsions:
REMARK  status: ('A' for Active; 'I' for Inactive)
REMARK    1  A    between atoms: C_6  and  C_7 
REMARK       I    between atoms: C_7  and  N_8 
REMARK    2  A    between atoms: N_8  and  C_9 
REMARK    3  A    between atoms: C_9  and  C_10 
REMARK    4  A    between atoms: C_10  and  O_11 
REMARK    5  A    between atoms: C_10  and  C_12 
REMARK    6  A    between atoms: C_15  and  O_16 
ROOT
HETATM    1  C   UNL     1      26.901  44.571  53.247  1.00  0.00     0.258 C 
HETATM    2  N   UNL     1      27.586  44.009  52.199  1.00  0.00    -0.350 N 
HETATM    3  O   UNL     1      25.672  44.562  53.296  1.00  0.00    -0.267 OA
HETATM    4  H   UNL     1      28.601  44.101  52.212  1.00  0.00     0.163 HD
ENDROOT
BRANCH   2   5
HETATM    5  C   UNL     1      26.949  43.268  51.112  1.00  0.00     0.114 C 
HETATM    6  C   UNL     1      27.610  41.896  50.982  1.00  0.00     0.035 C 
BRANCH   5   7
HETATM    7  C   UNL     1      26.896  44.025  49.745  1.00  0.00     0.173 C 
BRANCH   7   8
HETATM    8  O   UNL     1      26.430  43.192  48.677  1.00  0.00    -0.389 OA
HETATM    9  H   UNL     1      27.100  42.494  48.523  1.00  0.00     0.210 HD
ENDBRANCH   7   8
BRANCH   7  10
HETATM   10  C   UNL     1      26.110  45.322  49.744  1.00  0.00    -0.028 A 
HETATM   11  C   UNL     1      26.779  46.554  49.783  1.00  0.00     0.012 A 
HETATM   12  C   UNL     1      26.065  47.755  49.758  1.00  0.00     0.037 A 
HETATM   13  C   UNL     1      24.673  47.752  49.675  1.00  0.00     0.068 A 
HETATM   14  C   UNL     1      23.995  46.534  49.655  1.00  0.00     0.037 A 
HETATM   15  C   UNL     1      24.708  45.330  49.691  1.00  0.00     0.012 A 
BRANCH  13  16
HETATM   16  O   UNL     1      24.095  48.990  49.631  1.00  0.00    -0.356 OA
HETATM   17  C   UNL     1      24.363  49.767  48.469  1.00  0.00     0.210 C 
ENDBRANCH  13  16
ENDBRANCH   7  10
ENDBRANCH   5   7
ENDBRANCH   2   5
BRANCH   1  18
HETATM   18  C   UNL     1      27.723  45.173  54.279  1.00  0.00     0.105 A 
HETATM   19  C   UNL     1      27.529  46.418  54.935  1.00  0.00     0.071 A 
HETATM   20  C   UNL     1      26.447  47.411  54.703  1.00  0.00     0.073 C 
HETATM   21  N   UNL     1      28.467  46.661  55.858  1.00  0.00    -0.170 NA
HETATM   22  N   UNL     1      29.274  45.579  55.824  1.00  0.00    -0.225 N 
HETATM   23  C   UNL     1      28.866  44.651  54.861  1.00  0.00     0.168 A 
HETATM   24  C   UNL     1      30.390  45.330  56.616  1.00  0.00     0.122 A 
HETATM   25  N   UNL     1      29.548  43.476  54.650  1.00  0.00    -0.240 NA
HETATM   26  C   UNL     1      30.585  43.280  55.410  1.00  0.00     0.120 A 
HETATM   27  C   UNL     1      31.091  44.199  56.466  1.00  0.00     0.038 A 
ENDBRANCH   1  18
TORSDOF 6
ENDMDL
MODEL 4
REMARK VINA RESULT:      -7.9      3.459      5.891
REMARK  6 active torsions:
REMARK  status: ('A' for Active; 'I' for Inactive)
REMARK    1  A    between atoms: C_6  and  C_7 
REMARK       I    between atoms: C_7  and  N_8 
REMARK    2  A    between atoms: N_8  and  C_9 
REMARK    3  A    between atoms: C_9  and  C_10 
REMARK    4  A    between atoms: C_10  and  O_11 
REMARK    5  A    between atoms: C_10  and  C_12 
REMARK    6  A    between atoms: C_15  and  O_16 
ROOT
HETATM    1  C   UNL     1      24.703  42.989  50.993  1.00  0.00     0.258 C 
HETATM    2  N   UNL     1      25.670  43.798  51.534  1.00  0.00    -0.350 N 
HETATM    3  O   UNL     1      23.509  43.155  51.236  1.00  0.00    -0.267 OA
HETATM    4  H   UNL     1      26.638  43.564  51.320  1.00  0.00     0.163 HD
ENDROOT
BRANCH   2   5
HETATM    5  C   UNL     1      25.384  44.977  52.350  1.00  0.00     0.114 C 
HETATM    6  C   UNL     1      26.168  46.170  51.805  1.00  0.00     0.035 C 
BRANCH   5   7
HETATM    7  C   UNL     1      25.606  44.780  53.886  1.00  0.00     0.173 C 
BRANCH   7   8
HETATM    8  O   UNL     1      24.738  43.786  54.441  1.00  0.00    -0.389 OA
HETATM    9  H   UNL     1      24.854  42.961  53.926  1.00  0.00     0.210 HD
ENDBRANCH   7   8
BRANCH   7  10
HETATM   10  C   UNL     1      27.033  44.489  54.310  1.00  0.00    -0.028 A 
HETATM   11  C   UNL     1      27.595  43.225  54.080  1.00  0.00     0.012 A 
HETATM   12  C   UNL     1      28.916  42.954  54.446  1.00  0.00     0.037 A 
HETATM   13  C   UNL     1      29.708  43.942  55.031  1.00  0.00     0.068 A 
HETATM   14  C   UNL     1      29.156  45.197  55.283  1.00  0.00     0.037 A 
HETATM   15  C   UNL     1      27.829  45.466  54.926  1.00  0.00     0.012 A 
BRANCH  13  16
HETATM   16  O   UNL     1      30.990  43.560  55.317  1.00  0.00    -0.356 OA
HETATM   17  C   UNL     1      31.304  43.405  56.697  1.00  0.00     0.210 C 
ENDBRANCH  13  16
ENDBRANCH   7  10
ENDBRANCH   5   7
ENDBRANCH   2   5
BRANCH   1  18
HETATM   18  C   UNL     1      25.188  41.932  50.125  1.00  0.00     0.105 A 
HETATM   19  C   UNL     1      24.589  41.434  48.937  1.00  0.00     0.071 A 
HETATM   20  C   UNL     1      23.310  41.864  48.313  1.00  0.00     0.073 C 
HETATM   21  N   UNL     1      25.316  40.466  48.365  1.00  0.00    -0.170 NA
HETATM   22  N   UNL     1      26.397  40.330  49.163  1.00  0.00    -0.225 N 
HETATM   23  C   UNL     1      26.352  41.195  50.260  1.00  0.00     0.168 A 
HETATM   24  C   UNL     1      27.474  39.467  48.988  1.00  0.00     0.122 A 
HETATM   25  N   UNL     1      27.349  41.220  51.206  1.00  0.00    -0.240 NA
HETATM   26  C   UNL     1      28.338  40.399  51.008  1.00  0.00     0.120 A 
HETATM   27  C   UNL     1      28.482  39.451  49.870  1.00  0.00     0.038 A 
ENDBRANCH   1  18
TORSDOF 6
ENDMDL
MODEL 5
REMARK VINA RESULT:      -7.8      2.811      6.831
REMARK  6 active torsions:
REMARK  status: ('A' for Active; 'I' for Inactive)
REMARK    1  A    between atoms: C_6  and  C_7 
REMARK       I    between atoms: C_7  and  N_8 
REMARK    2  A    between atoms: N_8  and  C_9 
REMARK    3  A    between atoms: C_9  and  C_10 
REMARK    4  A    between atoms: C_10  and  O_11 
REMARK    5  A    between atoms: C_10  and  C_12 
REMARK    6  A    between atoms: C_15  and  O_16 
ROOT
HETATM    1  C   UNL     1      28.054  43.726  52.556  1.00  0.00     0.258 C 
HETATM    2  N   UNL     1      26.783  43.308  52.254  1.00  0.00    -0.350 N 
HETATM    3  O   UNL     1      29.022  43.404  51.868  1.00  0.00    -0.267 OA
HETATM    4  H   UNL     1      26.044  43.580  52.901  1.00  0.00     0.163 HD
ENDROOT
BRANCH   2   5
HETATM    5  C   UNL     1      26.438  42.544  51.056  1.00  0.00     0.114 C 
HETATM    6  C   UNL     1      27.221  41.232  51.051  1.00  0.00     0.035 C 
BRANCH   5   7
HETATM    7  C   UNL     1      26.597  43.327  49.712  1.00  0.00     0.173 C 
BRANCH   7   8
HETATM    8  O   UNL     1      26.017  42.631  48.602  1.00  0.00    -0.389 OA
HETATM    9  H   UNL     1      25.052  42.565  48.757  1.00  0.00     0.210 HD
ENDBRANCH   7   8
BRANCH   7  10
HETATM   10  C   UNL     1      26.091  44.757  49.722  1.00  0.00    -0.028 A 
HETATM   11  C   UNL     1      24.714  45.020  49.754  1.00  0.00     0.012 A 
HETATM   12  C   UNL     1      24.239  46.334  49.788  1.00  0.00     0.037 A 
HETATM   13  C   UNL     1      25.127  47.410  49.808  1.00  0.00     0.068 A 
HETATM   14  C   UNL     1      26.497  47.163  49.756  1.00  0.00     0.037 A 
HETATM   15  C   UNL     1      26.974  45.847  49.712  1.00  0.00     0.012 A 
BRANCH  13  16
HETATM   16  O   UNL     1      24.538  48.643  49.867  1.00  0.00    -0.356 OA
HETATM   17  C   UNL     1      23.989  49.135  48.650  1.00  0.00     0.210 C 
ENDBRANCH  13  16
ENDBRANCH   7  10
ENDBRANCH   5   7
ENDBRANCH   2   5
BRANCH   1  18
HETATM   18  C   UNL     1      28.173  44.563  53.735  1.00  0.00     0.105 A 
HETATM   19  C   UNL     1      29.077  44.418  54.821  1.00  0.00     0.071 A 
HETATM   20  C   UNL     1      30.103  43.360  55.018  1.00  0.00     0.073 C 
HETATM   21  N   UNL     1      28.933  45.383  55.738  1.00  0.00    -0.170 NA
HETATM   22  N   UNL     1      27.945  46.170  55.258  1.00  0.00    -0.225 N 
HETATM   23  C   UNL     1      27.441  45.697  54.044  1.00  0.00     0.168 A 
HETATM   24  C   UNL     1      27.436  47.331  55.831  1.00  0.00     0.122 A 
HETATM   25  N   UNL     1      26.424  46.341  53.379  1.00  0.00    -0.240 NA
HETATM   26  C   UNL     1      25.974  47.422  53.946  1.00  0.00     0.120 A 
HETATM   27  C   UNL     1      26.452  48.010  55.227  1.00  0.00     0.038 A 
ENDBRANCH   1  18
TORSDOF 6
ENDMDL
MODEL 6
REMARK VINA RESULT:      -7.8      1.725      2.836
REMARK  6 active torsions:
REMARK  status: ('A' for Active; 'I' for Inactive)
REMARK    1  A    between atoms: C_6  and  C_7 
REMARK       I    between atoms: C_7  and  N_8 
REMARK    2  A    between atoms: N_8  and  C_9 
REMARK    3  A    between atoms: C_9  and  C_10 
REMARK    4  A    between atoms: C_10  and  O_11 
REMARK    5  A    between atoms: C_10  and  C_12 
REMARK    6  A    between atoms: C_15  and  O_16 
ROOT
HETATM    1  C   UNL     1      24.636  45.946  49.742  1.00  0.00     0.258 C 
HETATM    2  N   UNL     1      24.422  45.598  51.052  1.00  0.00    -0.350 N 
HETATM    3  O   UNL     1      25.674  45.647  49.154  1.00  0.00    -0.267 OA
HETATM    4  H   UNL     1      23.556  45.926  51.477  1.00  0.00     0.163 HD
ENDROOT
BRANCH   2   5
HETATM    5  C   UNL     1      25.333  44.767  51.834  1.00  0.00     0.114 C 
HETATM    6  C   UNL     1      25.109  43.298  51.476  1.00  0.00     0.035 C 
BRANCH   5   7
HETATM    7  C   UNL     1      25.279  45.008  53.378  1.00  0.00     0.173 C 
BRANCH   7   8
HETATM    8  O   UNL     1      24.598  43.957  54.073  1.00  0.00    -0.389 OA
HETATM    9  H   UNL     1      24.982  43.104  53.782  1.00  0.00     0.210 HD
ENDBRANCH   7   8
BRANCH   7  10
HETATM   10  C   UNL     1      26.615  45.265  54.049  1.00  0.00    -0.028 A 
HETATM   11  C   UNL     1      26.939  46.548  54.513  1.00  0.00     0.012 A 
HETATM   12  C   UNL     1      28.157  46.789  55.154  1.00  0.00     0.037 A 
HETATM   13  C   UNL     1      29.067  45.753  55.362  1.00  0.00     0.068 A 
HETATM   14  C   UNL     1      28.766  44.477  54.888  1.00  0.00     0.037 A 
HETATM   15  C   UNL     1      27.550  44.236  54.237  1.00  0.00     0.012 A 
BRANCH  13  16
HETATM   16  O   UNL     1      30.209  46.112  56.023  1.00  0.00    -0.356 OA
HETATM   17  C   UNL     1      30.281  45.743  57.396  1.00  0.00     0.210 C 
ENDBRANCH  13  16
ENDBRANCH   7  10
ENDBRANCH   5   7
ENDBRANCH   2   5
BRANCH   1  18
HETATM   18  C   UNL     1      23.562  46.688  49.109  1.00  0.00     0.105 A 
HETATM   19  C   UNL     1      22.347  46.182  48.575  1.00  0.00     0.071 A 
HETATM   20  C   UNL     1      21.897  44.766  48.518  1.00  0.00     0.073 C 
HETATM   21  N   UNL     1      21.563  47.148  48.082  1.00  0.00    -0.170 NA
HETATM   22  N   UNL     1      22.249  48.292  48.297  1.00  0.00    -0.225 N 
HETATM   23  C   UNL     1      23.484  48.056  48.908  1.00  0.00     0.168 A 
HETATM   24  C   UNL     1      21.849  49.588  47.989  1.00  0.00     0.122 A 
HETATM   25  N   UNL     1      24.350  49.079  49.214  1.00  0.00    -0.240 NA
HETATM   26  C   UNL     1      23.940  50.276  48.911  1.00  0.00     0.120 A 
HETATM   27  C   UNL     1      22.644  50.629  48.272  1.00  0.00     0.038 A 
ENDBRANCH   1  18
TORSDOF 6
ENDMDL
MODEL 7
REMARK VINA RESULT:      -7.7      2.334      3.110
REMARK  6 active torsions:
REMARK  status: ('A' for Active; 'I' for Inactive)
REMARK    1  A    between atoms: C_6  and  C_7 
REMARK       I    between atoms: C_7  and  N_8 
REMARK    2  A    between atoms: N_8  and  C_9 
REMARK    3  A    between atoms: C_9  and  C_10 
REMARK    4  A    between atoms: C_10  and  O_11 
REMARK    5  A    between atoms: C_10  and  C_12 
REMARK    6  A    between atoms: C_15  and  O_16 
ROOT
HETATM    1  C   UNL     1      26.747  44.364  50.385  1.00  0.00     0.258 C 
HETATM    2  N   UNL     1      26.548  43.246  51.155  1.00  0.00    -0.350 N 
HETATM    3  O   UNL     1      27.872  44.726  50.048  1.00  0.00    -0.267 OA
HETATM    4  H   UNL     1      25.588  43.042  51.429  1.00  0.00     0.163 HD
ENDROOT
BRANCH   2   5
HETATM    5  C   UNL     1      27.616  42.332  51.556  1.00  0.00     0.114 C 
HETATM    6  C   UNL     1      27.563  41.079  50.681  1.00  0.00     0.035 C 
BRANCH   5   7
HETATM    7  C   UNL     1      27.642  41.982  53.080  1.00  0.00     0.173 C 
BRANCH   7   8
HETATM    8  O   UNL     1      28.135  40.661  53.330  1.00  0.00    -0.389 OA
HETATM    9  H   UNL     1      28.849  40.726  53.998  1.00  0.00     0.210 HD
ENDBRANCH   7   8
BRANCH   7  10
HETATM   10  C   UNL     1      28.382  42.965  53.966  1.00  0.00    -0.028 A 
HETATM   11  C   UNL     1      29.682  42.680  54.406  1.00  0.00     0.012 A 
HETATM   12  C   UNL     1      30.381  43.591  55.203  1.00  0.00     0.037 A 
HETATM   13  C   UNL     1      29.806  44.810  55.561  1.00  0.00     0.068 A 
HETATM   14  C   UNL     1      28.507  45.097  55.146  1.00  0.00     0.037 A 
HETATM   15  C   UNL     1      27.801  44.181  54.356  1.00  0.00     0.012 A 
BRANCH  13  16
HETATM   16  O   UNL     1      30.602  45.623  56.320  1.00  0.00    -0.356 OA
HETATM   17  C   UNL     1      30.198  45.812  57.671  1.00  0.00     0.210 C 
ENDBRANCH  13  16
ENDBRANCH   7  10
ENDBRANCH   5   7
ENDBRANCH   2   5
BRANCH   1  18
HETATM   18  C   UNL     1      25.544  45.082  50.006  1.00  0.00     0.105 A 
HETATM   19  C   UNL     1      25.225  46.443  50.257  1.00  0.00     0.071 A 
HETATM   20  C   UNL     1      26.039  47.450  50.987  1.00  0.00     0.073 C 
HETATM   21  N   UNL     1      24.038  46.792  49.746  1.00  0.00    -0.170 NA
HETATM   22  N   UNL     1      23.576  45.671  49.150  1.00  0.00    -0.225 N 
HETATM   23  C   UNL     1      24.458  44.597  49.298  1.00  0.00     0.168 A 
HETATM   24  C   UNL     1      22.385  45.517  48.447  1.00  0.00     0.122 A 
HETATM   25  N   UNL     1      24.184  43.355  48.775  1.00  0.00    -0.240 NA
HETATM   26  C   UNL     1      23.062  43.250  48.125  1.00  0.00     0.120 A 
HETATM   27  C   UNL     1      22.067  44.334  47.905  1.00  0.00     0.038 A 
ENDBRANCH   1  18
TORSDOF 6
ENDMDL
MODEL 8
REMARK VINA RESULT:      -7.7      1.636      2.673
REMARK  6 active torsions:
REMARK  status: ('A' for Active; 'I' for Inactive)
REMARK    1  A    between atoms: C_6  and  C_7 
REMARK       I    between atoms: C_7  and  N_8 
REMARK    2  A    between atoms: N_8  and  C_9 
REMARK    3  A    between atoms: C_9  and  C_10 
REMARK    4  A    between atoms: C_10  and  O_11 
REMARK    5  A    between atoms: C_10  and  C_12 
REMARK    6  A    between atoms: C_15  and  O_16 
ROOT
HETATM    1  C   UNL     1      26.702  45.338  50.166  1.00  0.00     0.258 C 
HETATM    2  N   UNL     1      26.478  44.511  51.237  1.00  0.00    -0.350 N 
HETATM    3  O   UNL     1      27.776  45.346  49.568  1.00  0.00    -0.267 OA
HETATM    4  H   UNL     1      25.577  44.600  51.705  1.00  0.00     0.163 HD
ENDROOT
BRANCH   2   5
HETATM    5  C   UNL     1      27.429  43.504  51.704  1.00  0.00     0.114 C 
HETATM    6  C   UNL     1      27.390  42.299  50.764  1.00  0.00     0.035 C 
BRANCH   5   7
HETATM    7  C   UNL     1      27.260  43.087  53.201  1.00  0.00     0.173 C 
BRANCH   7   8
HETATM    8  O   UNL     1      27.409  41.675  53.395  1.00  0.00    -0.389 OA
HETATM    9  H   UNL     1      27.314  41.490  54.353  1.00  0.00     0.210 HD
ENDBRANCH   7   8
BRANCH   7  10
HETATM   10  C   UNL     1      28.143  43.821  54.191  1.00  0.00    -0.028 A 
HETATM   11  C   UNL     1      29.401  43.305  54.535  1.00  0.00     0.012 A 
HETATM   12  C   UNL     1      30.232  43.987  55.428  1.00  0.00     0.037 A 
HETATM   13  C   UNL     1      29.834  45.205  55.980  1.00  0.00     0.068 A 
HETATM   14  C   UNL     1      28.578  45.719  55.662  1.00  0.00     0.037 A 
HETATM   15  C   UNL     1      27.740  45.031  54.775  1.00  0.00     0.012 A 
BRANCH  13  16
HETATM   16  O   UNL     1      30.747  45.784  56.817  1.00  0.00    -0.356 OA
HETATM   17  C   UNL     1      30.368  45.885  58.186  1.00  0.00     0.210 C 
ENDBRANCH  13  16
ENDBRANCH   7  10
ENDBRANCH   5   7
ENDBRANCH   2   5
BRANCH   1  18
HETATM   18  C   UNL     1      25.591  46.195  49.796  1.00  0.00     0.105 A 
HETATM   19  C   UNL     1      24.203  45.895  49.839  1.00  0.00     0.071 A 
HETATM   20  C   UNL     1      23.560  44.620  50.255  1.00  0.00     0.073 C 
HETATM   21  N   UNL     1      23.444  46.925  49.448  1.00  0.00    -0.170 NA
HETATM   22  N   UNL     1      24.323  47.909  49.155  1.00  0.00    -0.225 N 
HETATM   23  C   UNL     1      25.647  47.501  49.338  1.00  0.00     0.168 A 
HETATM   24  C   UNL     1      24.034  49.201  48.727  1.00  0.00     0.122 A 
HETATM   25  N   UNL     1      26.707  48.342  49.093  1.00  0.00    -0.240 NA
HETATM   26  C   UNL     1      26.396  49.541  48.694  1.00  0.00     0.120 A 
HETATM   27  C   UNL     1      25.022  50.071  48.481  1.00  0.00     0.038 A 
ENDBRANCH   1  18
TORSDOF 6
ENDMDL
MODEL 9
REMARK VINA RESULT:      -7.7      3.614      8.114
REMARK  6 active torsions:
REMARK  status: ('A' for Active; 'I' for Inactive)
REMARK    1  A    between atoms: C_6  and  C_7 
REMARK       I    between atoms: C_7  and  N_8 
REMARK    2  A    between atoms: N_8  and  C_9 
REMARK    3  A    between atoms: C_9  and  C_10 
REMARK    4  A    between atoms: C_10  and  O_11 
REMARK    5  A    between atoms: C_10  and  C_12 
REMARK    6  A    between atoms: C_15  and  O_16 
ROOT
HETATM    1  C   UNL     1      26.692  44.337  53.261  1.00  0.00     0.258 C 
HETATM    2  N   UNL     1      27.275  43.767  52.158  1.00  0.00    -0.350 N 
HETATM    3  O   UNL     1      25.483  44.257  53.469  1.00  0.00    -0.267 OA
HETATM    4  H   UNL     1      28.275  43.920  52.036  1.00  0.00     0.163 HD
ENDROOT
BRANCH   2   5
HETATM    5  C   UNL     1      26.557  42.936  51.193  1.00  0.00     0.114 C 
HETATM    6  C   UNL     1      27.209  41.555  51.131  1.00  0.00     0.035 C 
BRANCH   5   7
HETATM    7  C   UNL     1      26.393  43.572  49.774  1.00  0.00     0.173 C 
BRANCH   7   8
HETATM    8  O   UNL     1      27.097  42.841  48.763  1.00  0.00    -0.389 OA
HETATM    9  H   UNL     1      27.019  43.337  47.921  1.00  0.00     0.210 HD
ENDBRANCH   7   8
BRANCH   7  10
HETATM   10  C   UNL     1      24.965  43.803  49.319  1.00  0.00    -0.028 A 
HETATM   11  C   UNL     1      24.165  42.721  48.926  1.00  0.00     0.012 A 
HETATM   12  C   UNL     1      22.840  42.921  48.529  1.00  0.00     0.037 A 
HETATM   13  C   UNL     1      22.282  44.199  48.531  1.00  0.00     0.068 A 
HETATM   14  C   UNL     1      23.073  45.286  48.900  1.00  0.00     0.037 A 
HETATM   15  C   UNL     1      24.404  45.088  49.289  1.00  0.00     0.012 A 
BRANCH  13  16
HETATM   16  O   UNL     1      20.971  44.258  48.146  1.00  0.00    -0.356 OA
HETATM   17  C   UNL     1      20.204  45.324  48.693  1.00  0.00     0.210 C 
ENDBRANCH  13  16
ENDBRANCH   7  10
ENDBRANCH   5   7
ENDBRANCH   2   5
BRANCH   1  18
HETATM   18  C   UNL     1      27.597  45.037  54.154  1.00  0.00     0.105 A 
HETATM   19  C   UNL     1      27.485  46.364  54.647  1.00  0.00     0.071 A 
HETATM   20  C   UNL     1      26.422  47.360  54.346  1.00  0.00     0.073 C 
HETATM   21  N   UNL     1      28.486  46.689  55.473  1.00  0.00    -0.170 NA
HETATM   22  N   UNL     1      29.254  45.580  55.537  1.00  0.00    -0.225 N 
HETATM   23  C   UNL     1      28.757  44.550  54.733  1.00  0.00     0.168 A 
HETATM   24  C   UNL     1      30.409  45.394  56.290  1.00  0.00     0.122 A 
HETATM   25  N   UNL     1      29.386  43.331  54.643  1.00  0.00    -0.240 NA
HETATM   26  C   UNL     1      30.462  43.196  55.361  1.00  0.00     0.120 A 
HETATM   27  C   UNL     1      31.062  44.225  56.252  1.00  0.00     0.038 A 
ENDBRANCH   1  18
TORSDOF 6
ENDMDL
MODEL 10
REMARK VINA RESULT:      -7.6      2.854      8.358
REMARK  6 active torsions:
REMARK  status: ('A' for Active; 'I' for Inactive)
REMARK    1  A    between atoms: C_6  and  C_7 
REMARK       I    between atoms: C_7  and  N_8 
REMARK    2  A    between atoms: N_8  and  C_9 
REMARK    3  A    between atoms: C_9  and  C_10 
REMARK    4  A    between atoms: C_10  and  O_11 
REMARK    5  A    between atoms: C_10  and  C_12 
REMARK    6  A    between atoms: C_15  and  O_16 
ROOT
HETATM    1  C   UNL     1      26.462  45.143  53.765  1.00  0.00     0.258 C 
HETATM    2  N   UNL     1      26.777  44.884  52.455  1.00  0.00    -0.350 N 
HETATM    3  O   UNL     1      25.299  45.135  54.165  1.00  0.00    -0.267 OA
HETATM    4  H   UNL     1      27.760  44.957  52.196  1.00  0.00     0.163 HD
ENDROOT
BRANCH   2   5
HETATM    5  C   UNL     1      25.800  44.477  51.447  1.00  0.00     0.114 C 
HETATM    6  C   UNL     1      25.843  42.958  51.286  1.00  0.00     0.035 C 
BRANCH   5   7
HETATM    7  C   UNL     1      25.929  45.216  50.074  1.00  0.00     0.173 C 
BRANCH   7   8
HETATM    8  O   UNL     1      26.445  44.366  49.043  1.00  0.00    -0.389 OA
HETATM    9  H   UNL     1      26.087  43.466  49.185  1.00  0.00     0.210 HD
ENDBRANCH   7   8
BRANCH   7  10
HETATM   10  C   UNL     1      24.669  45.896  49.575  1.00  0.00    -0.028 A 
HETATM   11  C   UNL     1      24.467  47.265  49.802  1.00  0.00     0.012 A 
HETATM   12  C   UNL     1      23.321  47.906  49.324  1.00  0.00     0.037 A 
HETATM   13  C   UNL     1      22.364  47.200  48.596  1.00  0.00     0.068 A 
HETATM   14  C   UNL     1      22.543  45.835  48.380  1.00  0.00     0.037 A 
HETATM   15  C   UNL     1      23.686  45.189  48.867  1.00  0.00     0.012 A 
BRANCH  13  16
HETATM   16  O   UNL     1      21.303  47.947  48.163  1.00  0.00    -0.356 OA
HETATM   17  C   UNL     1      20.614  48.696  49.158  1.00  0.00     0.210 C 
ENDBRANCH  13  16
ENDBRANCH   7  10
ENDBRANCH   5   7
ENDBRANCH   2   5
BRANCH   1  18
HETATM   18  C   UNL     1      27.589  45.429  54.634  1.00  0.00     0.105 A 
HETATM   19  C   UNL     1      27.816  46.592  55.415  1.00  0.00     0.071 A 
HETATM   20  C   UNL     1      26.962  47.806  55.512  1.00  0.00     0.073 C 
HETATM   21  N   UNL     1      28.950  46.520  56.123  1.00  0.00    -0.170 NA
HETATM   22  N   UNL     1      29.468  45.309  55.821  1.00  0.00    -0.225 N 
HETATM   23  C   UNL     1      28.676  44.615  54.902  1.00  0.00     0.168 A 
HETATM   24  C   UNL     1      30.634  44.740  56.322  1.00  0.00     0.122 A 
HETATM   25  N   UNL     1      29.019  43.363  54.448  1.00  0.00    -0.240 NA
HETATM   26  C   UNL     1      30.116  42.864  54.939  1.00  0.00     0.120 A 
HETATM   27  C   UNL     1      31.016  43.518  55.927  1.00  0.00     0.038 A 
ENDBRANCH   1  18
TORSDOF 6
ENDMDL
