MODEL 1
REMARK VINA RESULT:      -7.7      0.000      0.000
REMARK  6 active torsions:
REMARK  status: ('A' for Active; 'I' for Inactive)
REMARK    1  A    between atoms: C_2  and  C_3 
REMARK    2  A    between atoms: C_7  and  C_8 
REMARK       I    between atoms: C_8  and  N_9 
REMARK    3  A    between atoms: N_9  and  C_10 
REMARK    4  A    between atoms: C_11  and  O_12 
REMARK    5  A    between atoms: O_12  and  C_13 
REMARK    6  A    between atoms: C_13  and  C_14 
ROOT
HETATM    1  C   UNL     1      29.431  43.579  54.208  1.00  0.00     0.068 A 
HETATM    2  C   UNL     1      28.755  44.760  54.557  1.00  0.00     0.096 A 
HETATM    3  C   UNL     1      29.148  45.517  55.663  1.00  0.00     0.046 A 
HETATM    4  C   UNL     1      30.198  45.072  56.474  1.00  0.00    -0.059 A 
HETATM    5  C   UNL     1      30.658  45.889  57.645  1.00  0.00     0.048 C 
HETATM    6  C   UNL     1      30.862  43.885  56.137  1.00  0.00     0.009 A 
HETATM    7  C   UNL     1      30.481  43.143  55.012  1.00  0.00     0.033 A 
ENDROOT
BRANCH   1   8
HETATM    8  N   UNL     1      29.006  42.919  53.035  1.00  0.00    -0.319 N 
HETATM    9  C   UNL     1      28.341  41.715  52.929  1.00  0.00     0.274 C 
HETATM   10  O   UNL     1      27.880  41.079  53.869  1.00  0.00    -0.266 OA
HETATM   11  H   UNL     1      29.117  43.472  52.193  1.00  0.00     0.169 HD
BRANCH   9  12
HETATM   12  C   UNL     1      28.185  41.277  51.563  1.00  0.00     0.120 A 
HETATM   13  N   UNL     1      28.650  40.096  51.051  1.00  0.00    -0.273 N 
HETATM   14  N   UNL     1      28.399  39.930  49.744  1.00  0.00    -0.179 NA
HETATM   15  H   UNL     1      29.137  39.354  51.541  1.00  0.00     0.189 HD
HETATM   16  C   UNL     1      27.695  41.018  49.409  1.00  0.00     0.056 A 
HETATM   17  C   UNL     1      27.509  41.874  50.518  1.00  0.00     0.065 A 
BRANCH  16  18
HETATM   18  C   UNL     1      27.220  41.209  48.010  1.00  0.00     0.056 C 
HETATM   19  C   UNL     1      28.282  40.836  46.986  1.00  0.00     0.011 C 
ENDBRANCH  16  18
ENDBRANCH   9  12
ENDBRANCH   1   8
BRANCH   2  20
HETATM   20  O   UNL     1      27.725  45.168  53.741  1.00  0.00    -0.340 OA
BRANCH  20  21
HETATM   21  C   UNL     1      26.510  45.391  54.484  1.00  0.00     0.293 C 
BRANCH  21  22
HETATM   22  C   UNL     1      25.638  44.147  54.439  1.00  0.00     0.408 C 
HETATM   23  F   UNL     1      26.120  43.182  55.256  1.00  0.00    -0.169 F 
HETATM   24  F   UNL     1      24.378  44.430  54.840  1.00  0.00    -0.169 F 
HETATM   25  F   UNL     1      25.564  43.635  53.192  1.00  0.00    -0.169 F 
ENDBRANCH  21  22
ENDBRANCH  20  21
ENDBRANCH   2  20
TORSDOF 6
ENDMDL
MODEL 2
REMARK VINA RESULT:      -7.7      3.675      4.453
REMARK  6 active torsions:
REMARK  status: ('A' for Active; 'I' for Inactive)
REMARK    1  A    between atoms: C_2  and  C_3 
REMARK    2  A    between atoms: C_7  and  C_8 
REMARK       I    between atoms: C_8  and  N_9 
REMARK    3  A    between atoms: N_9  and  C_10 
REMARK    4  A    between atoms: C_11  and  O_12 
REMARK    5  A    between atoms: O_12  and  C_13 
REMARK    6  A    between atoms: C_13  and  C_14 
ROOT
HETATM    1  C   UNL     1      28.731  44.526  54.373  1.00  0.00     0.068 A 
HETATM    2  C   UNL     1      29.252  45.478  55.265  1.00  0.00     0.096 A 
HETATM    3  C   UNL     1      30.294  45.155  56.138  1.00  0.00     0.046 A 
HETATM    4  C   UNL     1      30.797  43.850  56.168  1.00  0.00    -0.059 A 
HETATM    5  C   UNL     1      31.940  43.494  57.072  1.00  0.00     0.048 C 
HETATM    6  C   UNL     1      30.268  42.895  55.291  1.00  0.00     0.009 A 
HETATM    7  C   UNL     1      29.241  43.229  54.400  1.00  0.00     0.033 A 
ENDROOT
BRANCH   1   8
HETATM    8  N   UNL     1      27.727  44.962  53.482  1.00  0.00    -0.319 N 
HETATM    9  C   UNL     1      26.373  44.702  53.531  1.00  0.00     0.274 C 
HETATM   10  O   UNL     1      25.795  44.150  54.459  1.00  0.00    -0.266 OA
HETATM   11  H   UNL     1      28.053  45.638  52.800  1.00  0.00     0.169 HD
BRANCH   9  12
HETATM   12  C   UNL     1      25.663  45.199  52.377  1.00  0.00     0.120 A 
HETATM   13  N   UNL     1      24.780  44.478  51.619  1.00  0.00    -0.273 N 
HETATM   14  N   UNL     1      24.268  45.157  50.583  1.00  0.00    -0.179 NA
HETATM   15  H   UNL     1      24.474  43.522  51.761  1.00  0.00     0.189 HD
HETATM   16  C   UNL     1      24.794  46.382  50.706  1.00  0.00     0.056 A 
HETATM   17  C   UNL     1      25.648  46.465  51.830  1.00  0.00     0.065 A 
BRANCH  16  18
HETATM   18  C   UNL     1      24.461  47.450  49.723  1.00  0.00     0.056 C 
HETATM   19  C   UNL     1      25.647  48.360  49.439  1.00  0.00     0.011 C 
ENDBRANCH  16  18
ENDBRANCH   9  12
ENDBRANCH   1   8
BRANCH   2  20
HETATM   20  O   UNL     1      28.732  46.751  55.212  1.00  0.00    -0.340 OA
BRANCH  20  21
HETATM   21  C   UNL     1      27.699  46.948  56.197  1.00  0.00     0.293 C 
BRANCH  21  22
HETATM   22  C   UNL     1      26.786  48.086  55.772  1.00  0.00     0.408 C 
HETATM   23  F   UNL     1      27.484  49.070  55.160  1.00  0.00    -0.169 F 
HETATM   24  F   UNL     1      25.849  47.648  54.901  1.00  0.00    -0.169 F 
HETATM   25  F   UNL     1      26.141  48.630  56.827  1.00  0.00    -0.169 F 
ENDBRANCH  21  22
ENDBRANCH  20  21
ENDBRANCH   2  20
TORSDOF 6
ENDMDL
MODEL 3
REMARK VINA RESULT:      -7.7      3.185      4.695
REMARK  6 active torsions:
REMARK  status: ('A' for Active; 'I' for Inactive)
REMARK    1  A    between atoms: C_2  and  C_3 
REMARK    2  A    between atoms: C_7  and  C_8 
REMARK       I    between atoms: C_8  and  N_9 
REMARK    3  A    between atoms: N_9  and  C_10 
REMARK    4  A    between atoms: C_11  and  O_12 
REMARK    5  A    between atoms: O_12  and  C_13 
REMARK    6  A    between atoms: C_13  and  C_14 
ROOT
HETATM    1  C   UNL     1      28.923  45.083  54.763  1.00  0.00     0.068 A 
HETATM    2  C   UNL     1      29.655  43.974  54.307  1.00  0.00     0.096 A 
HETATM    3  C   UNL     1      30.628  43.372  55.108  1.00  0.00     0.046 A 
HETATM    4  C   UNL     1      30.922  43.907  56.367  1.00  0.00    -0.059 A 
HETATM    5  C   UNL     1      31.938  43.253  57.257  1.00  0.00     0.048 C 
HETATM    6  C   UNL     1      30.205  45.023  56.817  1.00  0.00     0.009 A 
HETATM    7  C   UNL     1      29.212  45.608  56.021  1.00  0.00     0.033 A 
ENDROOT
BRANCH   1   8
HETATM    8  N   UNL     1      27.914  45.580  53.912  1.00  0.00    -0.319 N 
HETATM    9  C   UNL     1      26.626  45.111  53.753  1.00  0.00     0.274 C 
HETATM   10  O   UNL     1      26.099  44.249  54.447  1.00  0.00    -0.266 OA
HETATM   11  H   UNL     1      28.155  46.455  53.459  1.00  0.00     0.169 HD
BRANCH   9  12
HETATM   12  C   UNL     1      25.910  45.780  52.694  1.00  0.00     0.120 A 
HETATM   13  N   UNL     1      25.750  47.135  52.578  1.00  0.00    -0.273 N 
HETATM   14  N   UNL     1      25.022  47.510  51.517  1.00  0.00    -0.179 NA
HETATM   15  H   UNL     1      26.122  47.859  53.182  1.00  0.00     0.189 HD
HETATM   16  C   UNL     1      24.746  46.361  50.890  1.00  0.00     0.056 A 
HETATM   17  C   UNL     1      25.305  45.255  51.570  1.00  0.00     0.065 A 
BRANCH  16  18
HETATM   18  C   UNL     1      23.936  46.357  49.639  1.00  0.00     0.056 C 
HETATM   19  C   UNL     1      23.404  47.741  49.295  1.00  0.00     0.011 C 
ENDBRANCH  16  18
ENDBRANCH   9  12
ENDBRANCH   1   8
BRANCH   2  20
HETATM   20  O   UNL     1      29.344  43.474  53.063  1.00  0.00    -0.340 OA
BRANCH  20  21
HETATM   21  C   UNL     1      29.550  42.049  52.992  1.00  0.00     0.293 C 
BRANCH  21  22
HETATM   22  C   UNL     1      28.237  41.350  52.680  1.00  0.00     0.408 C 
HETATM   23  F   UNL     1      28.402  40.404  51.726  1.00  0.00    -0.169 F 
HETATM   24  F   UNL     1      27.748  40.738  53.782  1.00  0.00    -0.169 F 
HETATM   25  F   UNL     1      27.300  42.219  52.245  1.00  0.00    -0.169 F 
ENDBRANCH  21  22
ENDBRANCH  20  21
ENDBRANCH   2  20
TORSDOF 6
ENDMDL
MODEL 4
REMARK VINA RESULT:      -7.3      5.531      6.891
REMARK  6 active torsions:
REMARK  status: ('A' for Active; 'I' for Inactive)
REMARK    1  A    between atoms: C_2  and  C_3 
REMARK    2  A    between atoms: C_7  and  C_8 
REMARK       I    between atoms: C_8  and  N_9 
REMARK    3  A    between atoms: N_9  and  C_10 
REMARK    4  A    between atoms: C_11  and  O_12 
REMARK    5  A    between atoms: O_12  and  C_13 
REMARK    6  A    between atoms: C_13  and  C_14 
ROOT
HETATM    1  C   UNL     1      26.297  45.664  51.303  1.00  0.00     0.068 A 
HETATM    2  C   UNL     1      26.587  45.980  52.641  1.00  0.00     0.096 A 
HETATM    3  C   UNL     1      27.044  45.004  53.531  1.00  0.00     0.046 A 
HETATM    4  C   UNL     1      27.169  43.678  53.104  1.00  0.00    -0.059 A 
HETATM    5  C   UNL     1      27.693  42.623  54.034  1.00  0.00     0.048 C 
HETATM    6  C   UNL     1      26.864  43.358  51.775  1.00  0.00     0.009 A 
HETATM    7  C   UNL     1      26.430  44.344  50.880  1.00  0.00     0.033 A 
ENDROOT
BRANCH   1   8
HETATM    8  N   UNL     1      25.907  46.728  50.463  1.00  0.00    -0.319 N 
HETATM    9  C   UNL     1      26.659  47.375  49.503  1.00  0.00     0.274 C 
HETATM   10  O   UNL     1      27.770  47.025  49.125  1.00  0.00    -0.266 OA
HETATM   11  H   UNL     1      24.918  46.948  50.513  1.00  0.00     0.169 HD
BRANCH   9  12
HETATM   12  C   UNL     1      25.979  48.510  48.927  1.00  0.00     0.120 A 
HETATM   13  N   UNL     1      26.530  49.397  48.041  1.00  0.00    -0.273 N 
HETATM   14  N   UNL     1      25.701  50.383  47.669  1.00  0.00    -0.179 NA
HETATM   15  H   UNL     1      27.462  49.381  47.642  1.00  0.00     0.189 HD
HETATM   16  C   UNL     1      24.552  50.092  48.291  1.00  0.00     0.056 A 
HETATM   17  C   UNL     1      24.668  48.914  49.064  1.00  0.00     0.065 A 
BRANCH  16  18
HETATM   18  C   UNL     1      23.360  50.972  48.127  1.00  0.00     0.056 C 
HETATM   19  C   UNL     1      22.116  50.187  47.736  1.00  0.00     0.011 C 
ENDBRANCH  16  18
ENDBRANCH   9  12
ENDBRANCH   1   8
BRANCH   2  20
HETATM   20  O   UNL     1      26.451  47.293  53.029  1.00  0.00    -0.340 OA
BRANCH  20  21
HETATM   21  C   UNL     1      26.024  47.404  54.402  1.00  0.00     0.293 C 
BRANCH  21  22
HETATM   22  C   UNL     1      27.122  48.043  55.236  1.00  0.00     0.408 C 
HETATM   23  F   UNL     1      28.250  48.219  54.510  1.00  0.00    -0.169 F 
HETATM   24  F   UNL     1      26.734  49.258  55.688  1.00  0.00    -0.169 F 
HETATM   25  F   UNL     1      27.435  47.289  56.311  1.00  0.00    -0.169 F 
ENDBRANCH  21  22
ENDBRANCH  20  21
ENDBRANCH   2  20
TORSDOF 6
ENDMDL
MODEL 5
REMARK VINA RESULT:      -7.2      3.928      4.607
REMARK  6 active torsions:
REMARK  status: ('A' for Active; 'I' for Inactive)
REMARK    1  A    between atoms: C_2  and  C_3 
REMARK    2  A    between atoms: C_7  and  C_8 
REMARK       I    between atoms: C_8  and  N_9 
REMARK    3  A    between atoms: N_9  and  C_10 
REMARK    4  A    between atoms: C_11  and  O_12 
REMARK    5  A    between atoms: O_12  and  C_13 
REMARK    6  A    between atoms: C_13  and  C_14 
ROOT
HETATM    1  C   UNL     1      27.684  43.666  52.238  1.00  0.00     0.068 A 
HETATM    2  C   UNL     1      27.514  44.320  53.471  1.00  0.00     0.096 A 
HETATM    3  C   UNL     1      28.488  44.245  54.469  1.00  0.00     0.046 A 
HETATM    4  C   UNL     1      29.633  43.467  54.266  1.00  0.00    -0.059 A 
HETATM    5  C   UNL     1      30.708  43.403  55.311  1.00  0.00     0.048 C 
HETATM    6  C   UNL     1      29.797  42.801  53.044  1.00  0.00     0.009 A 
HETATM    7  C   UNL     1      28.829  42.900  52.037  1.00  0.00     0.033 A 
ENDROOT
BRANCH   1   8
HETATM    8  N   UNL     1      26.678  43.856  51.267  1.00  0.00    -0.319 N 
HETATM    9  C   UNL     1      26.712  44.671  50.154  1.00  0.00     0.274 C 
HETATM   10  O   UNL     1      27.701  45.269  49.749  1.00  0.00    -0.266 OA
HETATM   11  H   UNL     1      25.894  43.221  51.362  1.00  0.00     0.169 HD
BRANCH   9  12
HETATM   12  C   UNL     1      25.452  44.720  49.454  1.00  0.00     0.120 A 
HETATM   13  N   UNL     1      25.011  43.793  48.548  1.00  0.00    -0.273 N 
HETATM   14  N   UNL     1      23.814  44.075  48.015  1.00  0.00    -0.179 NA
HETATM   15  H   UNL     1      25.474  42.938  48.257  1.00  0.00     0.189 HD
HETATM   16  C   UNL     1      23.437  45.197  48.640  1.00  0.00     0.056 A 
HETATM   17  C   UNL     1      24.414  45.622  49.570  1.00  0.00     0.065 A 
BRANCH  16  18
HETATM   18  C   UNL     1      22.134  45.842  48.316  1.00  0.00     0.056 C 
HETATM   19  C   UNL     1      22.218  47.361  48.360  1.00  0.00     0.011 C 
ENDBRANCH  16  18
ENDBRANCH   9  12
ENDBRANCH   1   8
BRANCH   2  20
HETATM   20  O   UNL     1      26.375  45.074  53.639  1.00  0.00    -0.340 OA
BRANCH  20  21
HETATM   21  C   UNL     1      26.535  46.060  54.678  1.00  0.00     0.293 C 
BRANCH  21  22
HETATM   22  C   UNL     1      26.688  47.442  54.064  1.00  0.00     0.408 C 
HETATM   23  F   UNL     1      26.550  47.397  52.719  1.00  0.00    -0.169 F 
HETATM   24  F   UNL     1      25.746  48.286  54.544  1.00  0.00    -0.169 F 
HETATM   25  F   UNL     1      27.896  47.978  54.339  1.00  0.00    -0.169 F 
ENDBRANCH  21  22
ENDBRANCH  20  21
ENDBRANCH   2  20
TORSDOF 6
ENDMDL
MODEL 6
REMARK VINA RESULT:      -7.2      2.711      4.042
REMARK  6 active torsions:
REMARK  status: ('A' for Active; 'I' for Inactive)
REMARK    1  A    between atoms: C_2  and  C_3 
REMARK    2  A    between atoms: C_7  and  C_8 
REMARK       I    between atoms: C_8  and  N_9 
REMARK    3  A    between atoms: N_9  and  C_10 
REMARK    4  A    between atoms: C_11  and  O_12 
REMARK    5  A    between atoms: O_12  and  C_13 
REMARK    6  A    between atoms: C_13  and  C_14 
ROOT
HETATM    1  C   UNL     1      26.721  44.986  53.261  1.00  0.00     0.068 A 
HETATM    2  C   UNL     1      27.579  45.196  54.353  1.00  0.00     0.096 A 
HETATM    3  C   UNL     1      27.507  46.365  55.114  1.00  0.00     0.046 A 
HETATM    4  C   UNL     1      26.602  47.372  54.759  1.00  0.00    -0.059 A 
HETATM    5  C   UNL     1      26.483  48.618  55.586  1.00  0.00     0.048 C 
HETATM    6  C   UNL     1      25.757  47.171  53.661  1.00  0.00     0.009 A 
HETATM    7  C   UNL     1      25.815  45.987  52.915  1.00  0.00     0.033 A 
ENDROOT
BRANCH   1   8
HETATM    8  N   UNL     1      26.822  43.746  52.594  1.00  0.00    -0.319 N 
HETATM    9  C   UNL     1      27.187  43.511  51.285  1.00  0.00     0.274 C 
HETATM   10  O   UNL     1      27.625  44.355  50.512  1.00  0.00    -0.266 OA
HETATM   11  H   UNL     1      26.718  42.945  53.206  1.00  0.00     0.169 HD
BRANCH   9  12
HETATM   12  C   UNL     1      27.050  42.126  50.903  1.00  0.00     0.120 A 
HETATM   13  N   UNL     1      25.910  41.379  51.026  1.00  0.00    -0.273 N 
HETATM   14  N   UNL     1      26.043  40.107  50.623  1.00  0.00    -0.179 NA
HETATM   15  H   UNL     1      25.003  41.679  51.368  1.00  0.00     0.189 HD
HETATM   16  C   UNL     1      27.300  40.042  50.167  1.00  0.00     0.056 A 
HETATM   17  C   UNL     1      27.959  41.287  50.293  1.00  0.00     0.065 A 
BRANCH  16  18
HETATM   18  C   UNL     1      27.841  38.766  49.622  1.00  0.00     0.056 C 
HETATM   19  C   UNL     1      29.220  38.442  50.179  1.00  0.00     0.011 C 
ENDBRANCH  16  18
ENDBRANCH   9  12
ENDBRANCH   1   8
BRANCH   2  20
HETATM   20  O   UNL     1      28.460  44.188  54.673  1.00  0.00    -0.340 OA
BRANCH  20  21
HETATM   21  C   UNL     1      29.548  44.667  55.490  1.00  0.00     0.293 C 
BRANCH  21  22
HETATM   22  C   UNL     1      30.694  43.669  55.465  1.00  0.00     0.408 C 
HETATM   23  F   UNL     1      30.407  42.577  56.211  1.00  0.00    -0.169 F 
HETATM   24  F   UNL     1      30.935  43.249  54.202  1.00  0.00    -0.169 F 
HETATM   25  F   UNL     1      31.836  44.209  55.942  1.00  0.00    -0.169 F 
ENDBRANCH  21  22
ENDBRANCH  20  21
ENDBRANCH   2  20
TORSDOF 6
ENDMDL
MODEL 7
REMARK VINA RESULT:      -6.9      3.020      4.060
REMARK  6 active torsions:
REMARK  status: ('A' for Active; 'I' for Inactive)
REMARK    1  A    between atoms: C_2  and  C_3 
REMARK    2  A    between atoms: C_7  and  C_8 
REMARK       I    between atoms: C_8  and  N_9 
REMARK    3  A    between atoms: N_9  and  C_10 
REMARK    4  A    between atoms: C_11  and  O_12 
REMARK    5  A    between atoms: O_12  and  C_13 
REMARK    6  A    between atoms: C_13  and  C_14 
ROOT
HETATM    1  C   UNL     1      27.640  45.261  54.139  1.00  0.00     0.068 A 
HETATM    2  C   UNL     1      28.808  44.481  54.127  1.00  0.00     0.096 A 
HETATM    3  C   UNL     1      29.737  44.554  55.168  1.00  0.00     0.046 A 
HETATM    4  C   UNL     1      29.533  45.454  56.220  1.00  0.00    -0.059 A 
HETATM    5  C   UNL     1      30.500  45.520  57.365  1.00  0.00     0.048 C 
HETATM    6  C   UNL     1      28.377  46.244  56.226  1.00  0.00     0.009 A 
HETATM    7  C   UNL     1      27.436  46.149  55.193  1.00  0.00     0.033 A 
ENDROOT
BRANCH   1   8
HETATM    8  N   UNL     1      26.728  45.069  53.079  1.00  0.00    -0.319 N 
HETATM    9  C   UNL     1      25.475  44.493  53.128  1.00  0.00     0.274 C 
HETATM   10  O   UNL     1      24.885  44.175  54.153  1.00  0.00    -0.266 OA
HETATM   11  H   UNL     1      27.007  45.518  52.214  1.00  0.00     0.169 HD
BRANCH   9  12
HETATM   12  C   UNL     1      24.876  44.339  51.824  1.00  0.00     0.120 A 
HETATM   13  N   UNL     1      24.233  45.325  51.126  1.00  0.00    -0.273 N 
HETATM   14  N   UNL     1      23.740  44.926  49.945  1.00  0.00    -0.179 NA
HETATM   15  H   UNL     1      24.105  46.296  51.393  1.00  0.00     0.189 HD
HETATM   16  C   UNL     1      24.127  43.649  49.848  1.00  0.00     0.056 A 
HETATM   17  C   UNL     1      24.865  43.245  50.984  1.00  0.00     0.065 A 
BRANCH  16  18
HETATM   18  C   UNL     1      23.764  42.838  48.651  1.00  0.00     0.056 C 
HETATM   19  C   UNL     1      24.211  41.389  48.781  1.00  0.00     0.011 C 
ENDBRANCH  16  18
ENDBRANCH   9  12
ENDBRANCH   1   8
BRANCH   2  20
HETATM   20  O   UNL     1      28.980  43.608  53.076  1.00  0.00    -0.340 OA
BRANCH  20  21
HETATM   21  C   UNL     1      29.507  42.340  53.515  1.00  0.00     0.293 C 
BRANCH  21  22
HETATM   22  C   UNL     1      28.575  41.216  53.091  1.00  0.00     0.408 C 
HETATM   23  F   UNL     1      27.373  41.698  52.702  1.00  0.00    -0.169 F 
HETATM   24  F   UNL     1      29.096  40.530  52.048  1.00  0.00    -0.169 F 
HETATM   25  F   UNL     1      28.365  40.337  54.094  1.00  0.00    -0.169 F 
ENDBRANCH  21  22
ENDBRANCH  20  21
ENDBRANCH   2  20
TORSDOF 6
ENDMDL
MODEL 8
REMARK VINA RESULT:      -6.9      7.853      9.367
REMARK  6 active torsions:
REMARK  status: ('A' for Active; 'I' for Inactive)
REMARK    1  A    between atoms: C_2  and  C_3 
REMARK    2  A    between atoms: C_7  and  C_8 
REMARK       I    between atoms: C_8  and  N_9 
REMARK    3  A    between atoms: N_9  and  C_10 
REMARK    4  A    between atoms: C_11  and  O_12 
REMARK    5  A    between atoms: O_12  and  C_13 
REMARK    6  A    between atoms: C_13  and  C_14 
ROOT
HETATM    1  C   UNL     1      23.853  48.545  49.206  1.00  0.00     0.068 A 
HETATM    2  C   UNL     1      24.713  47.655  49.872  1.00  0.00     0.096 A 
HETATM    3  C   UNL     1      26.096  47.849  49.869  1.00  0.00     0.046 A 
HETATM    4  C   UNL     1      26.648  48.915  49.151  1.00  0.00    -0.059 A 
HETATM    5  C   UNL     1      28.128  49.161  49.166  1.00  0.00     0.048 C 
HETATM    6  C   UNL     1      25.794  49.794  48.473  1.00  0.00     0.009 A 
HETATM    7  C   UNL     1      24.406  49.611  48.499  1.00  0.00     0.033 A 
ENDROOT
BRANCH   1   8
HETATM    8  N   UNL     1      22.467  48.307  49.322  1.00  0.00    -0.319 N 
HETATM    9  C   UNL     1      21.592  47.881  48.344  1.00  0.00     0.274 C 
HETATM   10  O   UNL     1      21.915  47.500  47.226  1.00  0.00    -0.266 OA
HETATM   11  H   UNL     1      22.123  48.354  50.275  1.00  0.00     0.169 HD
BRANCH   9  12
HETATM   12  C   UNL     1      20.218  47.874  48.784  1.00  0.00     0.120 A 
HETATM   13  N   UNL     1      19.766  48.362  49.981  1.00  0.00    -0.273 N 
HETATM   14  N   UNL     1      18.446  48.218  50.167  1.00  0.00    -0.179 NA
HETATM   15  H   UNL     1      20.304  48.816  50.711  1.00  0.00     0.189 HD
HETATM   16  C   UNL     1      18.016  47.668  49.024  1.00  0.00     0.056 A 
HETATM   17  C   UNL     1      19.081  47.463  48.118  1.00  0.00     0.065 A 
BRANCH  16  18
HETATM   18  C   UNL     1      16.574  47.345  48.837  1.00  0.00     0.056 C 
HETATM   19  C   UNL     1      15.816  48.473  48.151  1.00  0.00     0.011 C 
ENDBRANCH  16  18
ENDBRANCH   9  12
ENDBRANCH   1   8
BRANCH   2  20
HETATM   20  O   UNL     1      24.138  46.615  50.566  1.00  0.00    -0.340 OA
BRANCH  20  21
HETATM   21  C   UNL     1      25.031  46.079  51.563  1.00  0.00     0.293 C 
BRANCH  21  22
HETATM   22  C   UNL     1      25.141  44.572  51.405  1.00  0.00     0.408 C 
HETATM   23  F   UNL     1      25.518  43.985  52.564  1.00  0.00    -0.169 F 
HETATM   24  F   UNL     1      23.950  44.040  51.046  1.00  0.00    -0.169 F 
HETATM   25  F   UNL     1      26.042  44.234  50.458  1.00  0.00    -0.169 F 
ENDBRANCH  21  22
ENDBRANCH  20  21
ENDBRANCH   2  20
TORSDOF 6
ENDMDL
MODEL 9
REMARK VINA RESULT:      -6.9      9.383     11.484
REMARK  6 active torsions:
REMARK  status: ('A' for Active; 'I' for Inactive)
REMARK    1  A    between atoms: C_2  and  C_3 
REMARK    2  A    between atoms: C_7  and  C_8 
REMARK       I    between atoms: C_8  and  N_9 
REMARK    3  A    between atoms: N_9  and  C_10 
REMARK    4  A    between atoms: C_11  and  O_12 
REMARK    5  A    between atoms: O_12  and  C_13 
REMARK    6  A    between atoms: C_13  and  C_14 
ROOT
HETATM    1  C   UNL     1      20.006  50.347  49.726  1.00  0.00     0.068 A 
HETATM    2  C   UNL     1      18.948  49.437  49.563  1.00  0.00     0.096 A 
HETATM    3  C   UNL     1      17.631  49.879  49.418  1.00  0.00     0.046 A 
HETATM    4  C   UNL     1      17.344  51.246  49.487  1.00  0.00    -0.059 A 
HETATM    5  C   UNL     1      15.941  51.742  49.298  1.00  0.00     0.048 C 
HETATM    6  C   UNL     1      18.395  52.154  49.666  1.00  0.00     0.009 A 
HETATM    7  C   UNL     1      19.718  51.709  49.785  1.00  0.00     0.033 A 
ENDROOT
BRANCH   1   8
HETATM    8  N   UNL     1      21.310  49.811  49.795  1.00  0.00    -0.319 N 
HETATM    9  C   UNL     1      22.262  49.758  48.798  1.00  0.00     0.274 C 
HETATM   10  O   UNL     1      22.171  50.306  47.706  1.00  0.00    -0.266 OA
HETATM   11  H   UNL     1      21.592  49.544  50.731  1.00  0.00     0.169 HD
BRANCH   9  12
HETATM   12  C   UNL     1      23.438  49.016  49.182  1.00  0.00     0.120 A 
HETATM   13  N   UNL     1      23.446  47.887  49.957  1.00  0.00    -0.273 N 
HETATM   14  N   UNL     1      24.670  47.396  50.195  1.00  0.00    -0.179 NA
HETATM   15  H   UNL     1      22.649  47.394  50.345  1.00  0.00     0.189 HD
HETATM   16  C   UNL     1      25.483  48.202  49.503  1.00  0.00     0.056 A 
HETATM   17  C   UNL     1      24.758  49.212  48.829  1.00  0.00     0.065 A 
BRANCH  16  18
HETATM   18  C   UNL     1      26.957  47.981  49.514  1.00  0.00     0.056 C 
HETATM   19  C   UNL     1      27.727  49.218  49.077  1.00  0.00     0.011 C 
ENDBRANCH  16  18
ENDBRANCH   9  12
ENDBRANCH   1   8
BRANCH   2  20
HETATM   20  O   UNL     1      19.265  48.099  49.503  1.00  0.00    -0.340 OA
BRANCH  20  21
HETATM   21  C   UNL     1      18.669  47.459  48.356  1.00  0.00     0.293 C 
BRANCH  21  22
HETATM   22  C   UNL     1      19.680  47.377  47.224  1.00  0.00     0.408 C 
HETATM   23  F   UNL     1      19.783  48.559  46.574  1.00  0.00    -0.169 F 
HETATM   24  F   UNL     1      20.907  47.064  47.700  1.00  0.00    -0.169 F 
HETATM   25  F   UNL     1      19.340  46.434  46.319  1.00  0.00    -0.169 F 
ENDBRANCH  21  22
ENDBRANCH  20  21
ENDBRANCH   2  20
TORSDOF 6
ENDMDL
MODEL 10
REMARK VINA RESULT:      -6.9      3.668      4.802
REMARK  6 active torsions:
REMARK  status: ('A' for Active; 'I' for Inactive)
REMARK    1  A    between atoms: C_2  and  C_3 
REMARK    2  A    between atoms: C_7  and  C_8 
REMARK       I    between atoms: C_8  and  N_9 
REMARK    3  A    between atoms: N_9  and  C_10 
REMARK    4  A    between atoms: C_11  and  O_12 
REMARK    5  A    between atoms: O_12  and  C_13 
REMARK    6  A    between atoms: C_13  and  C_14 
ROOT
HETATM    1  C   UNL     1      27.780  44.442  53.247  1.00  0.00     0.068 A 
HETATM    2  C   UNL     1      28.630  43.364  52.948  1.00  0.00     0.096 A 
HETATM    3  C   UNL     1      29.667  43.000  53.811  1.00  0.00     0.046 A 
HETATM    4  C   UNL     1      29.902  43.749  54.969  1.00  0.00    -0.059 A 
HETATM    5  C   UNL     1      30.987  43.352  55.926  1.00  0.00     0.048 C 
HETATM    6  C   UNL     1      29.066  44.834  55.261  1.00  0.00     0.009 A 
HETATM    7  C   UNL     1      28.012  45.179  54.406  1.00  0.00     0.033 A 
ENDROOT
BRANCH   1   8
HETATM    8  N   UNL     1      26.719  44.691  52.350  1.00  0.00    -0.319 N 
HETATM    9  C   UNL     1      25.369  44.492  52.553  1.00  0.00     0.274 C 
HETATM   10  O   UNL     1      24.854  44.190  53.623  1.00  0.00    -0.266 OA
HETATM   11  H   UNL     1      27.002  45.178  51.508  1.00  0.00     0.169 HD
BRANCH   9  12
HETATM   12  C   UNL     1      24.581  44.729  51.368  1.00  0.00     0.120 A 
HETATM   13  N   UNL     1      24.412  45.943  50.758  1.00  0.00    -0.273 N 
HETATM   14  N   UNL     1      23.612  45.907  49.682  1.00  0.00    -0.179 NA
HETATM   15  H   UNL     1      24.823  46.833  51.018  1.00  0.00     0.189 HD
HETATM   16  C   UNL     1      23.297  44.613  49.556  1.00  0.00     0.056 A 
HETATM   17  C   UNL     1      23.903  43.833  50.567  1.00  0.00     0.065 A 
BRANCH  16  18
HETATM   18  C   UNL     1      22.403  44.157  48.454  1.00  0.00     0.056 C 
HETATM   19  C   UNL     1      22.849  42.826  47.866  1.00  0.00     0.011 C 
ENDBRANCH  16  18
ENDBRANCH   9  12
ENDBRANCH   1   8
BRANCH   2  20
HETATM   20  O   UNL     1      28.373  42.651  51.799  1.00  0.00    -0.340 OA
BRANCH  20  21
HETATM   21  C   UNL     1      27.968  41.298  52.088  1.00  0.00     0.293 C 
BRANCH  21  22
HETATM   22  C   UNL     1      27.873  40.498  50.799  1.00  0.00     0.408 C 
HETATM   23  F   UNL     1      28.087  41.283  49.719  1.00  0.00    -0.169 F 
HETATM   24  F   UNL     1      28.799  39.512  50.778  1.00  0.00    -0.169 F 
HETATM   25  F   UNL     1      26.660  39.921  50.658  1.00  0.00    -0.169 F 
ENDBRANCH  21  22
ENDBRANCH  20  21
ENDBRANCH   2  20
TORSDOF 6
ENDMDL
