MODEL 1
REMARK VINA RESULT:      -9.5      0.000      0.000
REMARK  5 active torsions:
REMARK  status: ('A' for Active; 'I' for Inactive)
REMARK    1  A    between atoms: C_3  and  O_4 
REMARK    2  A    between atoms: O_4  and  C_5 
REMARK    3  A    between atoms: C_5  and  C_6 
REMARK       I    between atoms: C_6  and  N_7 
REMARK    4  A    between atoms: N_7  and  N_8 
REMARK    5  A    between atoms: C_9  and  C_10 
ROOT
HETATM    1  C   UNL     1      25.434  45.237  52.287  1.00  0.00     0.261 C 
HETATM    2  N   UNL     1      26.030  46.450  51.937  1.00  0.00    -0.246 N 
HETATM    3  O   UNL     1      24.281  44.914  52.016  1.00  0.00    -0.269 OA
HETATM    4  H   UNL     1      26.996  46.639  52.180  1.00  0.00     0.192 HD
ENDROOT
BRANCH   2   5
HETATM    5  N   UNL     1      25.319  47.387  51.245  1.00  0.00    -0.184 NA
HETATM    6  C   UNL     1      25.694  47.587  50.023  1.00  0.00     0.153 C 
BRANCH   6   7
HETATM    7  C   UNL     1      25.014  48.559  49.187  1.00  0.00     0.018 A 
HETATM    8  C   UNL     1      23.615  48.561  48.870  1.00  0.00     0.004 A 
HETATM    9  C   UNL     1      23.372  49.663  48.051  1.00  0.00     0.043 A 
HETATM   10  C   UNL     1      22.524  47.730  49.210  1.00  0.00     0.014 A 
HETATM   11  C   UNL     1      22.101  49.977  47.555  1.00  0.00     0.030 A 
HETATM   12  N   UNL     1      24.574  50.304  47.871  1.00  0.00    -0.358 N 
HETATM   13  C   UNL     1      21.041  49.139  47.908  1.00  0.00     0.002 A 
HETATM   14  C   UNL     1      21.246  48.030  48.723  1.00  0.00     0.001 A 
HETATM   15  H   UNL     1      24.696  51.141  47.317  1.00  0.00     0.166 HD
HETATM   16  C   UNL     1      25.577  49.653  48.544  1.00  0.00     0.018 A 
HETATM   17  C   UNL     1      26.979  50.151  48.502  1.00  0.00     0.069 C 
ENDBRANCH   6   7
ENDBRANCH   2   5
BRANCH   1  18
HETATM   18  C   UNL     1      26.411  44.342  53.052  1.00  0.00     0.280 C 
BRANCH  18  19
HETATM   19  O   UNL     1      27.764  44.524  52.643  1.00  0.00    -0.341 OA
BRANCH  19  20
HETATM   20  C   UNL     1      28.619  44.288  53.690  1.00  0.00     0.081 A 
HETATM   21  C   UNL     1      28.727  45.218  54.738  1.00  0.00    -0.027 A 
HETATM   22  C   UNL     1      27.925  46.486  54.762  1.00  0.00     0.051 C 
HETATM   23  C   UNL     1      29.641  44.962  55.770  1.00  0.00     0.028 A 
HETATM   24  C   UNL     1      30.389  43.785  55.771  1.00  0.00     0.012 A 
HETATM   25  C   UNL     1      30.236  42.842  54.755  1.00  0.00     0.028 A 
HETATM   26 BR   UNL     1      31.617  43.459  57.172  1.00  0.00    -0.051 Br
HETATM   27  C   UNL     1      29.334  43.078  53.709  1.00  0.00    -0.027 A 
HETATM   28  C   UNL     1      29.169  42.062  52.614  1.00  0.00     0.051 C 
ENDBRANCH  19  20
ENDBRANCH  18  19
ENDBRANCH   1  18
TORSDOF 5
ENDMDL
MODEL 2
REMARK VINA RESULT:      -9.3      4.119      9.701
REMARK  5 active torsions:
REMARK  status: ('A' for Active; 'I' for Inactive)
REMARK    1  A    between atoms: C_3  and  O_4 
REMARK    2  A    between atoms: O_4  and  C_5 
REMARK    3  A    between atoms: C_5  and  C_6 
REMARK       I    between atoms: C_6  and  N_7 
REMARK    4  A    between atoms: N_7  and  N_8 
REMARK    5  A    between atoms: C_9  and  C_10 
ROOT
HETATM    1  C   UNL     1      24.732  47.824  50.039  1.00  0.00     0.261 C 
HETATM    2  N   UNL     1      24.722  47.085  51.224  1.00  0.00    -0.246 N 
HETATM    3  O   UNL     1      25.658  48.532  49.657  1.00  0.00    -0.269 OA
HETATM    4  H   UNL     1      23.926  46.506  51.464  1.00  0.00     0.192 HD
ENDROOT
BRANCH   2   5
HETATM    5  N   UNL     1      25.798  47.124  52.062  1.00  0.00    -0.184 NA
HETATM    6  C   UNL     1      25.737  46.343  53.092  1.00  0.00     0.153 C 
BRANCH   6   7
HETATM    7  C   UNL     1      26.822  46.296  54.055  1.00  0.00     0.018 A 
HETATM    8  C   UNL     1      27.811  45.262  54.156  1.00  0.00     0.004 A 
HETATM    9  C   UNL     1      28.669  45.603  55.201  1.00  0.00     0.043 A 
HETATM   10  C   UNL     1      28.064  44.065  53.449  1.00  0.00     0.014 A 
HETATM   11  C   UNL     1      29.762  44.814  55.576  1.00  0.00     0.030 A 
HETATM   12  N   UNL     1      28.218  46.793  55.720  1.00  0.00    -0.358 N 
HETATM   13  C   UNL     1      29.990  43.636  54.859  1.00  0.00     0.002 A 
HETATM   14  C   UNL     1      29.154  43.265  53.810  1.00  0.00     0.001 A 
HETATM   15  H   UNL     1      28.653  47.277  56.494  1.00  0.00     0.166 HD
HETATM   16  C   UNL     1      27.105  47.226  55.046  1.00  0.00     0.018 A 
HETATM   17  C   UNL     1      26.423  48.495  55.424  1.00  0.00     0.069 C 
ENDBRANCH   6   7
ENDBRANCH   2   5
BRANCH   1  18
HETATM   18  C   UNL     1      23.431  47.630  49.257  1.00  0.00     0.280 C 
BRANCH  18  19
HETATM   19  O   UNL     1      23.383  48.407  48.063  1.00  0.00    -0.341 OA
BRANCH  19  20
HETATM   20  C   UNL     1      22.247  49.176  48.036  1.00  0.00     0.081 A 
HETATM   21  C   UNL     1      22.294  50.522  48.437  1.00  0.00    -0.027 A 
HETATM   22  C   UNL     1      23.565  51.169  48.902  1.00  0.00     0.051 C 
HETATM   23  C   UNL     1      21.104  51.265  48.435  1.00  0.00     0.028 A 
HETATM   24  C   UNL     1      19.914  50.684  47.997  1.00  0.00     0.012 A 
HETATM   25  C   UNL     1      19.887  49.364  47.549  1.00  0.00     0.028 A 
HETATM   26 BR   UNL     1      18.320  51.703  48.002  1.00  0.00    -0.051 Br
HETATM   27  C   UNL     1      21.061  48.599  47.549  1.00  0.00    -0.027 A 
HETATM   28  C   UNL     1      21.033  47.176  47.066  1.00  0.00     0.051 C 
ENDBRANCH  19  20
ENDBRANCH  18  19
ENDBRANCH   1  18
TORSDOF 5
ENDMDL
MODEL 3
REMARK VINA RESULT:      -9.1      1.564      2.984
REMARK  5 active torsions:
REMARK  status: ('A' for Active; 'I' for Inactive)
REMARK    1  A    between atoms: C_3  and  O_4 
REMARK    2  A    between atoms: O_4  and  C_5 
REMARK    3  A    between atoms: C_5  and  C_6 
REMARK       I    between atoms: C_6  and  N_7 
REMARK    4  A    between atoms: N_7  and  N_8 
REMARK    5  A    between atoms: C_9  and  C_10 
ROOT
HETATM    1  C   UNL     1      25.501  44.175  52.692  1.00  0.00     0.261 C 
HETATM    2  N   UNL     1      25.513  44.662  51.384  1.00  0.00    -0.246 N 
HETATM    3  O   UNL     1      24.553  44.255  53.467  1.00  0.00    -0.269 OA
HETATM    4  H   UNL     1      26.329  44.541  50.795  1.00  0.00     0.192 HD
ENDROOT
BRANCH   2   5
HETATM    5  N   UNL     1      24.412  45.290  50.879  1.00  0.00    -0.184 NA
HETATM    6  C   UNL     1      24.558  45.831  49.713  1.00  0.00     0.153 C 
BRANCH   6   7
HETATM    7  C   UNL     1      23.458  46.527  49.072  1.00  0.00     0.018 A 
HETATM    8  C   UNL     1      23.401  47.934  48.795  1.00  0.00     0.004 A 
HETATM    9  C   UNL     1      22.182  48.189  48.169  1.00  0.00     0.043 A 
HETATM   10  C   UNL     1      24.279  49.019  49.012  1.00  0.00     0.014 A 
HETATM   11  C   UNL     1      21.795  49.467  47.749  1.00  0.00     0.030 A 
HETATM   12  N   UNL     1      21.519  46.989  48.073  1.00  0.00    -0.358 N 
HETATM   13  C   UNL     1      22.683  50.521  47.975  1.00  0.00     0.002 A 
HETATM   14  C   UNL     1      23.909  50.303  48.598  1.00  0.00     0.001 A 
HETATM   15  H   UNL     1      20.604  46.876  47.659  1.00  0.00     0.166 HD
HETATM   16  C   UNL     1      22.269  45.975  48.615  1.00  0.00     0.018 A 
HETATM   17  C   UNL     1      21.765  44.575  48.636  1.00  0.00     0.069 C 
ENDBRANCH   6   7
ENDBRANCH   2   5
BRANCH   1  18
HETATM   18  C   UNL     1      26.834  43.509  53.044  1.00  0.00     0.280 C 
BRANCH  18  19
HETATM   19  O   UNL     1      27.954  44.363  52.824  1.00  0.00    -0.341 OA
BRANCH  19  20
HETATM   20  C   UNL     1      28.777  44.369  53.922  1.00  0.00     0.081 A 
HETATM   21  C   UNL     1      29.775  43.390  54.062  1.00  0.00    -0.027 A 
HETATM   22  C   UNL     1      29.986  42.316  53.036  1.00  0.00     0.051 C 
HETATM   23  C   UNL     1      30.570  43.403  55.217  1.00  0.00     0.028 A 
HETATM   24  C   UNL     1      30.397  44.399  56.179  1.00  0.00     0.012 A 
HETATM   25  C   UNL     1      29.440  45.398  56.005  1.00  0.00     0.028 A 
HETATM   26 BR   UNL     1      31.479  44.399  57.730  1.00  0.00    -0.051 Br
HETATM   27  C   UNL     1      28.628  45.403  54.863  1.00  0.00    -0.027 A 
HETATM   28  C   UNL     1      27.597  46.479  54.676  1.00  0.00     0.051 C 
ENDBRANCH  19  20
ENDBRANCH  18  19
ENDBRANCH   1  18
TORSDOF 5
ENDMDL
MODEL 4
REMARK VINA RESULT:      -9.1      3.931      9.578
REMARK  5 active torsions:
REMARK  status: ('A' for Active; 'I' for Inactive)
REMARK    1  A    between atoms: C_3  and  O_4 
REMARK    2  A    between atoms: O_4  and  C_5 
REMARK    3  A    between atoms: C_5  and  C_6 
REMARK       I    between atoms: C_6  and  N_7 
REMARK    4  A    between atoms: N_7  and  N_8 
REMARK    5  A    between atoms: C_9  and  C_10 
ROOT
HETATM    1  C   UNL     1      24.831  47.171  50.041  1.00  0.00     0.261 C 
HETATM    2  N   UNL     1      24.836  46.559  51.296  1.00  0.00    -0.246 N 
HETATM    3  O   UNL     1      25.793  47.732  49.525  1.00  0.00    -0.269 OA
HETATM    4  H   UNL     1      24.006  46.097  51.649  1.00  0.00     0.192 HD
ENDROOT
BRANCH   2   5
HETATM    5  N   UNL     1      25.972  46.563  52.052  1.00  0.00    -0.184 NA
HETATM    6  C   UNL     1      25.833  46.170  53.278  1.00  0.00     0.153 C 
BRANCH   6   7
HETATM    7  C   UNL     1      26.969  46.130  54.179  1.00  0.00     0.018 A 
HETATM    8  C   UNL     1      27.951  45.087  54.247  1.00  0.00     0.004 A 
HETATM    9  C   UNL     1      28.869  45.439  55.235  1.00  0.00     0.043 A 
HETATM   10  C   UNL     1      28.151  43.873  53.552  1.00  0.00     0.014 A 
HETATM   11  C   UNL     1      29.974  44.645  55.565  1.00  0.00     0.030 A 
HETATM   12  N   UNL     1      28.462  46.645  55.753  1.00  0.00    -0.358 N 
HETATM   13  C   UNL     1      30.148  43.451  54.861  1.00  0.00     0.002 A 
HETATM   14  C   UNL     1      29.251  43.067  53.869  1.00  0.00     0.001 A 
HETATM   15  H   UNL     1      28.945  47.140  56.491  1.00  0.00     0.166 HD
HETATM   16  C   UNL     1      27.316  47.077  55.134  1.00  0.00     0.018 A 
HETATM   17  C   UNL     1      26.671  48.361  55.522  1.00  0.00     0.069 C 
ENDBRANCH   6   7
ENDBRANCH   2   5
BRANCH   1  18
HETATM   18  C   UNL     1      23.460  47.044  49.371  1.00  0.00     0.280 C 
BRANCH  18  19
HETATM   19  O   UNL     1      23.369  47.782  48.155  1.00  0.00    -0.341 OA
BRANCH  19  20
HETATM   20  C   UNL     1      22.419  48.766  48.259  1.00  0.00     0.081 A 
HETATM   21  C   UNL     1      21.058  48.427  48.348  1.00  0.00    -0.027 A 
HETATM   22  C   UNL     1      20.590  47.001  48.337  1.00  0.00     0.051 C 
HETATM   23  C   UNL     1      20.112  49.461  48.411  1.00  0.00     0.028 A 
HETATM   24  C   UNL     1      20.527  50.793  48.432  1.00  0.00     0.012 A 
HETATM   25  C   UNL     1      21.883  51.117  48.398  1.00  0.00     0.028 A 
HETATM   26 BR   UNL     1      19.236  52.172  48.517  1.00  0.00    -0.051 Br
HETATM   27  C   UNL     1      22.846  50.103  48.328  1.00  0.00    -0.027 A 
HETATM   28  C   UNL     1      24.307  50.453  48.291  1.00  0.00     0.051 C 
ENDBRANCH  19  20
ENDBRANCH  18  19
ENDBRANCH   1  18
TORSDOF 5
ENDMDL
MODEL 5
REMARK VINA RESULT:      -8.7      4.268      9.895
REMARK  5 active torsions:
REMARK  status: ('A' for Active; 'I' for Inactive)
REMARK    1  A    between atoms: C_3  and  O_4 
REMARK    2  A    between atoms: O_4  and  C_5 
REMARK    3  A    between atoms: C_5  and  C_6 
REMARK       I    between atoms: C_6  and  N_7 
REMARK    4  A    between atoms: N_7  and  N_8 
REMARK    5  A    between atoms: C_9  and  C_10 
ROOT
HETATM    1  C   UNL     1      24.275  47.459  49.705  1.00  0.00     0.261 C 
HETATM    2  N   UNL     1      24.291  46.414  50.629  1.00  0.00    -0.246 N 
HETATM    3  O   UNL     1      25.244  48.148  49.401  1.00  0.00    -0.269 OA
HETATM    4  H   UNL     1      23.452  45.876  50.815  1.00  0.00     0.192 HD
ENDROOT
BRANCH   2   5
HETATM    5  N   UNL     1      25.447  46.094  51.279  1.00  0.00    -0.184 NA
HETATM    6  C   UNL     1      25.413  45.012  51.988  1.00  0.00     0.153 C 
BRANCH   6   7
HETATM    7  C   UNL     1      26.582  44.569  52.725  1.00  0.00     0.018 A 
HETATM    8  C   UNL     1      27.251  45.304  53.759  1.00  0.00     0.004 A 
HETATM    9  C   UNL     1      28.315  44.523  54.208  1.00  0.00     0.043 A 
HETATM   10  C   UNL     1      27.048  46.564  54.365  1.00  0.00     0.014 A 
HETATM   11  C   UNL     1      29.184  44.932  55.226  1.00  0.00     0.030 A 
HETATM   12  N   UNL     1      28.299  43.361  53.474  1.00  0.00    -0.358 N 
HETATM   13  C   UNL     1      28.959  46.182  55.808  1.00  0.00     0.002 A 
HETATM   14  C   UNL     1      27.907  46.989  55.385  1.00  0.00     0.001 A 
HETATM   15  H   UNL     1      28.963  42.606  53.588  1.00  0.00     0.166 HD
HETATM   16  C   UNL     1      27.265  43.370  52.573  1.00  0.00     0.018 A 
HETATM   17  C   UNL     1      27.036  42.221  51.654  1.00  0.00     0.069 C 
ENDBRANCH   6   7
ENDBRANCH   2   5
BRANCH   1  18
HETATM   18  C   UNL     1      22.880  47.639  49.098  1.00  0.00     0.280 C 
BRANCH  18  19
HETATM   19  O   UNL     1      22.885  48.467  47.938  1.00  0.00    -0.341 OA
BRANCH  19  20
HETATM   20  C   UNL     1      21.788  49.291  47.931  1.00  0.00     0.081 A 
HETATM   21  C   UNL     1      20.556  48.823  47.446  1.00  0.00    -0.027 A 
HETATM   22  C   UNL     1      20.384  47.426  46.927  1.00  0.00     0.051 C 
HETATM   23  C   UNL     1      19.467  49.707  47.416  1.00  0.00     0.028 A 
HETATM   24  C   UNL     1      19.604  51.007  47.904  1.00  0.00     0.012 A 
HETATM   25  C   UNL     1      20.817  51.445  48.433  1.00  0.00     0.028 A 
HETATM   26 BR   UNL     1      18.124  52.183  47.854  1.00  0.00    -0.051 Br
HETATM   27  C   UNL     1      21.921  50.584  48.468  1.00  0.00    -0.027 A 
HETATM   28  C   UNL     1      23.228  51.056  49.038  1.00  0.00     0.051 C 
ENDBRANCH  19  20
ENDBRANCH  18  19
ENDBRANCH   1  18
TORSDOF 5
ENDMDL
MODEL 6
REMARK VINA RESULT:      -8.7      3.790      9.637
REMARK  5 active torsions:
REMARK  status: ('A' for Active; 'I' for Inactive)
REMARK    1  A    between atoms: C_3  and  O_4 
REMARK    2  A    between atoms: O_4  and  C_5 
REMARK    3  A    between atoms: C_5  and  C_6 
REMARK       I    between atoms: C_6  and  N_7 
REMARK    4  A    between atoms: N_7  and  N_8 
REMARK    5  A    between atoms: C_9  and  C_10 
ROOT
HETATM    1  C   UNL     1      25.317  46.244  50.083  1.00  0.00     0.261 C 
HETATM    2  N   UNL     1      25.479  45.772  51.386  1.00  0.00    -0.246 N 
HETATM    3  O   UNL     1      26.192  46.257  49.222  1.00  0.00    -0.269 OA
HETATM    4  H   UNL     1      24.702  45.776  52.037  1.00  0.00     0.192 HD
ENDROOT
BRANCH   2   5
HETATM    5  N   UNL     1      26.687  45.282  51.790  1.00  0.00    -0.184 NA
HETATM    6  C   UNL     1      26.654  44.153  52.421  1.00  0.00     0.153 C 
BRANCH   6   7
HETATM    7  C   UNL     1      27.874  43.532  52.900  1.00  0.00     0.018 A 
HETATM    8  C   UNL     1      28.686  44.003  53.985  1.00  0.00     0.004 A 
HETATM    9  C   UNL     1      29.756  43.119  54.122  1.00  0.00     0.043 A 
HETATM   10  C   UNL     1      28.609  45.098  54.874  1.00  0.00     0.014 A 
HETATM   11  C   UNL     1      30.749  43.271  55.096  1.00  0.00     0.030 A 
HETATM   12  N   UNL     1      29.606  42.152  53.157  1.00  0.00    -0.358 N 
HETATM   13  C   UNL     1      30.647  44.363  55.963  1.00  0.00     0.002 A 
HETATM   14  C   UNL     1      29.593  45.265  55.855  1.00  0.00     0.001 A 
HETATM   15  H   UNL     1      30.243  41.378  53.023  1.00  0.00     0.166 HD
HETATM   16  C   UNL     1      28.481  42.384  52.407  1.00  0.00     0.018 A 
HETATM   17  C   UNL     1      28.101  41.476  51.291  1.00  0.00     0.069 C 
ENDBRANCH   6   7
ENDBRANCH   2   5
BRANCH   1  18
HETATM   18  C   UNL     1      23.888  46.741  49.849  1.00  0.00     0.280 C 
BRANCH  18  19
HETATM   19  O   UNL     1      23.662  47.162  48.507  1.00  0.00    -0.341 OA
BRANCH  19  20
HETATM   20  C   UNL     1      22.816  48.242  48.478  1.00  0.00     0.081 A 
HETATM   21  C   UNL     1      23.336  49.548  48.467  1.00  0.00    -0.027 A 
HETATM   22  C   UNL     1      24.813  49.816  48.483  1.00  0.00     0.051 C 
HETATM   23  C   UNL     1      22.441  50.627  48.479  1.00  0.00     0.028 A 
HETATM   24  C   UNL     1      21.065  50.398  48.455  1.00  0.00     0.012 A 
HETATM   25  C   UNL     1      20.559  49.100  48.411  1.00  0.00     0.028 A 
HETATM   26 BR   UNL     1      19.874  51.867  48.472  1.00  0.00    -0.051 Br
HETATM   27  C   UNL     1      21.432  48.005  48.405  1.00  0.00    -0.027 A 
HETATM   28  C   UNL     1      20.887  46.606  48.358  1.00  0.00     0.051 C 
ENDBRANCH  19  20
ENDBRANCH  18  19
ENDBRANCH   1  18
TORSDOF 5
ENDMDL
MODEL 7
REMARK VINA RESULT:      -8.6      1.838      2.857
REMARK  5 active torsions:
REMARK  status: ('A' for Active; 'I' for Inactive)
REMARK    1  A    between atoms: C_3  and  O_4 
REMARK    2  A    between atoms: O_4  and  C_5 
REMARK    3  A    between atoms: C_5  and  C_6 
REMARK       I    between atoms: C_6  and  N_7 
REMARK    4  A    between atoms: N_7  and  N_8 
REMARK    5  A    between atoms: C_9  and  C_10 
ROOT
HETATM    1  C   UNL     1      26.977  44.671  50.115  1.00  0.00     0.261 C 
HETATM    2  N   UNL     1      25.583  44.739  50.146  1.00  0.00    -0.246 N 
HETATM    3  O   UNL     1      27.711  45.483  49.561  1.00  0.00    -0.269 OA
HETATM    4  H   UNL     1      25.042  44.040  50.642  1.00  0.00     0.192 HD
ENDROOT
BRANCH   2   5
HETATM    5  N   UNL     1      24.935  45.765  49.521  1.00  0.00    -0.184 NA
HETATM    6  C   UNL     1      23.643  45.703  49.531  1.00  0.00     0.153 C 
BRANCH   6   7
HETATM    7  C   UNL     1      22.844  46.736  48.899  1.00  0.00     0.018 A 
HETATM    8  C   UNL     1      23.249  48.095  48.681  1.00  0.00     0.004 A 
HETATM    9  C   UNL     1      22.197  48.749  48.041  1.00  0.00     0.043 A 
HETATM   10  C   UNL     1      24.421  48.833  48.962  1.00  0.00     0.014 A 
HETATM   11  C   UNL     1      22.253  50.097  47.669  1.00  0.00     0.030 A 
HETATM   12  N   UNL     1      21.189  47.829  47.880  1.00  0.00    -0.358 N 
HETATM   13  C   UNL     1      23.424  50.803  47.958  1.00  0.00     0.002 A 
HETATM   14  C   UNL     1      24.494  50.182  48.596  1.00  0.00     0.001 A 
HETATM   15  H   UNL     1      20.300  48.030  47.443  1.00  0.00     0.166 HD
HETATM   16  C   UNL     1      21.557  46.611  48.394  1.00  0.00     0.018 A 
HETATM   17  C   UNL     1      20.632  45.446  48.345  1.00  0.00     0.069 C 
ENDBRANCH   6   7
ENDBRANCH   2   5
BRANCH   1  18
HETATM   18  C   UNL     1      27.486  43.446  50.878  1.00  0.00     0.280 C 
BRANCH  18  19
HETATM   19  O   UNL     1      26.885  43.306  52.163  1.00  0.00    -0.341 OA
BRANCH  19  20
HETATM   20  C   UNL     1      27.811  43.518  53.153  1.00  0.00     0.081 A 
HETATM   21  C   UNL     1      27.830  44.736  53.854  1.00  0.00    -0.027 A 
HETATM   22  C   UNL     1      26.855  45.838  53.560  1.00  0.00     0.051 C 
HETATM   23  C   UNL     1      28.817  44.932  54.830  1.00  0.00     0.028 A 
HETATM   24  C   UNL     1      29.727  43.916  55.125  1.00  0.00     0.012 A 
HETATM   25  C   UNL     1      29.666  42.691  54.462  1.00  0.00     0.028 A 
HETATM   26 BR   UNL     1      31.051  44.202  56.445  1.00  0.00    -0.051 Br
HETATM   27  C   UNL     1      28.694  42.473  53.477  1.00  0.00    -0.027 A 
HETATM   28  C   UNL     1      28.628  41.153  52.763  1.00  0.00     0.051 C 
ENDBRANCH  19  20
ENDBRANCH  18  19
ENDBRANCH   1  18
TORSDOF 5
ENDMDL
MODEL 8
REMARK VINA RESULT:      -8.5      6.067      9.587
REMARK  5 active torsions:
REMARK  status: ('A' for Active; 'I' for Inactive)
REMARK    1  A    between atoms: C_3  and  O_4 
REMARK    2  A    between atoms: O_4  and  C_5 
REMARK    3  A    between atoms: C_5  and  C_6 
REMARK       I    between atoms: C_6  and  N_7 
REMARK    4  A    between atoms: N_7  and  N_8 
REMARK    5  A    between atoms: C_9  and  C_10 
ROOT
HETATM    1  C   UNL     1      27.542  41.212  51.654  1.00  0.00     0.261 C 
HETATM    2  N   UNL     1      28.391  41.108  52.757  1.00  0.00    -0.246 N 
HETATM    3  O   UNL     1      26.713  42.100  51.483  1.00  0.00    -0.269 OA
HETATM    4  H   UNL     1      29.066  40.354  52.820  1.00  0.00     0.192 HD
ENDROOT
BRANCH   2   5
HETATM    5  N   UNL     1      28.331  42.036  53.756  1.00  0.00    -0.184 NA
HETATM    6  C   UNL     1      29.157  43.027  53.653  1.00  0.00     0.153 C 
BRANCH   6   7
HETATM    7  C   UNL     1      29.187  44.077  54.653  1.00  0.00     0.018 A 
HETATM    8  C   UNL     1      30.068  44.135  55.784  1.00  0.00     0.004 A 
HETATM    9  C   UNL     1      29.775  45.304  56.484  1.00  0.00     0.043 A 
HETATM   10  C   UNL     1      31.099  43.304  56.276  1.00  0.00     0.014 A 
HETATM   11  C   UNL     1      30.454  45.685  57.647  1.00  0.00     0.030 A 
HETATM   12  N   UNL     1      28.753  45.931  55.813  1.00  0.00    -0.358 N 
HETATM   13  C   UNL     1      31.469  44.845  58.111  1.00  0.00     0.002 A 
HETATM   14  C   UNL     1      31.789  43.670  57.438  1.00  0.00     0.001 A 
HETATM   15  H   UNL     1      28.336  46.807  56.099  1.00  0.00     0.166 HD
HETATM   16  C   UNL     1      28.381  45.206  54.709  1.00  0.00     0.018 A 
HETATM   17  C   UNL     1      27.287  45.675  53.815  1.00  0.00     0.069 C 
ENDBRANCH   6   7
ENDBRANCH   2   5
BRANCH   1  18
HETATM   18  C   UNL     1      27.783  40.071  50.663  1.00  0.00     0.280 C 
BRANCH  18  19
HETATM   19  O   UNL     1      28.542  40.477  49.527  1.00  0.00    -0.341 OA
BRANCH  19  20
HETATM   20  C   UNL     1      28.350  39.606  48.484  1.00  0.00     0.081 A 
HETATM   21  C   UNL     1      29.096  38.418  48.408  1.00  0.00    -0.027 A 
HETATM   22  C   UNL     1      30.116  38.052  49.447  1.00  0.00     0.051 C 
HETATM   23  C   UNL     1      28.902  37.573  47.306  1.00  0.00     0.028 A 
HETATM   24  C   UNL     1      27.952  37.890  46.336  1.00  0.00     0.012 A 
HETATM   25  C   UNL     1      27.177  39.044  46.447  1.00  0.00     0.028 A 
HETATM   26 BR   UNL     1      27.706  36.737  44.857  1.00  0.00    -0.051 Br
HETATM   27  C   UNL     1      27.357  39.909  47.535  1.00  0.00    -0.027 A 
HETATM   28  C   UNL     1      26.523  41.152  47.655  1.00  0.00     0.051 C 
ENDBRANCH  19  20
ENDBRANCH  18  19
ENDBRANCH   1  18
TORSDOF 5
ENDMDL
MODEL 9
REMARK VINA RESULT:      -8.5      3.616      8.846
REMARK  5 active torsions:
REMARK  status: ('A' for Active; 'I' for Inactive)
REMARK    1  A    between atoms: C_3  and  O_4 
REMARK    2  A    between atoms: O_4  and  C_5 
REMARK    3  A    between atoms: C_5  and  C_6 
REMARK       I    between atoms: C_6  and  N_7 
REMARK    4  A    between atoms: N_7  and  N_8 
REMARK    5  A    between atoms: C_9  and  C_10 
ROOT
HETATM    1  C   UNL     1      24.201  44.310  50.888  1.00  0.00     0.261 C 
HETATM    2  N   UNL     1      24.391  45.297  51.856  1.00  0.00    -0.246 N 
HETATM    3  O   UNL     1      24.789  43.233  50.852  1.00  0.00    -0.269 OA
HETATM    4  H   UNL     1      23.853  46.156  51.831  1.00  0.00     0.192 HD
ENDROOT
BRANCH   2   5
HETATM    5  N   UNL     1      25.294  45.104  52.860  1.00  0.00    -0.184 NA
HETATM    6  C   UNL     1      26.202  46.018  52.984  1.00  0.00     0.153 C 
BRANCH   6   7
HETATM    7  C   UNL     1      27.217  45.923  54.016  1.00  0.00     0.018 A 
HETATM    8  C   UNL     1      28.222  44.904  54.113  1.00  0.00     0.004 A 
HETATM    9  C   UNL     1      28.996  45.185  55.239  1.00  0.00     0.043 A 
HETATM   10  C   UNL     1      28.554  43.768  53.343  1.00  0.00     0.014 A 
HETATM   11  C   UNL     1      30.080  44.393  55.634  1.00  0.00     0.030 A 
HETATM   12  N   UNL     1      28.481  46.326  55.808  1.00  0.00    -0.358 N 
HETATM   13  C   UNL     1      30.387  43.276  54.853  1.00  0.00     0.002 A 
HETATM   14  C   UNL     1      29.636  42.965  53.723  1.00  0.00     0.001 A 
HETATM   15  H   UNL     1      28.849  46.761  56.643  1.00  0.00     0.166 HD
HETATM   16  C   UNL     1      27.407  46.784  55.089  1.00  0.00     0.018 A 
HETATM   17  C   UNL     1      26.669  48.008  55.506  1.00  0.00     0.069 C 
ENDBRANCH   6   7
ENDBRANCH   2   5
BRANCH   1  18
HETATM   18  C   UNL     1      23.144  44.736  49.865  1.00  0.00     0.280 C 
BRANCH  18  19
HETATM   19  O   UNL     1      23.668  45.593  48.854  1.00  0.00    -0.341 OA
BRANCH  19  20
HETATM   20  C   UNL     1      23.028  46.807  48.873  1.00  0.00     0.081 A 
HETATM   21  C   UNL     1      21.662  46.890  48.552  1.00  0.00    -0.027 A 
HETATM   22  C   UNL     1      20.856  45.679  48.185  1.00  0.00     0.051 C 
HETATM   23  C   UNL     1      21.052  48.153  48.542  1.00  0.00     0.028 A 
HETATM   24  C   UNL     1      21.781  49.289  48.891  1.00  0.00     0.012 A 
HETATM   25  C   UNL     1      23.122  49.190  49.260  1.00  0.00     0.028 A 
HETATM   26 BR   UNL     1      20.940  50.983  48.870  1.00  0.00    -0.051 Br
HETATM   27  C   UNL     1      23.757  47.941  49.271  1.00  0.00    -0.027 A 
HETATM   28  C   UNL     1      25.202  47.833  49.669  1.00  0.00     0.051 C 
ENDBRANCH  19  20
ENDBRANCH  18  19
ENDBRANCH   1  18
TORSDOF 5
ENDMDL
MODEL 10
REMARK VINA RESULT:      -8.4      5.225      8.048
REMARK  5 active torsions:
REMARK  status: ('A' for Active; 'I' for Inactive)
REMARK    1  A    between atoms: C_3  and  O_4 
REMARK    2  A    between atoms: O_4  and  C_5 
REMARK    3  A    between atoms: C_5  and  C_6 
REMARK       I    between atoms: C_6  and  N_7 
REMARK    4  A    between atoms: N_7  and  N_8 
REMARK    5  A    between atoms: C_9  and  C_10 
ROOT
HETATM    1  C   UNL     1      27.385  41.867  52.480  1.00  0.00     0.261 C 
HETATM    2  N   UNL     1      26.894  41.868  51.173  1.00  0.00    -0.246 N 
HETATM    3  O   UNL     1      27.967  40.929  53.015  1.00  0.00    -0.269 OA
HETATM    4  H   UNL     1      26.440  42.690  50.792  1.00  0.00     0.192 HD
ENDROOT
BRANCH   2   5
HETATM    5  N   UNL     1      27.041  40.761  50.388  1.00  0.00    -0.184 NA
HETATM    6  C   UNL     1      28.218  40.585  49.880  1.00  0.00     0.153 C 
BRANCH   6   7
HETATM    7  C   UNL     1      28.497  39.443  49.028  1.00  0.00     0.018 A 
HETATM    8  C   UNL     1      28.106  39.305  47.655  1.00  0.00     0.004 A 
HETATM    9  C   UNL     1      28.575  38.071  47.208  1.00  0.00     0.043 A 
HETATM   10  C   UNL     1      27.402  40.121  46.742  1.00  0.00     0.014 A 
HETATM   11  C   UNL     1      28.377  37.610  45.901  1.00  0.00     0.030 A 
HETATM   12  N   UNL     1      29.220  37.477  48.266  1.00  0.00    -0.358 N 
HETATM   13  C   UNL     1      27.678  38.437  45.019  1.00  0.00     0.002 A 
HETATM   14  C   UNL     1      27.195  39.676  45.431  1.00  0.00     0.001 A 
HETATM   15  H   UNL     1      29.660  36.568  48.227  1.00  0.00     0.166 HD
HETATM   16  C   UNL     1      29.181  38.285  49.374  1.00  0.00     0.018 A 
HETATM   17  C   UNL     1      29.809  37.863  50.656  1.00  0.00     0.069 C 
ENDBRANCH   6   7
ENDBRANCH   2   5
BRANCH   1  18
HETATM   18  C   UNL     1      27.113  43.206  53.172  1.00  0.00     0.280 C 
BRANCH  18  19
HETATM   19  O   UNL     1      28.134  44.170  52.930  1.00  0.00    -0.341 OA
BRANCH  19  20
HETATM   20  C   UNL     1      28.695  44.583  54.112  1.00  0.00     0.081 A 
HETATM   21  C   UNL     1      29.850  43.952  54.606  1.00  0.00    -0.027 A 
HETATM   22  C   UNL     1      30.512  42.821  53.875  1.00  0.00     0.051 C 
HETATM   23  C   UNL     1      30.370  44.374  55.838  1.00  0.00     0.028 A 
HETATM   24  C   UNL     1      29.774  45.430  56.528  1.00  0.00     0.012 A 
HETATM   25  C   UNL     1      28.661  46.086  56.004  1.00  0.00     0.028 A 
HETATM   26 BR   UNL     1      30.491  45.983  58.188  1.00  0.00    -0.051 Br
HETATM   27  C   UNL     1      28.118  45.678  54.779  1.00  0.00    -0.027 A 
HETATM   28  C   UNL     1      26.918  46.385  54.214  1.00  0.00     0.051 C 
ENDBRANCH  19  20
ENDBRANCH  18  19
ENDBRANCH   1  18
TORSDOF 5
ENDMDL
