MODEL 1
REMARK VINA RESULT:      -9.8      0.000      0.000
REMARK  5 active torsions:
REMARK  status: ('A' for Active; 'I' for Inactive)
REMARK    1  A    between atoms: C_2  and  C_3 
REMARK    2  A    between atoms: C_8  and  C_9 
REMARK       I    between atoms: C_9  and  N_10 
REMARK    3  A    between atoms: N_10  and  C_11 
REMARK    4  A    between atoms: C_11  and  C_12 
REMARK    5  A    between atoms: C_19  and  C_20 
ROOT
HETATM    1  C   UNL     1      26.162  44.193  53.437  1.00  0.00     0.118 C 
HETATM    2  N   UNL     1      25.919  45.609  53.190  1.00  0.00    -0.366 N 
HETATM    3  C   UNL     1      26.114  46.165  51.974  1.00  0.00     0.123 A 
HETATM    4  N   UNL     1      26.438  45.406  50.881  1.00  0.00    -0.240 N 
HETATM    5  N   UNL     1      26.668  46.131  49.774  1.00  0.00    -0.165 NA
HETATM    6  C   UNL     1      26.390  47.399  50.152  1.00  0.00     0.148 A 
HETATM    7  C   UNL     1      26.059  47.461  51.532  1.00  0.00     0.088 A 
HETATM    8  C   UNL     1      26.666  43.973  50.936  1.00  0.00     0.221 C 
HETATM    9  C   UNL     1      25.941  43.374  52.157  1.00  0.00     0.066 C 
HETATM   10  H   UNL     1      25.818  46.193  54.021  1.00  0.00     0.161 HD
ENDROOT
BRANCH   6  11
HETATM   11  C   UNL     1      26.434  48.525  49.204  1.00  0.00     0.272 C 
HETATM   12  N   UNL     1      25.188  49.008  48.874  1.00  0.00    -0.353 N 
HETATM   13  H   UNL     1      24.398  48.454  49.195  1.00  0.00     0.162 HD
HETATM   14  O   UNL     1      27.481  48.992  48.767  1.00  0.00    -0.266 OA
BRANCH  12  15
HETATM   15  C   UNL     1      24.977  50.094  47.942  1.00  0.00     0.155 C 
BRANCH  15  16
HETATM   16  C   UNL     1      23.496  50.337  47.646  1.00  0.00     0.139 C 
HETATM   17  O   UNL     1      22.776  49.087  47.592  1.00  0.00    -0.384 OA
HETATM   18  C   UNL     1      21.464  49.297  48.135  1.00  0.00     0.168 C 
HETATM   19  C   UNL     1      21.366  50.755  48.540  1.00  0.00     0.029 C 
HETATM   20  C   UNL     1      22.809  51.143  48.734  1.00  0.00     0.035 C 
ENDBRANCH  15  16
ENDBRANCH  12  15
ENDBRANCH   6  11
BRANCH   8  21
HETATM   21  C   UNL     1      26.200  43.271  49.678  1.00  0.00     0.409 C 
HETATM   22  F   UNL     1      27.210  42.892  48.867  1.00  0.00    -0.169 F 
HETATM   23  F   UNL     1      25.539  42.130  50.014  1.00  0.00    -0.169 F 
HETATM   24  F   UNL     1      25.332  44.018  48.959  1.00  0.00    -0.169 F 
ENDBRANCH   8  21
BRANCH   1  25
HETATM   25  C   UNL     1      27.516  43.939  54.085  1.00  0.00    -0.034 A 
HETATM   26  C   UNL     1      28.242  42.751  53.905  1.00  0.00     0.011 A 
HETATM   27  C   UNL     1      29.485  42.570  54.520  1.00  0.00     0.026 A 
HETATM   28  C   UNL     1      30.026  43.570  55.330  1.00  0.00     0.055 A 
HETATM   29  C   UNL     1      29.315  44.755  55.529  1.00  0.00     0.056 A 
HETATM   30 CL   UNL     1      31.569  43.279  56.048  1.00  0.00    -0.083 Cl
HETATM   31  C   UNL     1      28.070  44.933  54.913  1.00  0.00     0.034 A 
HETATM   32 CL   UNL     1      29.912  46.041  56.516  1.00  0.00    -0.083 Cl
ENDBRANCH   1  25
TORSDOF 5
ENDMDL
MODEL 2
REMARK VINA RESULT:      -8.6      4.558      8.819
REMARK  5 active torsions:
REMARK  status: ('A' for Active; 'I' for Inactive)
REMARK    1  A    between atoms: C_2  and  C_3 
REMARK    2  A    between atoms: C_8  and  C_9 
REMARK       I    between atoms: C_9  and  N_10 
REMARK    3  A    between atoms: N_10  and  C_11 
REMARK    4  A    between atoms: C_11  and  C_12 
REMARK    5  A    between atoms: C_19  and  C_20 
ROOT
HETATM    1  C   UNL     1      23.198  46.889  48.412  1.00  0.00     0.118 C 
HETATM    2  N   UNL     1      24.133  47.087  49.514  1.00  0.00    -0.366 N 
HETATM    3  C   UNL     1      24.345  46.135  50.449  1.00  0.00     0.123 A 
HETATM    4  N   UNL     1      23.781  44.890  50.348  1.00  0.00    -0.240 N 
HETATM    5  N   UNL     1      24.037  44.099  51.403  1.00  0.00    -0.165 NA
HETATM    6  C   UNL     1      24.875  44.835  52.167  1.00  0.00     0.148 A 
HETATM    7  C   UNL     1      25.073  46.127  51.610  1.00  0.00     0.088 A 
HETATM    8  C   UNL     1      22.868  44.505  49.288  1.00  0.00     0.221 C 
HETATM    9  C   UNL     1      23.093  45.400  48.053  1.00  0.00     0.066 C 
HETATM   10  H   UNL     1      24.439  48.047  49.668  1.00  0.00     0.161 HD
ENDROOT
BRANCH   6  11
HETATM   11  C   UNL     1      25.478  44.306  53.401  1.00  0.00     0.272 C 
HETATM   12  N   UNL     1      26.787  43.913  53.244  1.00  0.00    -0.353 N 
HETATM   13  H   UNL     1      27.132  43.894  52.287  1.00  0.00     0.162 HD
HETATM   14  O   UNL     1      24.871  44.237  54.467  1.00  0.00    -0.266 OA
BRANCH  12  15
HETATM   15  C   UNL     1      27.579  43.337  54.308  1.00  0.00     0.155 C 
BRANCH  15  16
HETATM   16  C   UNL     1      28.931  44.032  54.479  1.00  0.00     0.139 C 
HETATM   17  O   UNL     1      28.822  45.139  55.398  1.00  0.00    -0.384 OA
HETATM   18  C   UNL     1      30.039  45.222  56.154  1.00  0.00     0.168 C 
HETATM   19  C   UNL     1      30.951  44.112  55.673  1.00  0.00     0.029 C 
HETATM   20  C   UNL     1      29.983  43.118  55.084  1.00  0.00     0.035 C 
ENDBRANCH  15  16
ENDBRANCH  12  15
ENDBRANCH   6  11
BRANCH   8  21
HETATM   21  C   UNL     1      23.029  43.052  48.894  1.00  0.00     0.409 C 
HETATM   22  F   UNL     1      22.550  42.188  49.813  1.00  0.00    -0.169 F 
HETATM   23  F   UNL     1      22.329  42.811  47.752  1.00  0.00    -0.169 F 
HETATM   24  F   UNL     1      24.314  42.726  48.630  1.00  0.00    -0.169 F 
ENDBRANCH   8  21
BRANCH   1  25
HETATM   25  C   UNL     1      21.848  47.541  48.670  1.00  0.00    -0.034 A 
HETATM   26  C   UNL     1      20.626  46.886  48.453  1.00  0.00     0.011 A 
HETATM   27  C   UNL     1      19.411  47.530  48.712  1.00  0.00     0.026 A 
HETATM   28  C   UNL     1      19.393  48.842  49.188  1.00  0.00     0.055 A 
HETATM   29  C   UNL     1      20.598  49.514  49.401  1.00  0.00     0.056 A 
HETATM   30 CL   UNL     1      17.856  49.568  49.493  1.00  0.00    -0.083 Cl
HETATM   31  C   UNL     1      21.813  48.867  49.141  1.00  0.00     0.034 A 
HETATM   32 CL   UNL     1      20.664  51.138  49.987  1.00  0.00    -0.083 Cl
ENDBRANCH   1  25
TORSDOF 5
ENDMDL
MODEL 3
REMARK VINA RESULT:      -8.5      6.764     10.934
REMARK  5 active torsions:
REMARK  status: ('A' for Active; 'I' for Inactive)
REMARK    1  A    between atoms: C_2  and  C_3 
REMARK    2  A    between atoms: C_8  and  C_9 
REMARK       I    between atoms: C_9  and  N_10 
REMARK    3  A    between atoms: N_10  and  C_11 
REMARK    4  A    between atoms: C_11  and  C_12 
REMARK    5  A    between atoms: C_19  and  C_20 
ROOT
HETATM    1  C   UNL     1      17.639  48.368  49.211  1.00  0.00     0.118 C 
HETATM    2  N   UNL     1      18.951  47.733  49.223  1.00  0.00    -0.366 N 
HETATM    3  C   UNL     1      20.079  48.421  48.938  1.00  0.00     0.123 A 
HETATM    4  N   UNL     1      20.063  49.775  48.736  1.00  0.00    -0.240 N 
HETATM    5  N   UNL     1      21.257  50.280  48.388  1.00  0.00    -0.165 NA
HETATM    6  C   UNL     1      22.093  49.220  48.461  1.00  0.00     0.148 A 
HETATM    7  C   UNL     1      21.384  48.031  48.782  1.00  0.00     0.088 A 
HETATM    8  C   UNL     1      18.850  50.574  48.741  1.00  0.00     0.221 C 
HETATM    9  C   UNL     1      17.756  49.859  49.557  1.00  0.00     0.066 C 
HETATM   10  H   UNL     1      18.951  46.713  49.232  1.00  0.00     0.161 HD
ENDROOT
BRANCH   6  11
HETATM   11  C   UNL     1      23.542  49.347  48.234  1.00  0.00     0.272 C 
HETATM   12  N   UNL     1      24.300  48.674  49.163  1.00  0.00    -0.353 N 
HETATM   13  H   UNL     1      23.794  48.300  49.963  1.00  0.00     0.162 HD
HETATM   14  O   UNL     1      24.020  49.981  47.297  1.00  0.00    -0.266 OA
BRANCH  12  15
HETATM   15  C   UNL     1      25.747  48.674  49.162  1.00  0.00     0.155 C 
BRANCH  15  16
HETATM   16  C   UNL     1      26.338  47.730  50.210  1.00  0.00     0.139 C 
HETATM   17  O   UNL     1      25.518  47.710  51.397  1.00  0.00    -0.384 OA
HETATM   18  C   UNL     1      25.537  46.380  51.938  1.00  0.00     0.168 C 
HETATM   19  C   UNL     1      26.421  45.536  51.041  1.00  0.00     0.029 C 
HETATM   20  C   UNL     1      26.384  46.289  49.736  1.00  0.00     0.035 C 
ENDBRANCH  15  16
ENDBRANCH  12  15
ENDBRANCH   6  11
BRANCH   8  21
HETATM   21  C   UNL     1      19.080  51.958  49.308  1.00  0.00     0.409 C 
HETATM   22  F   UNL     1      17.953  52.556  49.747  1.00  0.00    -0.169 F 
HETATM   23  F   UNL     1      19.905  51.875  50.388  1.00  0.00    -0.169 F 
HETATM   24  F   UNL     1      19.687  52.785  48.427  1.00  0.00    -0.169 F 
ENDBRANCH   8  21
BRANCH   1  25
HETATM   25  C   UNL     1      16.879  48.109  47.918  1.00  0.00    -0.034 A 
HETATM   26  C   UNL     1      15.637  48.695  47.628  1.00  0.00     0.011 A 
HETATM   27  C   UNL     1      14.982  48.427  46.421  1.00  0.00     0.026 A 
HETATM   28  C   UNL     1      15.553  47.566  45.482  1.00  0.00     0.055 A 
HETATM   29  C   UNL     1      16.784  46.966  45.756  1.00  0.00     0.056 A 
HETATM   30 CL   UNL     1      14.691  47.290  44.012  1.00  0.00    -0.083 Cl
HETATM   31  C   UNL     1      17.437  47.235  46.966  1.00  0.00     0.034 A 
HETATM   32 CL   UNL     1      17.557  45.888  44.651  1.00  0.00    -0.083 Cl
ENDBRANCH   1  25
TORSDOF 5
ENDMDL
MODEL 4
REMARK VINA RESULT:      -8.4      5.195      8.454
REMARK  5 active torsions:
REMARK  status: ('A' for Active; 'I' for Inactive)
REMARK    1  A    between atoms: C_2  and  C_3 
REMARK    2  A    between atoms: C_8  and  C_9 
REMARK       I    between atoms: C_9  and  N_10 
REMARK    3  A    between atoms: N_10  and  C_11 
REMARK    4  A    between atoms: C_11  and  C_12 
REMARK    5  A    between atoms: C_19  and  C_20 
ROOT
HETATM    1  C   UNL     1      24.707  45.391  51.505  1.00  0.00     0.118 C 
HETATM    2  N   UNL     1      24.882  44.114  50.823  1.00  0.00    -0.366 N 
HETATM    3  C   UNL     1      25.959  43.329  51.044  1.00  0.00     0.123 A 
HETATM    4  N   UNL     1      26.886  43.635  52.004  1.00  0.00    -0.240 N 
HETATM    5  N   UNL     1      27.928  42.788  52.034  1.00  0.00    -0.165 NA
HETATM    6  C   UNL     1      27.609  41.848  51.116  1.00  0.00     0.148 A 
HETATM    7  C   UNL     1      26.390  42.167  50.459  1.00  0.00     0.088 A 
HETATM    8  C   UNL     1      26.838  44.839  52.813  1.00  0.00     0.221 C 
HETATM    9  C   UNL     1      25.392  45.369  52.879  1.00  0.00     0.066 C 
HETATM   10  H   UNL     1      24.277  43.956  50.017  1.00  0.00     0.161 HD
ENDROOT
BRANCH   6  11
HETATM   11  C   UNL     1      28.454  40.665  50.880  1.00  0.00     0.272 C 
HETATM   12  N   UNL     1      28.620  40.372  49.546  1.00  0.00    -0.353 N 
HETATM   13  H   UNL     1      28.037  40.898  48.900  1.00  0.00     0.162 HD
HETATM   14  O   UNL     1      28.968  40.018  51.787  1.00  0.00    -0.266 OA
BRANCH  12  15
HETATM   15  C   UNL     1      29.386  39.242  49.069  1.00  0.00     0.155 C 
BRANCH  15  16
HETATM   16  C   UNL     1      28.504  38.057  48.670  1.00  0.00     0.139 C 
HETATM   17  O   UNL     1      28.084  37.320  49.836  1.00  0.00    -0.384 OA
HETATM   18  C   UNL     1      26.749  36.841  49.613  1.00  0.00     0.168 C 
HETATM   19  C   UNL     1      26.325  37.302  48.233  1.00  0.00     0.029 C 
HETATM   20  C   UNL     1      27.217  38.493  47.991  1.00  0.00     0.035 C 
ENDBRANCH  15  16
ENDBRANCH  12  15
ENDBRANCH   6  11
BRANCH   8  21
HETATM   21  C   UNL     1      27.355  44.607  54.217  1.00  0.00     0.409 C 
HETATM   22  F   UNL     1      26.973  43.425  54.744  1.00  0.00    -0.169 F 
HETATM   23  F   UNL     1      28.716  44.589  54.201  1.00  0.00    -0.169 F 
HETATM   24  F   UNL     1      26.996  45.592  55.071  1.00  0.00    -0.169 F 
ENDBRANCH   8  21
BRANCH   1  25
HETATM   25  C   UNL     1      25.127  46.573  50.644  1.00  0.00    -0.034 A 
HETATM   26  C   UNL     1      26.468  46.937  50.442  1.00  0.00     0.011 A 
HETATM   27  C   UNL     1      26.801  48.031  49.636  1.00  0.00     0.026 A 
HETATM   28  C   UNL     1      25.801  48.785  49.019  1.00  0.00     0.055 A 
HETATM   29  C   UNL     1      24.461  48.444  49.214  1.00  0.00     0.056 A 
HETATM   30 CL   UNL     1      26.288  50.115  48.031  1.00  0.00    -0.083 Cl
HETATM   31  C   UNL     1      24.131  47.349  50.023  1.00  0.00     0.034 A 
HETATM   32 CL   UNL     1      23.164  49.326  48.489  1.00  0.00    -0.083 Cl
ENDBRANCH   1  25
TORSDOF 5
ENDMDL
MODEL 5
REMARK VINA RESULT:      -8.2     11.852     14.198
REMARK  5 active torsions:
REMARK  status: ('A' for Active; 'I' for Inactive)
REMARK    1  A    between atoms: C_2  and  C_3 
REMARK    2  A    between atoms: C_8  and  C_9 
REMARK       I    between atoms: C_9  and  N_10 
REMARK    3  A    between atoms: N_10  and  C_11 
REMARK    4  A    between atoms: C_11  and  C_12 
REMARK    5  A    between atoms: C_19  and  C_20 
ROOT
HETATM    1  C   UNL     1      28.313  48.750  41.709  1.00  0.00     0.118 C 
HETATM    2  N   UNL     1      29.560  48.523  42.430  1.00  0.00    -0.366 N 
HETATM    3  C   UNL     1      30.579  49.409  42.388  1.00  0.00     0.123 A 
HETATM    4  N   UNL     1      30.454  50.620  41.760  1.00  0.00    -0.240 N 
HETATM    5  N   UNL     1      31.588  51.339  41.750  1.00  0.00    -0.165 NA
HETATM    6  C   UNL     1      32.450  50.598  42.483  1.00  0.00     0.148 A 
HETATM    7  C   UNL     1      31.857  49.369  42.881  1.00  0.00     0.088 A 
HETATM    8  C   UNL     1      29.264  51.031  41.038  1.00  0.00     0.221 C 
HETATM    9  C   UNL     1      28.039  50.254  41.560  1.00  0.00     0.066 C 
HETATM   10  H   UNL     1      29.706  47.574  42.774  1.00  0.00     0.161 HD
ENDROOT
BRANCH   6  11
HETATM   11  C   UNL     1      33.811  51.063  42.798  1.00  0.00     0.272 C 
HETATM   12  N   UNL     1      34.794  50.342  42.161  1.00  0.00    -0.353 N 
HETATM   13  H   UNL     1      34.486  49.501  41.678  1.00  0.00     0.162 HD
HETATM   14  O   UNL     1      34.038  52.011  43.544  1.00  0.00    -0.266 OA
BRANCH  12  15
HETATM   15  C   UNL     1      36.207  50.597  42.335  1.00  0.00     0.155 C 
BRANCH  15  16
HETATM   16  C   UNL     1      36.773  51.537  41.270  1.00  0.00     0.139 C 
HETATM   17  O   UNL     1      35.882  51.618  40.138  1.00  0.00    -0.384 OA
HETATM   18  C   UNL     1      35.926  52.957  39.623  1.00  0.00     0.168 C 
HETATM   19  C   UNL     1      36.900  53.743  40.477  1.00  0.00     0.029 C 
HETATM   20  C   UNL     1      36.913  52.964  41.768  1.00  0.00     0.035 C 
ENDBRANCH  15  16
ENDBRANCH  12  15
ENDBRANCH   6  11
BRANCH   8  21
HETATM   21  C   UNL     1      29.007  52.518  41.159  1.00  0.00     0.409 C 
HETATM   22  F   UNL     1      29.599  53.248  40.192  1.00  0.00    -0.169 F 
HETATM   23  F   UNL     1      27.671  52.758  41.046  1.00  0.00    -0.169 F 
HETATM   24  F   UNL     1      29.383  53.013  42.360  1.00  0.00    -0.169 F 
ENDBRANCH   8  21
BRANCH   1  25
HETATM   25  C   UNL     1      28.259  47.997  40.388  1.00  0.00    -0.034 A 
HETATM   26  C   UNL     1      29.062  46.879  40.110  1.00  0.00     0.011 A 
HETATM   27  C   UNL     1      28.970  46.219  38.880  1.00  0.00     0.026 A 
HETATM   28  C   UNL     1      28.079  46.664  37.903  1.00  0.00     0.055 A 
HETATM   29  C   UNL     1      27.278  47.780  38.157  1.00  0.00     0.056 A 
HETATM   30 CL   UNL     1      28.015  45.794  36.413  1.00  0.00    -0.083 Cl
HETATM   31  C   UNL     1      27.373  48.440  39.389  1.00  0.00     0.034 A 
HETATM   32 CL   UNL     1      26.151  48.396  37.002  1.00  0.00    -0.083 Cl
ENDBRANCH   1  25
TORSDOF 5
ENDMDL
MODEL 6
REMARK VINA RESULT:      -8.1     12.108     14.278
REMARK  5 active torsions:
REMARK  status: ('A' for Active; 'I' for Inactive)
REMARK    1  A    between atoms: C_2  and  C_3 
REMARK    2  A    between atoms: C_8  and  C_9 
REMARK       I    between atoms: C_9  and  N_10 
REMARK    3  A    between atoms: N_10  and  C_11 
REMARK    4  A    between atoms: C_11  and  C_12 
REMARK    5  A    between atoms: C_19  and  C_20 
ROOT
HETATM    1  C   UNL     1      29.193  48.681  41.789  1.00  0.00     0.118 C 
HETATM    2  N   UNL     1      30.580  48.575  42.225  1.00  0.00    -0.366 N 
HETATM    3  C   UNL     1      31.469  49.573  42.026  1.00  0.00     0.123 A 
HETATM    4  N   UNL     1      31.087  50.783  41.510  1.00  0.00    -0.240 N 
HETATM    5  N   UNL     1      32.112  51.627  41.309  1.00  0.00    -0.165 NA
HETATM    6  C   UNL     1      33.181  50.965  41.804  1.00  0.00     0.148 A 
HETATM    7  C   UNL     1      32.819  49.664  42.243  1.00  0.00     0.088 A 
HETATM    8  C   UNL     1      29.735  51.078  41.072  1.00  0.00     0.221 C 
HETATM    9  C   UNL     1      28.737  50.147  41.788  1.00  0.00     0.066 C 
HETATM   10  H   UNL     1      30.896  47.637  42.476  1.00  0.00     0.161 HD
ENDROOT
BRANCH   6  11
HETATM   11  C   UNL     1      34.521  51.573  41.860  1.00  0.00     0.272 C 
HETATM   12  N   UNL     1      35.291  51.100  42.898  1.00  0.00    -0.353 N 
HETATM   13  H   UNL     1      34.810  50.514  43.576  1.00  0.00     0.162 HD
HETATM   14  O   UNL     1      34.912  52.408  41.050  1.00  0.00    -0.266 OA
BRANCH  12  15
HETATM   15  C   UNL     1      36.632  51.568  43.172  1.00  0.00     0.155 C 
BRANCH  15  16
HETATM   16  C   UNL     1      36.678  52.600  44.299  1.00  0.00     0.139 C 
HETATM   17  O   UNL     1      37.517  52.138  45.378  1.00  0.00    -0.384 OA
HETATM   18  C   UNL     1      38.198  53.270  45.940  1.00  0.00     0.168 C 
HETATM   19  C   UNL     1      37.753  54.498  45.170  1.00  0.00     0.029 C 
HETATM   20  C   UNL     1      37.292  53.918  43.858  1.00  0.00     0.035 C 
ENDBRANCH  15  16
ENDBRANCH  12  15
ENDBRANCH   6  11
BRANCH   8  21
HETATM   21  C   UNL     1      29.354  52.521  41.330  1.00  0.00     0.409 C 
HETATM   22  F   UNL     1      29.799  53.374  40.385  1.00  0.00    -0.169 F 
HETATM   23  F   UNL     1      27.997  52.638  41.332  1.00  0.00    -0.169 F 
HETATM   24  F   UNL     1      29.777  52.961  42.536  1.00  0.00    -0.169 F 
ENDBRANCH   8  21
BRANCH   1  25
HETATM   25  C   UNL     1      28.943  47.973  40.466  1.00  0.00    -0.034 A 
HETATM   26  C   UNL     1      29.902  47.165  39.835  1.00  0.00     0.011 A 
HETATM   27  C   UNL     1      29.619  46.532  38.620  1.00  0.00     0.026 A 
HETATM   28  C   UNL     1      28.375  46.698  38.009  1.00  0.00     0.055 A 
HETATM   29  C   UNL     1      27.411  47.505  38.616  1.00  0.00     0.056 A 
HETATM   30 CL   UNL     1      28.095  45.879  36.515  1.00  0.00    -0.083 Cl
HETATM   31  C   UNL     1      27.697  48.138  39.832  1.00  0.00     0.034 A 
HETATM   32 CL   UNL     1      25.848  47.763  37.926  1.00  0.00    -0.083 Cl
ENDBRANCH   1  25
TORSDOF 5
ENDMDL
MODEL 7
REMARK VINA RESULT:      -8.1      5.365      8.369
REMARK  5 active torsions:
REMARK  status: ('A' for Active; 'I' for Inactive)
REMARK    1  A    between atoms: C_2  and  C_3 
REMARK    2  A    between atoms: C_8  and  C_9 
REMARK       I    between atoms: C_9  and  N_10 
REMARK    3  A    between atoms: N_10  and  C_11 
REMARK    4  A    between atoms: C_11  and  C_12 
REMARK    5  A    between atoms: C_19  and  C_20 
ROOT
HETATM    1  C   UNL     1      25.411  44.141  52.542  1.00  0.00     0.118 C 
HETATM    2  N   UNL     1      25.213  42.894  51.813  1.00  0.00    -0.366 N 
HETATM    3  C   UNL     1      26.252  42.126  51.418  1.00  0.00     0.123 A 
HETATM    4  N   UNL     1      27.540  42.417  51.781  1.00  0.00    -0.240 N 
HETATM    5  N   UNL     1      28.450  41.592  51.238  1.00  0.00    -0.165 NA
HETATM    6  C   UNL     1      27.707  40.680  50.573  1.00  0.00     0.148 A 
HETATM    7  C   UNL     1      26.323  40.995  50.646  1.00  0.00     0.088 A 
HETATM    8  C   UNL     1      27.911  43.590  52.551  1.00  0.00     0.221 C 
HETATM    9  C   UNL     1      26.703  44.084  53.370  1.00  0.00     0.066 C 
HETATM   10  H   UNL     1      24.281  42.751  51.423  1.00  0.00     0.161 HD
ENDROOT
BRANCH   6  11
HETATM   11  C   UNL     1      28.312  39.525  49.888  1.00  0.00     0.272 C 
HETATM   12  N   UNL     1      27.857  39.356  48.601  1.00  0.00    -0.353 N 
HETATM   13  H   UNL     1      27.069  39.938  48.329  1.00  0.00     0.162 HD
HETATM   14  O   UNL     1      29.151  38.799  50.414  1.00  0.00    -0.266 OA
BRANCH  12  15
HETATM   15  C   UNL     1      28.288  38.275  47.741  1.00  0.00     0.155 C 
BRANCH  15  16
HETATM   16  C   UNL     1      27.812  38.446  46.297  1.00  0.00     0.139 C 
HETATM   17  O   UNL     1      27.940  39.820  45.878  1.00  0.00    -0.384 OA
HETATM   18  C   UNL     1      28.304  39.838  44.490  1.00  0.00     0.168 C 
HETATM   19  C   UNL     1      28.402  38.399  44.025  1.00  0.00     0.029 C 
HETATM   20  C   UNL     1      28.649  37.651  45.310  1.00  0.00     0.035 C 
ENDBRANCH  15  16
ENDBRANCH  12  15
ENDBRANCH   6  11
BRANCH   8  21
HETATM   21  C   UNL     1      29.074  43.318  53.482  1.00  0.00     0.409 C 
HETATM   22  F   UNL     1      28.975  42.146  54.141  1.00  0.00    -0.169 F 
HETATM   23  F   UNL     1      30.226  43.247  52.760  1.00  0.00    -0.169 F 
HETATM   24  F   UNL     1      29.253  44.305  54.389  1.00  0.00    -0.169 F 
ENDBRANCH   8  21
BRANCH   1  25
HETATM   25  C   UNL     1      25.330  45.363  51.638  1.00  0.00    -0.034 A 
HETATM   26  C   UNL     1      26.189  46.466  51.762  1.00  0.00     0.011 A 
HETATM   27  C   UNL     1      26.076  47.563  50.901  1.00  0.00     0.026 A 
HETATM   28  C   UNL     1      25.100  47.581  49.903  1.00  0.00     0.055 A 
HETATM   29  C   UNL     1      24.231  46.497  49.769  1.00  0.00     0.056 A 
HETATM   30 CL   UNL     1      25.026  48.965  48.872  1.00  0.00    -0.083 Cl
HETATM   31  C   UNL     1      24.346  45.400  50.633  1.00  0.00     0.034 A 
HETATM   32 CL   UNL     1      22.996  46.440  48.562  1.00  0.00    -0.083 Cl
ENDBRANCH   1  25
TORSDOF 5
ENDMDL
MODEL 8
REMARK VINA RESULT:      -8.0      7.137     11.926
REMARK  5 active torsions:
REMARK  status: ('A' for Active; 'I' for Inactive)
REMARK    1  A    between atoms: C_2  and  C_3 
REMARK    2  A    between atoms: C_8  and  C_9 
REMARK       I    between atoms: C_9  and  N_10 
REMARK    3  A    between atoms: N_10  and  C_11 
REMARK    4  A    between atoms: C_11  and  C_12 
REMARK    5  A    between atoms: C_19  and  C_20 
ROOT
HETATM    1  C   UNL     1      17.479  49.527  46.459  1.00  0.00     0.118 C 
HETATM    2  N   UNL     1      18.707  48.745  46.543  1.00  0.00    -0.366 N 
HETATM    3  C   UNL     1      19.693  49.055  47.413  1.00  0.00     0.123 A 
HETATM    4  N   UNL     1      19.544  50.050  48.343  1.00  0.00    -0.240 N 
HETATM    5  N   UNL     1      20.649  50.273  49.073  1.00  0.00    -0.165 NA
HETATM    6  C   UNL     1      21.511  49.318  48.656  1.00  0.00     0.148 A 
HETATM    7  C   UNL     1      20.953  48.550  47.600  1.00  0.00     0.088 A 
HETATM    8  C   UNL     1      18.365  50.893  48.436  1.00  0.00     0.221 C 
HETATM    9  C   UNL     1      17.154  50.170  47.815  1.00  0.00     0.066 C 
HETATM   10  H   UNL     1      18.878  48.104  45.768  1.00  0.00     0.161 HD
ENDROOT
BRANCH   6  11
HETATM   11  C   UNL     1      22.841  49.145  49.265  1.00  0.00     0.272 C 
HETATM   12  N   UNL     1      23.126  47.838  49.587  1.00  0.00    -0.353 N 
HETATM   13  H   UNL     1      22.352  47.183  49.509  1.00  0.00     0.162 HD
HETATM   14  O   UNL     1      23.619  50.076  49.450  1.00  0.00    -0.266 OA
BRANCH  12  15
HETATM   15  C   UNL     1      24.360  47.426  50.219  1.00  0.00     0.155 C 
BRANCH  15  16
HETATM   16  C   UNL     1      24.717  45.968  49.921  1.00  0.00     0.139 C 
HETATM   17  O   UNL     1      26.023  45.878  49.315  1.00  0.00    -0.384 OA
HETATM   18  C   UNL     1      26.658  44.679  49.785  1.00  0.00     0.168 C 
HETATM   19  C   UNL     1      25.691  43.990  50.726  1.00  0.00     0.029 C 
HETATM   20  C   UNL     1      24.804  45.121  51.178  1.00  0.00     0.035 C 
ENDBRANCH  15  16
ENDBRANCH  12  15
ENDBRANCH   6  11
BRANCH   8  21
HETATM   21  C   UNL     1      18.047  51.275  49.865  1.00  0.00     0.409 C 
HETATM   22  F   UNL     1      18.745  52.342  50.307  1.00  0.00    -0.169 F 
HETATM   23  F   UNL     1      16.733  51.621  49.961  1.00  0.00    -0.169 F 
HETATM   24  F   UNL     1      18.236  50.253  50.730  1.00  0.00    -0.169 F 
ENDBRANCH   8  21
BRANCH   1  25
HETATM   25  C   UNL     1      17.503  50.526  45.311  1.00  0.00    -0.034 A 
HETATM   26  C   UNL     1      16.726  51.695  45.296  1.00  0.00     0.011 A 
HETATM   27  C   UNL     1      16.789  52.584  44.217  1.00  0.00     0.026 A 
HETATM   28  C   UNL     1      17.626  52.321  43.132  1.00  0.00     0.055 A 
HETATM   29  C   UNL     1      18.400  51.159  43.124  1.00  0.00     0.056 A 
HETATM   30 CL   UNL     1      17.658  53.467  41.841  1.00  0.00    -0.083 Cl
HETATM   31  C   UNL     1      18.334  50.270  44.205  1.00  0.00     0.034 A 
HETATM   32 CL   UNL     1      19.459  50.757  41.820  1.00  0.00    -0.083 Cl
ENDBRANCH   1  25
TORSDOF 5
ENDMDL
MODEL 9
REMARK VINA RESULT:      -8.0      7.861     10.635
REMARK  5 active torsions:
REMARK  status: ('A' for Active; 'I' for Inactive)
REMARK    1  A    between atoms: C_2  and  C_3 
REMARK    2  A    between atoms: C_8  and  C_9 
REMARK       I    between atoms: C_9  and  N_10 
REMARK    3  A    between atoms: N_10  and  C_11 
REMARK    4  A    between atoms: C_11  and  C_12 
REMARK    5  A    between atoms: C_19  and  C_20 
ROOT
HETATM    1  C   UNL     1      19.714  49.881  50.414  1.00  0.00     0.118 C 
HETATM    2  N   UNL     1      19.689  48.468  50.054  1.00  0.00    -0.366 N 
HETATM    3  C   UNL     1      20.482  47.966  49.082  1.00  0.00     0.123 A 
HETATM    4  N   UNL     1      21.434  48.732  48.464  1.00  0.00    -0.240 N 
HETATM    5  N   UNL     1      22.076  48.093  47.472  1.00  0.00    -0.165 NA
HETATM    6  C   UNL     1      21.579  46.836  47.520  1.00  0.00     0.148 A 
HETATM    7  C   UNL     1      20.561  46.726  48.504  1.00  0.00     0.088 A 
HETATM    8  C   UNL     1      21.631  50.144  48.738  1.00  0.00     0.221 C 
HETATM    9  C   UNL     1      21.099  50.484  50.144  1.00  0.00     0.066 C 
HETATM   10  H   UNL     1      18.894  47.934  50.407  1.00  0.00     0.161 HD
ENDROOT
BRANCH   6  11
HETATM   11  C   UNL     1      22.077  45.764  46.642  1.00  0.00     0.272 C 
HETATM   12  N   UNL     1      22.551  44.672  47.332  1.00  0.00    -0.353 N 
HETATM   13  H   UNL     1      22.639  44.787  48.339  1.00  0.00     0.162 HD
HETATM   14  O   UNL     1      22.056  45.837  45.417  1.00  0.00    -0.266 OA
BRANCH  12  15
HETATM   15  C   UNL     1      23.115  43.506  46.687  1.00  0.00     0.155 C 
BRANCH  15  16
HETATM   16  C   UNL     1      22.270  42.249  46.899  1.00  0.00     0.139 C 
HETATM   17  O   UNL     1      20.915  42.465  46.456  1.00  0.00    -0.384 OA
HETATM   18  C   UNL     1      20.423  41.241  45.889  1.00  0.00     0.168 C 
HETATM   19  C   UNL     1      21.532  40.213  45.992  1.00  0.00     0.029 C 
HETATM   20  C   UNL     1      22.770  41.068  46.085  1.00  0.00     0.035 C 
ENDBRANCH  15  16
ENDBRANCH  12  15
ENDBRANCH   6  11
BRANCH   8  21
HETATM   21  C   UNL     1      23.087  50.547  48.638  1.00  0.00     0.409 C 
HETATM   22  F   UNL     1      23.484  50.825  47.378  1.00  0.00    -0.169 F 
HETATM   23  F   UNL     1      23.292  51.686  49.356  1.00  0.00    -0.169 F 
HETATM   24  F   UNL     1      23.920  49.616  49.153  1.00  0.00    -0.169 F 
ENDBRANCH   8  21
BRANCH   1  25
HETATM   25  C   UNL     1      18.581  50.666  49.769  1.00  0.00    -0.034 A 
HETATM   26  C   UNL     1      18.470  52.062  49.856  1.00  0.00     0.011 A 
HETATM   27  C   UNL     1      17.410  52.737  49.239  1.00  0.00     0.026 A 
HETATM   28  C   UNL     1      16.440  52.030  48.528  1.00  0.00     0.055 A 
HETATM   29  C   UNL     1      16.528  50.639  48.437  1.00  0.00     0.056 A 
HETATM   30 CL   UNL     1      15.167  52.930  47.786  1.00  0.00    -0.083 Cl
HETATM   31  C   UNL     1      17.589  49.966  49.057  1.00  0.00     0.034 A 
HETATM   32 CL   UNL     1      15.369  49.689  47.578  1.00  0.00    -0.083 Cl
ENDBRANCH   1  25
TORSDOF 5
ENDMDL
MODEL 10
REMARK VINA RESULT:      -8.0     12.542     14.946
REMARK  5 active torsions:
REMARK  status: ('A' for Active; 'I' for Inactive)
REMARK    1  A    between atoms: C_2  and  C_3 
REMARK    2  A    between atoms: C_8  and  C_9 
REMARK       I    between atoms: C_9  and  N_10 
REMARK    3  A    between atoms: N_10  and  C_11 
REMARK    4  A    between atoms: C_11  and  C_12 
REMARK    5  A    between atoms: C_19  and  C_20 
ROOT
HETATM    1  C   UNL     1      30.705  49.762  42.213  1.00  0.00     0.118 C 
HETATM    2  N   UNL     1      32.155  49.899  42.155  1.00  0.00    -0.366 N 
HETATM    3  C   UNL     1      32.755  50.795  41.340  1.00  0.00     0.123 A 
HETATM    4  N   UNL     1      32.031  51.701  40.611  1.00  0.00    -0.240 N 
HETATM    5  N   UNL     1      32.784  52.461  39.800  1.00  0.00    -0.165 NA
HETATM    6  C   UNL     1      34.052  52.089  40.090  1.00  0.00     0.148 A 
HETATM    7  C   UNL     1      34.070  51.030  41.037  1.00  0.00     0.088 A 
HETATM    8  C   UNL     1      30.580  51.740  40.592  1.00  0.00     0.221 C 
HETATM    9  C   UNL     1      30.021  51.095  41.875  1.00  0.00     0.066 C 
HETATM   10  H   UNL     1      32.689  49.142  42.582  1.00  0.00     0.161 HD
ENDROOT
BRANCH   6  11
HETATM   11  C   UNL     1      35.219  52.743  39.475  1.00  0.00     0.272 C 
HETATM   12  N   UNL     1      35.465  54.001  39.975  1.00  0.00    -0.353 N 
HETATM   13  H   UNL     1      34.747  54.384  40.585  1.00  0.00     0.162 HD
HETATM   14  O   UNL     1      35.909  52.207  38.613  1.00  0.00    -0.266 OA
BRANCH  12  15
HETATM   15  C   UNL     1      36.541  54.847  39.508  1.00  0.00     0.155 C 
BRANCH  15  16
HETATM   16  C   UNL     1      36.175  56.332  39.529  1.00  0.00     0.139 C 
HETATM   17  O   UNL     1      36.821  57.030  38.444  1.00  0.00    -0.384 OA
HETATM   18  C   UNL     1      35.932  58.052  37.970  1.00  0.00     0.168 C 
HETATM   19  C   UNL     1      34.672  57.986  38.810  1.00  0.00     0.029 C 
HETATM   20  C   UNL     1      34.689  56.568  39.323  1.00  0.00     0.035 C 
ENDBRANCH  15  16
ENDBRANCH  12  15
ENDBRANCH   6  11
BRANCH   8  21
HETATM   21  C   UNL     1      30.048  53.152  40.463  1.00  0.00     0.409 C 
HETATM   22  F   UNL     1      30.899  54.093  40.923  1.00  0.00    -0.169 F 
HETATM   23  F   UNL     1      29.843  53.441  39.149  1.00  0.00    -0.169 F 
HETATM   24  F   UNL     1      28.857  53.314  41.081  1.00  0.00    -0.169 F 
ENDBRANCH   8  21
BRANCH   1  25
HETATM   25  C   UNL     1      30.196  48.597  41.376  1.00  0.00    -0.034 A 
HETATM   26  C   UNL     1      31.007  47.889  40.476  1.00  0.00     0.011 A 
HETATM   27  C   UNL     1      30.491  46.822  39.733  1.00  0.00     0.026 A 
HETATM   28  C   UNL     1      29.155  46.444  39.872  1.00  0.00     0.055 A 
HETATM   29  C   UNL     1      28.330  47.142  40.756  1.00  0.00     0.056 A 
HETATM   30 CL   UNL     1      28.591  45.111  38.929  1.00  0.00    -0.083 Cl
HETATM   31  C   UNL     1      28.849  48.211  41.498  1.00  0.00     0.034 A 
HETATM   32 CL   UNL     1      26.665  46.740  40.986  1.00  0.00    -0.083 Cl
ENDBRANCH   1  25
TORSDOF 5
ENDMDL
