MODEL 1
REMARK VINA RESULT:      -9.3      0.000      0.000
REMARK  6 active torsions:
REMARK  status: ('A' for Active; 'I' for Inactive)
REMARK    1  A    between atoms: O_2  and  C_3 
REMARK    2  A    between atoms: C_6  and  C_7 
REMARK    3  A    between atoms: C_13  and  C_14 
REMARK       I    between atoms: C_14  and  N_15 
REMARK    4  A    between atoms: N_15  and  C_16 
REMARK    5  A    between atoms: C_18  and  O_19 
REMARK    6  A    between atoms: C_24  and  C_25 
ROOT
HETATM    1  C   UNL     1      24.211  45.025  51.240  1.00  0.00     0.118 C 
HETATM    2  N   UNL     1      25.145  44.487  52.249  1.00  0.00    -0.365 N 
HETATM    3  C   UNL     1      26.166  43.672  51.843  1.00  0.00     0.138 A 
HETATM    4  N   UNL     1      26.215  43.182  50.556  1.00  0.00    -0.240 N 
HETATM    5  N   UNL     1      27.309  42.455  50.297  1.00  0.00    -0.181 NA
HETATM    6  C   UNL     1      27.931  42.402  51.477  1.00  0.00     0.160 A 
HETATM    7  C   UNL     1      27.270  43.144  52.488  1.00  0.00     0.096 A 
HETATM    8  C   UNL     1      25.195  43.416  49.550  1.00  0.00     0.221 C 
HETATM    9  C   UNL     1      23.901  43.908  50.231  1.00  0.00     0.066 C 
HETATM   10  H   UNL     1      24.666  44.235  53.118  1.00  0.00     0.161 HD
ENDROOT
BRANCH   7  11
HETATM   11  C   UNL     1      27.719  43.290  53.865  1.00  0.00     0.261 C 
HETATM   12  N   UNL     1      29.032  43.704  53.984  1.00  0.00    -0.323 N 
HETATM   13  H   UNL     1      29.551  43.750  53.114  1.00  0.00     0.169 HD
HETATM   14  O   UNL     1      26.956  43.048  54.793  1.00  0.00    -0.267 OA
BRANCH  12  15
HETATM   15  C   UNL     1      29.726  44.049  55.161  1.00  0.00     0.037 A 
HETATM   16  C   UNL     1      30.709  43.247  55.750  1.00  0.00     0.066 A 
HETATM   17  C   UNL     1      31.325  43.658  56.931  1.00  0.00     0.067 A 
HETATM   18  C   UNL     1      30.976  44.853  57.544  1.00  0.00     0.036 A 
HETATM   19  C   UNL     1      30.001  45.659  56.965  1.00  0.00     0.005 A 
HETATM   20  C   UNL     1      29.381  45.261  55.777  1.00  0.00     0.029 A 
BRANCH  17  21
HETATM   21  O   UNL     1      32.291  42.898  57.526  1.00  0.00    -0.361 OA
HETATM   22  H   UNL     1      32.873  42.542  56.832  1.00  0.00     0.217 HD
ENDBRANCH  17  21
ENDBRANCH  12  15
ENDBRANCH   7  11
BRANCH   1  23
HETATM   23  C   UNL     1      24.721  46.301  50.573  1.00  0.00    -0.035 A 
HETATM   24  C   UNL     1      26.034  46.771  50.731  1.00  0.00     0.012 A 
HETATM   25  C   UNL     1      26.480  47.906  50.048  1.00  0.00     0.037 A 
HETATM   26  C   UNL     1      25.630  48.597  49.186  1.00  0.00     0.068 A 
HETATM   27  C   UNL     1      24.306  48.186  49.064  1.00  0.00     0.037 A 
HETATM   28  C   UNL     1      23.855  47.055  49.757  1.00  0.00     0.012 A 
BRANCH  26  29
HETATM   29  O   UNL     1      26.186  49.668  48.546  1.00  0.00    -0.356 OA
HETATM   30  C   UNL     1      27.559  49.911  48.835  1.00  0.00     0.210 C 
ENDBRANCH  26  29
ENDBRANCH   1  23
BRANCH   8  31
HETATM   31  C   UNL     1      24.888  42.175  48.739  1.00  0.00     0.409 C 
HETATM   32  F   UNL     1      24.717  41.080  49.516  1.00  0.00    -0.169 F 
HETATM   33  F   UNL     1      23.712  42.354  48.072  1.00  0.00    -0.169 F 
HETATM   34  F   UNL     1      25.810  41.895  47.798  1.00  0.00    -0.169 F 
ENDBRANCH   8  31
TORSDOF 6
ENDMDL
MODEL 2
REMARK VINA RESULT:      -8.2      2.623      7.577
REMARK  6 active torsions:
REMARK  status: ('A' for Active; 'I' for Inactive)
REMARK    1  A    between atoms: O_2  and  C_3 
REMARK    2  A    between atoms: C_6  and  C_7 
REMARK    3  A    between atoms: C_13  and  C_14 
REMARK       I    between atoms: C_14  and  N_15 
REMARK    4  A    between atoms: N_15  and  C_16 
REMARK    5  A    between atoms: C_18  and  O_19 
REMARK    6  A    between atoms: C_24  and  C_25 
ROOT
HETATM    1  C   UNL     1      27.195  44.511  50.308  1.00  0.00     0.118 C 
HETATM    2  N   UNL     1      26.011  45.127  49.675  1.00  0.00    -0.365 N 
HETATM    3  C   UNL     1      24.815  44.467  49.718  1.00  0.00     0.138 A 
HETATM    4  N   UNL     1      24.738  43.161  50.151  1.00  0.00    -0.240 N 
HETATM    5  N   UNL     1      23.489  42.680  50.197  1.00  0.00    -0.181 NA
HETATM    6  C   UNL     1      22.757  43.675  49.690  1.00  0.00     0.160 A 
HETATM    7  C   UNL     1      23.523  44.823  49.371  1.00  0.00     0.096 A 
HETATM    8  C   UNL     1      25.884  42.356  50.535  1.00  0.00     0.221 C 
HETATM    9  C   UNL     1      27.175  43.006  49.997  1.00  0.00     0.066 C 
HETATM   10  H   UNL     1      26.250  45.602  48.800  1.00  0.00     0.161 HD
ENDROOT
BRANCH   7  11
HETATM   11  C   UNL     1      23.001  46.067  48.825  1.00  0.00     0.261 C 
HETATM   12  N   UNL     1      23.370  47.190  49.539  1.00  0.00    -0.323 N 
HETATM   13  H   UNL     1      23.861  47.007  50.408  1.00  0.00     0.169 HD
HETATM   14  O   UNL     1      22.299  46.055  47.821  1.00  0.00    -0.267 OA
BRANCH  12  15
HETATM   15  C   UNL     1      23.131  48.540  49.213  1.00  0.00     0.037 A 
HETATM   16  C   UNL     1      21.923  49.200  49.460  1.00  0.00     0.066 A 
HETATM   17  C   UNL     1      21.769  50.532  49.078  1.00  0.00     0.067 A 
HETATM   18  C   UNL     1      22.795  51.221  48.447  1.00  0.00     0.036 A 
HETATM   19  C   UNL     1      24.002  50.574  48.198  1.00  0.00     0.005 A 
HETATM   20  C   UNL     1      24.171  49.240  48.583  1.00  0.00     0.029 A 
BRANCH  17  21
HETATM   21  O   UNL     1      20.602  51.203  49.311  1.00  0.00    -0.361 OA
HETATM   22  H   UNL     1      19.975  50.985  48.600  1.00  0.00     0.217 HD
ENDBRANCH  17  21
ENDBRANCH  12  15
ENDBRANCH   7  11
BRANCH   1  23
HETATM   23  C   UNL     1      27.293  44.804  51.804  1.00  0.00    -0.035 A 
HETATM   24  C   UNL     1      28.140  44.091  52.666  1.00  0.00     0.012 A 
HETATM   25  C   UNL     1      28.251  44.436  54.016  1.00  0.00     0.037 A 
HETATM   26  C   UNL     1      27.524  45.504  54.539  1.00  0.00     0.068 A 
HETATM   27  C   UNL     1      26.630  46.184  53.716  1.00  0.00     0.037 A 
HETATM   28  C   UNL     1      26.511  45.832  52.366  1.00  0.00     0.012 A 
BRANCH  26  29
HETATM   29  O   UNL     1      27.740  45.771  55.861  1.00  0.00    -0.356 OA
HETATM   30  C   UNL     1      29.097  46.007  56.226  1.00  0.00     0.210 C 
ENDBRANCH  26  29
ENDBRANCH   1  23
BRANCH   8  31
HETATM   31  C   UNL     1      25.790  40.936  50.018  1.00  0.00     0.409 C 
HETATM   32  F   UNL     1      24.719  40.749  49.213  1.00  0.00    -0.169 F 
HETATM   33  F   UNL     1      26.889  40.662  49.258  1.00  0.00    -0.169 F 
HETATM   34  F   UNL     1      25.768  40.001  50.988  1.00  0.00    -0.169 F 
ENDBRANCH   8  31
TORSDOF 6
ENDMDL
MODEL 3
REMARK VINA RESULT:      -8.0      4.417      6.196
REMARK  6 active torsions:
REMARK  status: ('A' for Active; 'I' for Inactive)
REMARK    1  A    between atoms: O_2  and  C_3 
REMARK    2  A    between atoms: C_6  and  C_7 
REMARK    3  A    between atoms: C_13  and  C_14 
REMARK       I    between atoms: C_14  and  N_15 
REMARK    4  A    between atoms: N_15  and  C_16 
REMARK    5  A    between atoms: C_18  and  O_19 
REMARK    6  A    between atoms: C_24  and  C_25 
ROOT
HETATM    1  C   UNL     1      26.036  46.957  49.971  1.00  0.00     0.118 C 
HETATM    2  N   UNL     1      26.538  45.570  49.903  1.00  0.00    -0.365 N 
HETATM    3  C   UNL     1      26.350  44.742  50.974  1.00  0.00     0.138 A 
HETATM    4  N   UNL     1      25.894  45.231  52.180  1.00  0.00    -0.240 N 
HETATM    5  N   UNL     1      25.701  44.284  53.107  1.00  0.00    -0.181 NA
HETATM    6  C   UNL     1      26.132  43.172  52.508  1.00  0.00     0.160 A 
HETATM    7  C   UNL     1      26.551  43.386  51.171  1.00  0.00     0.096 A 
HETATM    8  C   UNL     1      25.634  46.633  52.450  1.00  0.00     0.221 C 
HETATM    9  C   UNL     1      26.324  47.502  51.379  1.00  0.00     0.066 C 
HETATM   10  H   UNL     1      27.440  45.513  49.423  1.00  0.00     0.161 HD
ENDROOT
BRANCH   7  11
HETATM   11  C   UNL     1      27.049  42.364  50.263  1.00  0.00     0.261 C 
HETATM   12  N   UNL     1      27.236  41.131  50.857  1.00  0.00    -0.323 N 
HETATM   13  H   UNL     1      27.111  41.114  51.864  1.00  0.00     0.169 HD
HETATM   14  O   UNL     1      27.268  42.635  49.088  1.00  0.00    -0.267 OA
BRANCH  12  15
HETATM   15  C   UNL     1      27.593  39.917  50.236  1.00  0.00     0.037 A 
HETATM   16  C   UNL     1      28.811  39.264  50.443  1.00  0.00     0.066 A 
HETATM   17  C   UNL     1      29.088  38.078  49.763  1.00  0.00     0.067 A 
HETATM   18  C   UNL     1      28.174  37.530  48.874  1.00  0.00     0.036 A 
HETATM   19  C   UNL     1      26.957  38.172  48.664  1.00  0.00     0.005 A 
HETATM   20  C   UNL     1      26.666  39.358  49.344  1.00  0.00     0.029 A 
BRANCH  17  21
HETATM   21  O   UNL     1      30.268  37.416  49.949  1.00  0.00    -0.361 OA
HETATM   22  H   UNL     1      30.684  37.751  50.762  1.00  0.00     0.217 HD
ENDBRANCH  17  21
ENDBRANCH  12  15
ENDBRANCH   7  11
BRANCH   1  23
HETATM   23  C   UNL     1      24.565  47.082  49.578  1.00  0.00    -0.035 A 
HETATM   24  C   UNL     1      23.879  48.306  49.574  1.00  0.00     0.012 A 
HETATM   25  C   UNL     1      22.551  48.386  49.143  1.00  0.00     0.037 A 
HETATM   26  C   UNL     1      21.878  47.249  48.700  1.00  0.00     0.068 A 
HETATM   27  C   UNL     1      22.519  46.015  48.757  1.00  0.00     0.037 A 
HETATM   28  C   UNL     1      23.845  45.932  49.199  1.00  0.00     0.012 A 
BRANCH  26  29
HETATM   29  O   UNL     1      20.598  47.455  48.269  1.00  0.00    -0.356 OA
HETATM   30  C   UNL     1      19.775  48.232  49.134  1.00  0.00     0.210 C 
ENDBRANCH  26  29
ENDBRANCH   1  23
BRANCH   8  31
HETATM   31  C   UNL     1      26.120  47.056  53.821  1.00  0.00     0.409 C 
HETATM   32  F   UNL     1      27.460  47.234  53.861  1.00  0.00    -0.169 F 
HETATM   33  F   UNL     1      25.567  48.260  54.140  1.00  0.00    -0.169 F 
HETATM   34  F   UNL     1      25.768  46.212  54.810  1.00  0.00    -0.169 F 
ENDBRANCH   8  31
TORSDOF 6
ENDMDL
MODEL 4
REMARK VINA RESULT:      -7.9     16.685     19.560
REMARK  6 active torsions:
REMARK  status: ('A' for Active; 'I' for Inactive)
REMARK    1  A    between atoms: O_2  and  C_3 
REMARK    2  A    between atoms: C_6  and  C_7 
REMARK    3  A    between atoms: C_13  and  C_14 
REMARK       I    between atoms: C_14  and  N_15 
REMARK    4  A    between atoms: N_15  and  C_16 
REMARK    5  A    between atoms: C_18  and  O_19 
REMARK    6  A    between atoms: C_24  and  C_25 
ROOT
HETATM    1  C   UNL     1      38.825  43.016  62.797  1.00  0.00     0.118 C 
HETATM    2  N   UNL     1      39.628  44.171  63.248  1.00  0.00    -0.365 N 
HETATM    3  C   UNL     1      39.467  44.635  64.524  1.00  0.00     0.138 A 
HETATM    4  N   UNL     1      38.434  44.186  65.319  1.00  0.00    -0.240 N 
HETATM    5  N   UNL     1      38.454  44.686  66.561  1.00  0.00    -0.181 NA
HETATM    6  C   UNL     1      39.472  45.549  66.531  1.00  0.00     0.160 A 
HETATM    7  C   UNL     1      40.150  45.566  65.287  1.00  0.00     0.096 A 
HETATM    8  C   UNL     1      37.409  43.255  64.883  1.00  0.00     0.221 C 
HETATM    9  C   UNL     1      37.398  43.184  63.343  1.00  0.00     0.066 C 
HETATM   10  H   UNL     1      39.740  44.870  62.509  1.00  0.00     0.161 HD
ENDROOT
BRANCH   7  11
HETATM   11  C   UNL     1      41.308  46.386  64.962  1.00  0.00     0.261 C 
HETATM   12  N   UNL     1      42.493  45.916  65.494  1.00  0.00    -0.323 N 
HETATM   13  H   UNL     1      42.400  45.130  66.128  1.00  0.00     0.169 HD
HETATM   14  O   UNL     1      41.178  47.394  64.278  1.00  0.00    -0.267 OA
BRANCH  12  15
HETATM   15  C   UNL     1      43.795  46.407  65.272  1.00  0.00     0.037 A 
HETATM   16  C   UNL     1      44.667  45.898  64.306  1.00  0.00     0.066 A 
HETATM   17  C   UNL     1      45.949  46.432  64.176  1.00  0.00     0.067 A 
HETATM   18  C   UNL     1      46.384  47.462  64.998  1.00  0.00     0.036 A 
HETATM   19  C   UNL     1      45.522  47.978  65.961  1.00  0.00     0.005 A 
HETATM   20  C   UNL     1      44.232  47.455  66.096  1.00  0.00     0.029 A 
BRANCH  17  21
HETATM   21  O   UNL     1      46.821  45.956  63.238  1.00  0.00    -0.361 OA
HETATM   22  H   UNL     1      46.663  45.003  63.127  1.00  0.00     0.217 HD
ENDBRANCH  17  21
ENDBRANCH  12  15
ENDBRANCH   7  11
BRANCH   1  23
HETATM   23  C   UNL     1      39.447  41.672  63.170  1.00  0.00    -0.035 A 
HETATM   24  C   UNL     1      40.338  41.517  64.243  1.00  0.00     0.012 A 
HETATM   25  C   UNL     1      40.832  40.257  64.593  1.00  0.00     0.037 A 
HETATM   26  C   UNL     1      40.445  39.120  63.886  1.00  0.00     0.068 A 
HETATM   27  C   UNL     1      39.612  39.260  62.779  1.00  0.00     0.037 A 
HETATM   28  C   UNL     1      39.126  40.523  62.422  1.00  0.00     0.012 A 
BRANCH  26  29
HETATM   29  O   UNL     1      40.962  37.940  64.341  1.00  0.00    -0.356 OA
HETATM   30  C   UNL     1      42.349  37.962  64.665  1.00  0.00     0.210 C 
ENDBRANCH  26  29
ENDBRANCH   1  23
BRANCH   8  31
HETATM   31  C   UNL     1      36.030  43.645  65.372  1.00  0.00     0.409 C 
HETATM   32  F   UNL     1      35.594  44.800  64.820  1.00  0.00    -0.169 F 
HETATM   33  F   UNL     1      35.135  42.685  65.003  1.00  0.00    -0.169 F 
HETATM   34  F   UNL     1      35.933  43.746  66.712  1.00  0.00    -0.169 F 
ENDBRANCH   8  31
TORSDOF 6
ENDMDL
MODEL 5
REMARK VINA RESULT:      -7.7      7.488     10.605
REMARK  6 active torsions:
REMARK  status: ('A' for Active; 'I' for Inactive)
REMARK    1  A    between atoms: O_2  and  C_3 
REMARK    2  A    between atoms: C_6  and  C_7 
REMARK    3  A    between atoms: C_13  and  C_14 
REMARK       I    between atoms: C_14  and  N_15 
REMARK    4  A    between atoms: N_15  and  C_16 
REMARK    5  A    between atoms: C_18  and  O_19 
REMARK    6  A    between atoms: C_24  and  C_25 
ROOT
HETATM    1  C   UNL     1      19.054  50.453  46.124  1.00  0.00     0.118 C 
HETATM    2  N   UNL     1      20.069  50.561  47.191  1.00  0.00    -0.365 N 
HETATM    3  C   UNL     1      19.668  50.520  48.497  1.00  0.00     0.138 A 
HETATM    4  N   UNL     1      18.333  50.590  48.834  1.00  0.00    -0.240 N 
HETATM    5  N   UNL     1      18.102  50.471  50.147  1.00  0.00    -0.181 NA
HETATM    6  C   UNL     1      19.327  50.416  50.674  1.00  0.00     0.160 A 
HETATM    7  C   UNL     1      20.354  50.441  49.697  1.00  0.00     0.096 A 
HETATM    8  C   UNL     1      17.255  50.771  47.879  1.00  0.00     0.221 C 
HETATM    9  C   UNL     1      17.830  51.284  46.543  1.00  0.00     0.066 C 
HETATM   10  H   UNL     1      20.806  51.230  46.951  1.00  0.00     0.161 HD
ENDROOT
BRANCH   7  11
HETATM   11  C   UNL     1      21.783  50.375  49.965  1.00  0.00     0.261 C 
HETATM   12  N   UNL     1      22.426  49.339  49.316  1.00  0.00    -0.323 N 
HETATM   13  H   UNL     1      21.817  48.692  48.825  1.00  0.00     0.169 HD
HETATM   14  O   UNL     1      22.310  51.190  50.712  1.00  0.00    -0.267 OA
BRANCH  12  15
HETATM   15  C   UNL     1      23.809  49.072  49.272  1.00  0.00     0.037 A 
HETATM   16  C   UNL     1      24.738  49.877  48.607  1.00  0.00     0.066 A 
HETATM   17  C   UNL     1      26.086  49.519  48.595  1.00  0.00     0.067 A 
HETATM   18  C   UNL     1      26.527  48.367  49.230  1.00  0.00     0.036 A 
HETATM   19  C   UNL     1      25.610  47.559  49.897  1.00  0.00     0.005 A 
HETATM   20  C   UNL     1      24.258  47.912  49.921  1.00  0.00     0.029 A 
BRANCH  17  21
HETATM   21  O   UNL     1      27.016  50.289  47.957  1.00  0.00    -0.361 OA
HETATM   22  H   UNL     1      26.550  50.965  47.436  1.00  0.00     0.217 HD
ENDBRANCH  17  21
ENDBRANCH  12  15
ENDBRANCH   7  11
BRANCH   1  23
HETATM   23  C   UNL     1      18.698  49.008  45.780  1.00  0.00    -0.035 A 
HETATM   24  C   UNL     1      17.667  48.668  44.891  1.00  0.00     0.012 A 
HETATM   25  C   UNL     1      17.419  47.334  44.551  1.00  0.00     0.037 A 
HETATM   26  C   UNL     1      18.196  46.308  45.086  1.00  0.00     0.068 A 
HETATM   27  C   UNL     1      19.181  46.619  46.019  1.00  0.00     0.037 A 
HETATM   28  C   UNL     1      19.423  47.953  46.368  1.00  0.00     0.012 A 
BRANCH  26  29
HETATM   29  O   UNL     1      17.885  45.050  44.655  1.00  0.00    -0.356 OA
HETATM   30  C   UNL     1      18.736  44.011  45.128  1.00  0.00     0.210 C 
ENDBRANCH  26  29
ENDBRANCH   1  23
BRANCH   8  31
HETATM   31  C   UNL     1      16.203  51.742  48.372  1.00  0.00     0.409 C 
HETATM   32  F   UNL     1      16.743  52.817  48.991  1.00  0.00    -0.169 F 
HETATM   33  F   UNL     1      15.505  52.227  47.306  1.00  0.00    -0.169 F 
HETATM   34  F   UNL     1      15.289  51.188  49.193  1.00  0.00    -0.169 F 
ENDBRANCH   8  31
TORSDOF 6
ENDMDL
MODEL 6
REMARK VINA RESULT:      -7.7      9.711     13.760
REMARK  6 active torsions:
REMARK  status: ('A' for Active; 'I' for Inactive)
REMARK    1  A    between atoms: O_2  and  C_3 
REMARK    2  A    between atoms: C_6  and  C_7 
REMARK    3  A    between atoms: C_13  and  C_14 
REMARK       I    between atoms: C_14  and  N_15 
REMARK    4  A    between atoms: N_15  and  C_16 
REMARK    5  A    between atoms: C_18  and  O_19 
REMARK    6  A    between atoms: C_24  and  C_25 
ROOT
HETATM    1  C   UNL     1      19.039  48.107  48.866  1.00  0.00     0.118 C 
HETATM    2  N   UNL     1      18.013  49.161  48.998  1.00  0.00    -0.365 N 
HETATM    3  C   UNL     1      18.360  50.461  48.758  1.00  0.00     0.138 A 
HETATM    4  N   UNL     1      19.680  50.827  48.603  1.00  0.00    -0.240 N 
HETATM    5  N   UNL     1      19.849  52.123  48.310  1.00  0.00    -0.181 NA
HETATM    6  C   UNL     1      18.610  52.618  48.370  1.00  0.00     0.160 A 
HETATM    7  C   UNL     1      17.630  51.632  48.645  1.00  0.00     0.096 A 
HETATM    8  C   UNL     1      20.804  49.918  48.734  1.00  0.00     0.221 C 
HETATM    9  C   UNL     1      20.350  48.639  49.466  1.00  0.00     0.066 C 
HETATM   10  H   UNL     1      17.383  48.984  49.785  1.00  0.00     0.161 HD
ENDROOT
BRANCH   7  11
HETATM   11  C   UNL     1      16.198  51.865  48.750  1.00  0.00     0.261 C 
HETATM   12  N   UNL     1      15.856  53.197  48.881  1.00  0.00    -0.323 N 
HETATM   13  H   UNL     1      16.637  53.833  48.998  1.00  0.00     0.169 HD
HETATM   14  O   UNL     1      15.414  50.922  48.722  1.00  0.00    -0.267 OA
BRANCH  12  15
HETATM   15  C   UNL     1      14.564  53.761  48.889  1.00  0.00     0.037 A 
HETATM   16  C   UNL     1      13.739  53.804  50.017  1.00  0.00     0.066 A 
HETATM   17  C   UNL     1      12.463  54.360  49.923  1.00  0.00     0.067 A 
HETATM   18  C   UNL     1      11.990  54.872  48.723  1.00  0.00     0.036 A 
HETATM   19  C   UNL     1      12.805  54.836  47.596  1.00  0.00     0.005 A 
HETATM   20  C   UNL     1      14.089  54.287  47.679  1.00  0.00     0.029 A 
BRANCH  17  21
HETATM   21  O   UNL     1      11.637  54.419  51.008  1.00  0.00    -0.361 OA
HETATM   22  H   UNL     1      10.741  54.167  50.726  1.00  0.00     0.217 HD
ENDBRANCH  17  21
ENDBRANCH  12  15
ENDBRANCH   7  11
BRANCH   1  23
HETATM   23  C   UNL     1      19.204  47.609  47.431  1.00  0.00    -0.035 A 
HETATM   24  C   UNL     1      18.331  47.970  46.394  1.00  0.00     0.012 A 
HETATM   25  C   UNL     1      18.557  47.546  45.081  1.00  0.00     0.037 A 
HETATM   26  C   UNL     1      19.663  46.757  44.769  1.00  0.00     0.068 A 
HETATM   27  C   UNL     1      20.506  46.335  45.794  1.00  0.00     0.037 A 
HETATM   28  C   UNL     1      20.273  46.750  47.110  1.00  0.00     0.012 A 
BRANCH  26  29
HETATM   29  O   UNL     1      19.801  46.435  43.449  1.00  0.00    -0.356 OA
HETATM   30  C   UNL     1      21.090  45.966  43.063  1.00  0.00     0.210 C 
ENDBRANCH  26  29
ENDBRANCH   1  23
BRANCH   8  31
HETATM   31  C   UNL     1      21.962  50.537  49.489  1.00  0.00     0.409 C 
HETATM   32  F   UNL     1      21.578  51.082  50.667  1.00  0.00    -0.169 F 
HETATM   33  F   UNL     1      22.868  49.566  49.796  1.00  0.00    -0.169 F 
HETATM   34  F   UNL     1      22.638  51.467  48.786  1.00  0.00    -0.169 F 
ENDBRANCH   8  31
TORSDOF 6
ENDMDL
MODEL 7
REMARK VINA RESULT:      -7.7      4.780      9.043
REMARK  6 active torsions:
REMARK  status: ('A' for Active; 'I' for Inactive)
REMARK    1  A    between atoms: O_2  and  C_3 
REMARK    2  A    between atoms: C_6  and  C_7 
REMARK    3  A    between atoms: C_13  and  C_14 
REMARK       I    between atoms: C_14  and  N_15 
REMARK    4  A    between atoms: N_15  and  C_16 
REMARK    5  A    between atoms: C_18  and  O_19 
REMARK    6  A    between atoms: C_24  and  C_25 
ROOT
HETATM    1  C   UNL     1      23.268  43.291  50.111  1.00  0.00     0.118 C 
HETATM    2  N   UNL     1      22.846  44.659  49.744  1.00  0.00    -0.365 N 
HETATM    3  C   UNL     1      23.782  45.655  49.703  1.00  0.00     0.138 A 
HETATM    4  N   UNL     1      25.055  45.455  50.194  1.00  0.00    -0.240 N 
HETATM    5  N   UNL     1      25.869  46.504  50.021  1.00  0.00    -0.181 NA
HETATM    6  C   UNL     1      25.071  47.431  49.489  1.00  0.00     0.160 A 
HETATM    7  C   UNL     1      23.751  46.966  49.262  1.00  0.00     0.096 A 
HETATM    8  C   UNL     1      25.503  44.234  50.840  1.00  0.00     0.221 C 
HETATM    9  C   UNL     1      24.279  43.396  51.263  1.00  0.00     0.066 C 
HETATM   10  H   UNL     1      21.932  44.895  50.138  1.00  0.00     0.161 HD
ENDROOT
BRANCH   7  11
HETATM   11  C   UNL     1      22.667  47.740  48.675  1.00  0.00     0.261 C 
HETATM   12  N   UNL     1      22.007  48.550  49.578  1.00  0.00    -0.323 N 
HETATM   13  H   UNL     1      22.280  48.429  50.548  1.00  0.00     0.169 HD
HETATM   14  O   UNL     1      22.409  47.635  47.482  1.00  0.00    -0.267 OA
BRANCH  12  15
HETATM   15  C   UNL     1      21.000  49.500  49.312  1.00  0.00     0.037 A 
HETATM   16  C   UNL     1      19.631  49.235  49.418  1.00  0.00     0.066 A 
HETATM   17  C   UNL     1      18.705  50.231  49.109  1.00  0.00     0.067 A 
HETATM   18  C   UNL     1      19.116  51.488  48.689  1.00  0.00     0.036 A 
HETATM   19  C   UNL     1      20.477  51.761  48.582  1.00  0.00     0.005 A 
HETATM   20  C   UNL     1      21.415  50.773  48.896  1.00  0.00     0.029 A 
BRANCH  17  21
HETATM   21  O   UNL     1      17.362  50.002  49.207  1.00  0.00    -0.361 OA
HETATM   22  H   UNL     1      17.054  50.346  50.063  1.00  0.00     0.217 HD
ENDBRANCH  17  21
ENDBRANCH  12  15
ENDBRANCH   7  11
BRANCH   1  23
HETATM   23  C   UNL     1      23.803  42.492  48.925  1.00  0.00    -0.035 A 
HETATM   24  C   UNL     1      23.451  42.772  47.596  1.00  0.00     0.012 A 
HETATM   25  C   UNL     1      24.017  42.060  46.534  1.00  0.00     0.037 A 
HETATM   26  C   UNL     1      24.951  41.053  46.772  1.00  0.00     0.068 A 
HETATM   27  C   UNL     1      25.266  40.716  48.085  1.00  0.00     0.037 A 
HETATM   28  C   UNL     1      24.692  41.422  49.149  1.00  0.00     0.012 A 
BRANCH  26  29
HETATM   29  O   UNL     1      25.463  40.451  45.658  1.00  0.00    -0.356 OA
HETATM   30  C   UNL     1      25.616  39.037  45.739  1.00  0.00     0.210 C 
ENDBRANCH  26  29
ENDBRANCH   1  23
BRANCH   8  31
HETATM   31  C   UNL     1      26.363  44.507  52.056  1.00  0.00     0.409 C 
HETATM   32  F   UNL     1      26.294  43.513  52.970  1.00  0.00    -0.169 F 
HETATM   33  F   UNL     1      27.669  44.582  51.673  1.00  0.00    -0.169 F 
HETATM   34  F   UNL     1      26.089  45.675  52.669  1.00  0.00    -0.169 F 
ENDBRANCH   8  31
TORSDOF 6
ENDMDL
MODEL 8
REMARK VINA RESULT:      -7.6      3.371      4.389
REMARK  6 active torsions:
REMARK  status: ('A' for Active; 'I' for Inactive)
REMARK    1  A    between atoms: O_2  and  C_3 
REMARK    2  A    between atoms: C_6  and  C_7 
REMARK    3  A    between atoms: C_13  and  C_14 
REMARK       I    between atoms: C_14  and  N_15 
REMARK    4  A    between atoms: N_15  and  C_16 
REMARK    5  A    between atoms: C_18  and  O_19 
REMARK    6  A    between atoms: C_24  and  C_25 
ROOT
HETATM    1  C   UNL     1      22.906  42.429  49.192  1.00  0.00     0.118 C 
HETATM    2  N   UNL     1      23.663  42.926  50.359  1.00  0.00    -0.365 N 
HETATM    3  C   UNL     1      25.020  43.062  50.263  1.00  0.00     0.138 A 
HETATM    4  N   UNL     1      25.711  42.553  49.184  1.00  0.00    -0.240 N 
HETATM    5  N   UNL     1      27.022  42.826  49.206  1.00  0.00    -0.181 NA
HETATM    6  C   UNL     1      27.189  43.445  50.376  1.00  0.00     0.160 A 
HETATM    7  C   UNL     1      25.977  43.627  51.088  1.00  0.00     0.096 A 
HETATM    8  C   UNL     1      25.104  41.793  48.106  1.00  0.00     0.221 C 
HETATM    9  C   UNL     1      23.714  41.292  48.547  1.00  0.00     0.066 C 
HETATM   10  H   UNL     1      23.293  42.557  51.239  1.00  0.00     0.161 HD
ENDROOT
BRANCH   7  11
HETATM   11  C   UNL     1      25.840  44.285  52.378  1.00  0.00     0.261 C 
HETATM   12  N   UNL     1      26.905  45.104  52.704  1.00  0.00    -0.323 N 
HETATM   13  H   UNL     1      27.692  45.063  52.066  1.00  0.00     0.169 HD
HETATM   14  O   UNL     1      24.849  44.089  53.071  1.00  0.00    -0.267 OA
BRANCH  12  15
HETATM   15  C   UNL     1      27.027  45.963  53.815  1.00  0.00     0.037 A 
HETATM   16  C   UNL     1      26.205  47.072  54.037  1.00  0.00     0.066 A 
HETATM   17  C   UNL     1      26.418  47.882  55.152  1.00  0.00     0.067 A 
HETATM   18  C   UNL     1      27.440  47.611  56.051  1.00  0.00     0.036 A 
HETATM   19  C   UNL     1      28.262  46.508  55.840  1.00  0.00     0.005 A 
HETATM   20  C   UNL     1      28.054  45.685  54.729  1.00  0.00     0.029 A 
BRANCH  17  21
HETATM   21  O   UNL     1      25.628  48.969  55.397  1.00  0.00    -0.361 OA
HETATM   22  H   UNL     1      25.579  49.502  54.585  1.00  0.00     0.217 HD
ENDBRANCH  17  21
ENDBRANCH  12  15
ENDBRANCH   7  11
BRANCH   1  23
HETATM   23  C   UNL     1      22.544  43.533  48.200  1.00  0.00    -0.035 A 
HETATM   24  C   UNL     1      22.100  43.269  46.895  1.00  0.00     0.012 A 
HETATM   25  C   UNL     1      21.713  44.306  46.041  1.00  0.00     0.037 A 
HETATM   26  C   UNL     1      21.755  45.632  46.469  1.00  0.00     0.068 A 
HETATM   27  C   UNL     1      22.252  45.921  47.737  1.00  0.00     0.037 A 
HETATM   28  C   UNL     1      22.650  44.882  48.589  1.00  0.00     0.012 A 
BRANCH  26  29
HETATM   29  O   UNL     1      21.319  46.556  45.563  1.00  0.00    -0.356 OA
HETATM   30  C   UNL     1      20.097  46.242  44.904  1.00  0.00     0.210 C 
ENDBRANCH  26  29
ENDBRANCH   1  23
BRANCH   8  31
HETATM   31  C   UNL     1      25.950  40.609  47.688  1.00  0.00     0.409 C 
HETATM   32  F   UNL     1      26.427  39.915  48.747  1.00  0.00    -0.169 F 
HETATM   33  F   UNL     1      25.180  39.736  46.978  1.00  0.00    -0.169 F 
HETATM   34  F   UNL     1      26.982  40.930  46.884  1.00  0.00    -0.169 F 
ENDBRANCH   8  31
TORSDOF 6
ENDMDL
MODEL 9
REMARK VINA RESULT:      -7.4      8.844     11.767
REMARK  6 active torsions:
REMARK  status: ('A' for Active; 'I' for Inactive)
REMARK    1  A    between atoms: O_2  and  C_3 
REMARK    2  A    between atoms: C_6  and  C_7 
REMARK    3  A    between atoms: C_13  and  C_14 
REMARK       I    between atoms: C_14  and  N_15 
REMARK    4  A    between atoms: N_15  and  C_16 
REMARK    5  A    between atoms: C_18  and  O_19 
REMARK    6  A    between atoms: C_24  and  C_25 
ROOT
HETATM    1  C   UNL     1      19.659  48.833  49.874  1.00  0.00     0.118 C 
HETATM    2  N   UNL     1      19.025  47.745  49.103  1.00  0.00    -0.365 N 
HETATM    3  C   UNL     1      18.250  48.060  48.022  1.00  0.00     0.138 A 
HETATM    4  N   UNL     1      17.883  49.364  47.766  1.00  0.00    -0.240 N 
HETATM    5  N   UNL     1      17.181  49.514  46.636  1.00  0.00    -0.181 NA
HETATM    6  C   UNL     1      17.015  48.261  46.206  1.00  0.00     0.160 A 
HETATM    7  C   UNL     1      17.660  47.301  47.026  1.00  0.00     0.096 A 
HETATM    8  C   UNL     1      18.215  50.491  48.618  1.00  0.00     0.221 C 
HETATM    9  C   UNL     1      18.644  49.979  50.008  1.00  0.00     0.066 C 
HETATM   10  H   UNL     1      18.693  46.990  49.710  1.00  0.00     0.161 HD
ENDROOT
BRANCH   7  11
HETATM   11  C   UNL     1      17.673  45.864  46.801  1.00  0.00     0.261 C 
HETATM   12  N   UNL     1      17.953  45.505  45.497  1.00  0.00    -0.323 N 
HETATM   13  H   UNL     1      18.006  46.275  44.839  1.00  0.00     0.169 HD
HETATM   14  O   UNL     1      17.445  45.091  47.724  1.00  0.00    -0.267 OA
BRANCH  12  15
HETATM   15  C   UNL     1      18.154  44.209  44.980  1.00  0.00     0.037 A 
HETATM   16  C   UNL     1      19.298  43.442  45.221  1.00  0.00     0.066 A 
HETATM   17  C   UNL     1      19.420  42.177  44.645  1.00  0.00     0.067 A 
HETATM   18  C   UNL     1      18.425  41.662  43.827  1.00  0.00     0.036 A 
HETATM   19  C   UNL     1      17.281  42.417  43.584  1.00  0.00     0.005 A 
HETATM   20  C   UNL     1      17.144  43.683  44.161  1.00  0.00     0.029 A 
BRANCH  17  21
HETATM   21  O   UNL     1      20.524  41.405  44.866  1.00  0.00    -0.361 OA
HETATM   22  H   UNL     1      21.313  41.920  44.625  1.00  0.00     0.217 HD
ENDBRANCH  17  21
ENDBRANCH  12  15
ENDBRANCH   7  11
BRANCH   1  23
HETATM   23  C   UNL     1      20.991  49.289  49.281  1.00  0.00    -0.035 A 
HETATM   24  C   UNL     1      21.859  48.421  48.601  1.00  0.00     0.012 A 
HETATM   25  C   UNL     1      23.037  48.894  48.014  1.00  0.00     0.037 A 
HETATM   26  C   UNL     1      23.375  50.244  48.086  1.00  0.00     0.068 A 
HETATM   27  C   UNL     1      22.561  51.110  48.810  1.00  0.00     0.037 A 
HETATM   28  C   UNL     1      21.387  50.635  49.408  1.00  0.00     0.012 A 
BRANCH  26  29
HETATM   29  O   UNL     1      24.529  50.596  47.445  1.00  0.00    -0.356 OA
HETATM   30  C   UNL     1      25.722  50.017  47.966  1.00  0.00     0.210 C 
ENDBRANCH  26  29
ENDBRANCH   1  23
BRANCH   8  31
HETATM   31  C   UNL     1      17.057  51.453  48.779  1.00  0.00     0.409 C 
HETATM   32  F   UNL     1      15.872  50.816  48.917  1.00  0.00    -0.169 F 
HETATM   33  F   UNL     1      17.232  52.180  49.919  1.00  0.00    -0.169 F 
HETATM   34  F   UNL     1      16.948  52.351  47.780  1.00  0.00    -0.169 F 
ENDBRANCH   8  31
TORSDOF 6
ENDMDL
MODEL 10
REMARK VINA RESULT:      -7.4     14.369     17.935
REMARK  6 active torsions:
REMARK  status: ('A' for Active; 'I' for Inactive)
REMARK    1  A    between atoms: O_2  and  C_3 
REMARK    2  A    between atoms: C_6  and  C_7 
REMARK    3  A    between atoms: C_13  and  C_14 
REMARK       I    between atoms: C_14  and  N_15 
REMARK    4  A    between atoms: N_15  and  C_16 
REMARK    5  A    between atoms: C_18  and  O_19 
REMARK    6  A    between atoms: C_24  and  C_25 
ROOT
HETATM    1  C   UNL     1      38.963  54.186  46.980  1.00  0.00     0.118 C 
HETATM    2  N   UNL     1      38.119  53.482  45.994  1.00  0.00    -0.365 N 
HETATM    3  C   UNL     1      38.141  53.887  44.689  1.00  0.00     0.138 A 
HETATM    4  N   UNL     1      38.768  55.057  44.318  1.00  0.00    -0.240 N 
HETATM    5  N   UNL     1      38.759  55.279  42.998  1.00  0.00    -0.181 NA
HETATM    6  C   UNL     1      38.026  54.270  42.520  1.00  0.00     0.160 A 
HETATM    7  C   UNL     1      37.609  53.361  43.524  1.00  0.00     0.096 A 
HETATM    8  C   UNL     1      39.393  55.982  45.246  1.00  0.00     0.221 C 
HETATM    9  C   UNL     1      38.896  55.692  46.677  1.00  0.00     0.066 C 
HETATM   10  H   UNL     1      37.209  53.223  46.386  1.00  0.00     0.161 HD
ENDROOT
BRANCH   7  11
HETATM   11  C   UNL     1      36.819  52.159  43.306  1.00  0.00     0.261 C 
HETATM   12  N   UNL     1      35.457  52.385  43.260  1.00  0.00    -0.323 N 
HETATM   13  H   UNL     1      35.168  53.329  43.490  1.00  0.00     0.169 HD
HETATM   14  O   UNL     1      37.370  51.071  43.185  1.00  0.00    -0.267 OA
BRANCH  12  15
HETATM   15  C   UNL     1      34.437  51.462  42.951  1.00  0.00     0.037 A 
HETATM   16  C   UNL     1      34.554  50.468  41.975  1.00  0.00     0.066 A 
HETATM   17  C   UNL     1      33.480  49.616  41.720  1.00  0.00     0.067 A 
HETATM   18  C   UNL     1      32.286  49.737  42.417  1.00  0.00     0.036 A 
HETATM   19  C   UNL     1      32.161  50.723  43.392  1.00  0.00     0.005 A 
HETATM   20  C   UNL     1      33.233  51.579  43.661  1.00  0.00     0.029 A 
BRANCH  17  21
HETATM   21  O   UNL     1      33.567  48.633  40.776  1.00  0.00    -0.361 OA
HETATM   22  H   UNL     1      32.669  48.313  40.581  1.00  0.00     0.217 HD
ENDBRANCH  17  21
ENDBRANCH  12  15
ENDBRANCH   7  11
BRANCH   1  23
HETATM   23  C   UNL     1      40.395  53.656  47.030  1.00  0.00    -0.035 A 
HETATM   24  C   UNL     1      40.847  52.608  46.213  1.00  0.00     0.012 A 
HETATM   25  C   UNL     1      42.184  52.199  46.242  1.00  0.00     0.037 A 
HETATM   26  C   UNL     1      43.102  52.827  47.081  1.00  0.00     0.068 A 
HETATM   27  C   UNL     1      42.660  53.825  47.945  1.00  0.00     0.037 A 
HETATM   28  C   UNL     1      41.319  54.228  47.925  1.00  0.00     0.012 A 
BRANCH  26  29
HETATM   29  O   UNL     1      44.386  52.366  46.997  1.00  0.00    -0.356 OA
HETATM   30  C   UNL     1      44.903  51.768  48.181  1.00  0.00     0.210 C 
ENDBRANCH  26  29
ENDBRANCH   1  23
BRANCH   8  31
HETATM   31  C   UNL     1      39.103  57.428  44.903  1.00  0.00     0.409 C 
HETATM   32  F   UNL     1      37.834  57.612  44.472  1.00  0.00    -0.169 F 
HETATM   33  F   UNL     1      39.237  58.191  46.025  1.00  0.00    -0.169 F 
HETATM   34  F   UNL     1      39.947  57.954  43.994  1.00  0.00    -0.169 F 
ENDBRANCH   8  31
TORSDOF 6
ENDMDL
