MODEL 1
REMARK VINA RESULT:      -9.4      0.000      0.000
REMARK  5 active torsions:
REMARK  status: ('A' for Active; 'I' for Inactive)
REMARK    1  A    between atoms: C_2  and  C_3 
REMARK    2  A    between atoms: C_5  and  N_6 
REMARK       I    between atoms: N_6  and  C_7 
REMARK    3  A    between atoms: C_7  and  C_8 
REMARK    4  A    between atoms: C_9  and  C_10 
REMARK    5  A    between atoms: C_21  and  O_22 
ROOT
HETATM    1  N   UNL     1      25.783  46.235  52.651  1.00  0.00    -0.321 N 
HETATM    2  C   UNL     1      25.846  46.347  51.283  1.00  0.00     0.245 C 
HETATM    3  O   UNL     1      26.802  46.108  50.557  1.00  0.00    -0.268 OA
HETATM    4  H   UNL     1      24.883  46.344  53.107  1.00  0.00     0.169 HD
ENDROOT
BRANCH   1   5
HETATM    5  C   UNL     1      26.823  45.899  53.548  1.00  0.00     0.069 A 
HETATM    6  C   UNL     1      27.578  44.724  53.453  1.00  0.00     0.040 A 
HETATM    7  C   UNL     1      28.624  44.438  54.354  1.00  0.00    -0.048 A 
HETATM    8  C   UNL     1      28.879  45.376  55.365  1.00  0.00     0.011 A 
HETATM    9  C   UNL     1      28.132  46.557  55.473  1.00  0.00     0.039 A 
HETATM   10  C   UNL     1      27.107  46.828  54.567  1.00  0.00     0.095 A 
BRANCH   7  11
HETATM   11  C   UNL     1      29.446  43.146  54.192  1.00  0.00    -0.024 C 
HETATM   12  C   UNL     1      28.498  41.928  54.224  1.00  0.00     0.019 C 
HETATM   13  C   UNL     1      30.471  43.023  55.339  1.00  0.00     0.019 C 
HETATM   14  C   UNL     1      30.238  43.073  52.865  1.00  0.00     0.019 C 
ENDBRANCH   7  11
BRANCH  10  15
HETATM   15  O   UNL     1      26.321  47.957  54.578  1.00  0.00    -0.354 OA
HETATM   16  C   UNL     1      26.312  48.724  55.776  1.00  0.00     0.210 C 
ENDBRANCH  10  15
ENDBRANCH   1   5
BRANCH   2  17
HETATM   17  C   UNL     1      24.546  46.787  50.713  1.00  0.00     0.077 C 
HETATM   18  C   UNL     1      24.522  47.719  49.746  1.00  0.00     0.038 C 
BRANCH  18  19
HETATM   19  C   UNL     1      23.283  48.235  49.158  1.00  0.00     0.075 A 
HETATM   20  N   UNL     1      22.891  49.482  49.509  1.00  0.00    -0.245 NA
HETATM   21  C   UNL     1      21.766  49.954  48.934  1.00  0.00     0.086 A 
HETATM   22  C   UNL     1      21.017  49.173  48.018  1.00  0.00     0.085 A 
HETATM   23  C   UNL     1      21.331  51.239  49.237  1.00  0.00     0.034 A 
HETATM   24  N   UNL     1      21.403  47.928  47.681  1.00  0.00    -0.256 NA
HETATM   25  C   UNL     1      19.865  49.711  47.458  1.00  0.00     0.034 A 
HETATM   26  C   UNL     1      22.544  47.480  48.258  1.00  0.00     0.148 A 
HETATM   27  C   UNL     1      19.438  51.003  47.771  1.00  0.00     0.002 A 
HETATM   28  C   UNL     1      20.176  51.770  48.663  1.00  0.00     0.002 A 
ENDBRANCH  18  19
ENDBRANCH   2  17
TORSDOF 5
ENDMDL
MODEL 2
REMARK VINA RESULT:      -9.0      1.985      9.722
REMARK  5 active torsions:
REMARK  status: ('A' for Active; 'I' for Inactive)
REMARK    1  A    between atoms: C_2  and  C_3 
REMARK    2  A    between atoms: C_5  and  N_6 
REMARK       I    between atoms: N_6  and  C_7 
REMARK    3  A    between atoms: C_7  and  C_8 
REMARK    4  A    between atoms: C_9  and  C_10 
REMARK    5  A    between atoms: C_21  and  O_22 
ROOT
HETATM    1  N   UNL     1      24.571  47.661  50.102  1.00  0.00    -0.321 N 
HETATM    2  C   UNL     1      24.533  46.318  50.387  1.00  0.00     0.245 C 
HETATM    3  O   UNL     1      23.759  45.481  49.941  1.00  0.00    -0.268 OA
HETATM    4  H   UNL     1      25.351  48.210  50.449  1.00  0.00     0.169 HD
ENDROOT
BRANCH   1   5
HETATM    5  C   UNL     1      23.681  48.409  49.297  1.00  0.00     0.069 A 
HETATM    6  C   UNL     1      22.366  48.014  49.027  1.00  0.00     0.040 A 
HETATM    7  C   UNL     1      21.502  48.800  48.237  1.00  0.00    -0.048 A 
HETATM    8  C   UNL     1      22.014  49.999  47.720  1.00  0.00     0.011 A 
HETATM    9  C   UNL     1      23.328  50.408  47.983  1.00  0.00     0.039 A 
HETATM   10  C   UNL     1      24.165  49.622  48.773  1.00  0.00     0.095 A 
BRANCH   7  11
HETATM   11  C   UNL     1      20.053  48.339  47.991  1.00  0.00    -0.024 C 
HETATM   12  C   UNL     1      20.065  47.020  47.188  1.00  0.00     0.019 C 
HETATM   13  C   UNL     1      19.284  49.413  47.194  1.00  0.00     0.019 C 
HETATM   14  C   UNL     1      19.254  48.077  49.288  1.00  0.00     0.019 C 
ENDBRANCH   7  11
BRANCH  10  15
HETATM   15  O   UNL     1      25.466  49.933  49.098  1.00  0.00    -0.354 OA
HETATM   16  C   UNL     1      26.411  49.943  48.035  1.00  0.00     0.210 C 
ENDBRANCH  10  15
ENDBRANCH   1   5
BRANCH   2  17
HETATM   17  C   UNL     1      25.613  45.930  51.332  1.00  0.00     0.077 C 
HETATM   18  C   UNL     1      25.719  46.551  52.517  1.00  0.00     0.038 C 
BRANCH  18  19
HETATM   19  C   UNL     1      26.777  46.256  53.487  1.00  0.00     0.075 A 
HETATM   20  N   UNL     1      27.450  45.089  53.350  1.00  0.00    -0.245 NA
HETATM   21  C   UNL     1      28.441  44.848  54.231  1.00  0.00     0.086 A 
HETATM   22  C   UNL     1      28.754  45.765  55.266  1.00  0.00     0.085 A 
HETATM   23  C   UNL     1      29.182  43.677  54.122  1.00  0.00     0.034 A 
HETATM   24  N   UNL     1      28.075  46.919  55.406  1.00  0.00    -0.256 NA
HETATM   25  C   UNL     1      29.786  45.462  56.146  1.00  0.00     0.034 A 
HETATM   26  C   UNL     1      27.094  47.149  54.501  1.00  0.00     0.148 A 
HETATM   27  C   UNL     1      30.522  44.282  56.027  1.00  0.00     0.002 A 
HETATM   28  C   UNL     1      30.220  43.387  55.009  1.00  0.00     0.002 A 
ENDBRANCH  18  19
ENDBRANCH   2  17
TORSDOF 5
ENDMDL
MODEL 3
REMARK VINA RESULT:      -8.8      2.175     10.012
REMARK  5 active torsions:
REMARK  status: ('A' for Active; 'I' for Inactive)
REMARK    1  A    between atoms: C_2  and  C_3 
REMARK    2  A    between atoms: C_5  and  N_6 
REMARK       I    between atoms: N_6  and  C_7 
REMARK    3  A    between atoms: C_7  and  C_8 
REMARK    4  A    between atoms: C_9  and  C_10 
REMARK    5  A    between atoms: C_21  and  O_22 
ROOT
HETATM    1  N   UNL     1      25.714  46.484  51.556  1.00  0.00    -0.321 N 
HETATM    2  C   UNL     1      25.822  47.090  52.784  1.00  0.00     0.245 C 
HETATM    3  O   UNL     1      25.051  47.892  53.293  1.00  0.00    -0.268 OA
HETATM    4  H   UNL     1      26.364  45.742  51.320  1.00  0.00     0.169 HD
ENDROOT
BRANCH   1   5
HETATM    5  C   UNL     1      24.735  46.702  50.559  1.00  0.00     0.069 A 
HETATM    6  C   UNL     1      24.340  47.974  50.129  1.00  0.00     0.040 A 
HETATM    7  C   UNL     1      23.377  48.149  49.114  1.00  0.00    -0.048 A 
HETATM    8  C   UNL     1      22.817  46.993  48.550  1.00  0.00     0.011 A 
HETATM    9  C   UNL     1      23.203  45.714  48.970  1.00  0.00     0.039 A 
HETATM   10  C   UNL     1      24.164  45.559  49.969  1.00  0.00     0.095 A 
BRANCH   7  11
HETATM   11  C   UNL     1      22.995  49.569  48.653  1.00  0.00    -0.024 C 
HETATM   12  C   UNL     1      21.802  49.486  47.676  1.00  0.00     0.019 C 
HETATM   13  C   UNL     1      24.191  50.233  47.940  1.00  0.00     0.019 C 
HETATM   14  C   UNL     1      22.576  50.507  49.808  1.00  0.00     0.019 C 
ENDBRANCH   7  11
BRANCH  10  15
HETATM   15  O   UNL     1      24.620  44.352  50.448  1.00  0.00    -0.354 OA
HETATM   16  C   UNL     1      25.493  43.612  49.603  1.00  0.00     0.210 C 
ENDBRANCH  10  15
ENDBRANCH   1   5
BRANCH   2  17
HETATM   17  C   UNL     1      27.035  46.631  53.512  1.00  0.00     0.077 C 
HETATM   18  C   UNL     1      27.263  45.318  53.669  1.00  0.00     0.038 C 
BRANCH  18  19
HETATM   19  C   UNL     1      28.412  44.784  54.406  1.00  0.00     0.075 A 
HETATM   20  N   UNL     1      28.770  45.407  55.553  1.00  0.00    -0.245 NA
HETATM   21  C   UNL     1      29.808  44.884  56.235  1.00  0.00     0.086 A 
HETATM   22  C   UNL     1      30.507  43.744  55.764  1.00  0.00     0.085 A 
HETATM   23  C   UNL     1      30.202  45.468  57.434  1.00  0.00     0.034 A 
HETATM   24  N   UNL     1      30.156  43.134  54.616  1.00  0.00    -0.256 NA
HETATM   25  C   UNL     1      31.571  43.249  56.508  1.00  0.00     0.034 A 
HETATM   26  C   UNL     1      29.100  43.666  53.955  1.00  0.00     0.148 A 
HETATM   27  C   UNL     1      31.957  43.845  57.710  1.00  0.00     0.002 A 
HETATM   28  C   UNL     1      31.269  44.958  58.175  1.00  0.00     0.002 A 
ENDBRANCH  18  19
ENDBRANCH   2  17
TORSDOF 5
ENDMDL
MODEL 4
REMARK VINA RESULT:      -8.6      2.196      9.638
REMARK  5 active torsions:
REMARK  status: ('A' for Active; 'I' for Inactive)
REMARK    1  A    between atoms: C_2  and  C_3 
REMARK    2  A    between atoms: C_5  and  N_6 
REMARK       I    between atoms: N_6  and  C_7 
REMARK    3  A    between atoms: C_7  and  C_8 
REMARK    4  A    between atoms: C_9  and  C_10 
REMARK    5  A    between atoms: C_21  and  O_22 
ROOT
HETATM    1  N   UNL     1      23.816  47.487  49.572  1.00  0.00    -0.321 N 
HETATM    2  C   UNL     1      23.455  46.190  49.294  1.00  0.00     0.245 C 
HETATM    3  O   UNL     1      22.514  45.806  48.612  1.00  0.00    -0.268 OA
HETATM    4  H   UNL     1      24.696  47.655  50.047  1.00  0.00     0.169 HD
ENDROOT
BRANCH   1   5
HETATM    5  C   UNL     1      23.145  48.677  49.208  1.00  0.00     0.069 A 
HETATM    6  C   UNL     1      21.752  48.817  49.231  1.00  0.00     0.040 A 
HETATM    7  C   UNL     1      21.122  50.030  48.883  1.00  0.00    -0.048 A 
HETATM    8  C   UNL     1      21.947  51.098  48.500  1.00  0.00     0.011 A 
HETATM    9  C   UNL     1      23.342  50.972  48.472  1.00  0.00     0.039 A 
HETATM   10  C   UNL     1      23.948  49.768  48.829  1.00  0.00     0.095 A 
BRANCH   7  11
HETATM   11  C   UNL     1      19.588  50.146  48.953  1.00  0.00    -0.024 C 
HETATM   12  C   UNL     1      19.012  50.192  47.521  1.00  0.00     0.019 C 
HETATM   13  C   UNL     1      19.189  51.434  49.703  1.00  0.00     0.019 C 
HETATM   14  C   UNL     1      18.906  48.966  49.682  1.00  0.00     0.019 C 
ENDBRANCH   7  11
BRANCH  10  15
HETATM   15  O   UNL     1      25.305  49.541  48.843  1.00  0.00    -0.354 OA
HETATM   16  C   UNL     1      26.064  50.102  47.779  1.00  0.00     0.210 C 
ENDBRANCH  10  15
ENDBRANCH   1   5
BRANCH   2  17
HETATM   17  C   UNL     1      24.393  45.219  49.915  1.00  0.00     0.077 C 
HETATM   18  C   UNL     1      25.031  45.539  51.052  1.00  0.00     0.038 C 
BRANCH  18  19
HETATM   19  C   UNL     1      25.999  44.655  51.707  1.00  0.00     0.075 A 
HETATM   20  N   UNL     1      26.815  45.196  52.642  1.00  0.00    -0.245 NA
HETATM   21  C   UNL     1      27.677  44.362  53.258  1.00  0.00     0.086 A 
HETATM   22  C   UNL     1      27.741  42.985  52.929  1.00  0.00     0.085 A 
HETATM   23  C   UNL     1      28.520  44.859  54.245  1.00  0.00     0.034 A 
HETATM   24  N   UNL     1      26.937  42.453  51.989  1.00  0.00    -0.256 NA
HETATM   25  C   UNL     1      28.651  42.174  53.595  1.00  0.00     0.034 A 
HETATM   26  C   UNL     1      26.067  43.304  51.395  1.00  0.00     0.148 A 
HETATM   27  C   UNL     1      29.493  42.684  54.584  1.00  0.00     0.002 A 
HETATM   28  C   UNL     1      29.426  44.032  54.912  1.00  0.00     0.002 A 
ENDBRANCH  18  19
ENDBRANCH   2  17
TORSDOF 5
ENDMDL
MODEL 5
REMARK VINA RESULT:      -8.5      2.940      4.125
REMARK  5 active torsions:
REMARK  status: ('A' for Active; 'I' for Inactive)
REMARK    1  A    between atoms: C_2  and  C_3 
REMARK    2  A    between atoms: C_5  and  N_6 
REMARK       I    between atoms: N_6  and  C_7 
REMARK    3  A    between atoms: C_7  and  C_8 
REMARK    4  A    between atoms: C_9  and  C_10 
REMARK    5  A    between atoms: C_21  and  O_22 
ROOT
HETATM    1  N   UNL     1      26.164  43.777  51.352  1.00  0.00    -0.321 N 
HETATM    2  C   UNL     1      24.796  43.762  51.229  1.00  0.00     0.245 C 
HETATM    3  O   UNL     1      24.042  42.811  51.381  1.00  0.00    -0.268 OA
HETATM    4  H   UNL     1      26.646  44.670  51.322  1.00  0.00     0.169 HD
ENDROOT
BRANCH   1   5
HETATM    5  C   UNL     1      27.030  42.687  51.599  1.00  0.00     0.069 A 
HETATM    6  C   UNL     1      27.240  41.645  50.689  1.00  0.00     0.040 A 
HETATM    7  C   UNL     1      28.131  40.586  50.965  1.00  0.00    -0.048 A 
HETATM    8  C   UNL     1      28.799  40.610  52.198  1.00  0.00     0.011 A 
HETATM    9  C   UNL     1      28.599  41.647  53.118  1.00  0.00     0.039 A 
HETATM   10  C   UNL     1      27.721  42.690  52.825  1.00  0.00     0.095 A 
BRANCH   7  11
HETATM   11  C   UNL     1      28.353  39.476  49.919  1.00  0.00    -0.024 C 
HETATM   12  C   UNL     1      28.845  40.108  48.599  1.00  0.00     0.019 C 
HETATM   13  C   UNL     1      27.032  38.722  49.661  1.00  0.00     0.019 C 
HETATM   14  C   UNL     1      29.403  38.423  50.341  1.00  0.00     0.019 C 
ENDBRANCH   7  11
BRANCH  10  15
HETATM   15  O   UNL     1      27.458  43.758  53.653  1.00  0.00    -0.354 OA
HETATM   16  C   UNL     1      28.569  44.343  54.321  1.00  0.00     0.210 C 
ENDBRANCH  10  15
ENDBRANCH   1   5
BRANCH   2  17
HETATM   17  C   UNL     1      24.265  45.111  50.901  1.00  0.00     0.077 C 
HETATM   18  C   UNL     1      24.810  45.819  49.899  1.00  0.00     0.038 C 
BRANCH  18  19
HETATM   19  C   UNL     1      24.371  47.170  49.537  1.00  0.00     0.075 A 
HETATM   20  N   UNL     1      23.048  47.367  49.329  1.00  0.00    -0.245 NA
HETATM   21  C   UNL     1      22.657  48.622  49.029  1.00  0.00     0.086 A 
HETATM   22  C   UNL     1      23.590  49.683  48.916  1.00  0.00     0.085 A 
HETATM   23  C   UNL     1      21.307  48.888  48.831  1.00  0.00     0.034 A 
HETATM   24  N   UNL     1      24.907  49.480  49.112  1.00  0.00    -0.256 NA
HETATM   25  C   UNL     1      23.130  50.956  48.603  1.00  0.00     0.034 A 
HETATM   26  C   UNL     1      25.276  48.216  49.429  1.00  0.00     0.148 A 
HETATM   27  C   UNL     1      21.771  51.210  48.405  1.00  0.00     0.002 A 
HETATM   28  C   UNL     1      20.856  50.172  48.522  1.00  0.00     0.002 A 
ENDBRANCH  18  19
ENDBRANCH   2  17
TORSDOF 5
ENDMDL
MODEL 6
REMARK VINA RESULT:      -8.5      2.338     10.123
REMARK  5 active torsions:
REMARK  status: ('A' for Active; 'I' for Inactive)
REMARK    1  A    between atoms: C_2  and  C_3 
REMARK    2  A    between atoms: C_5  and  N_6 
REMARK       I    between atoms: N_6  and  C_7 
REMARK    3  A    between atoms: C_7  and  C_8 
REMARK    4  A    between atoms: C_9  and  C_10 
REMARK    5  A    between atoms: C_21  and  O_22 
ROOT
HETATM    1  N   UNL     1      21.954  48.370  49.479  1.00  0.00    -0.321 N 
HETATM    2  C   UNL     1      23.207  48.533  48.938  1.00  0.00     0.245 C 
HETATM    3  O   UNL     1      23.494  48.999  47.844  1.00  0.00    -0.268 OA
HETATM    4  H   UNL     1      21.876  48.087  50.450  1.00  0.00     0.169 HD
ENDROOT
BRANCH   1   5
HETATM    5  C   UNL     1      20.702  48.622  48.871  1.00  0.00     0.069 A 
HETATM    6  C   UNL     1      20.035  49.849  48.956  1.00  0.00     0.040 A 
HETATM    7  C   UNL     1      18.798  50.068  48.315  1.00  0.00    -0.048 A 
HETATM    8  C   UNL     1      18.250  49.000  47.590  1.00  0.00     0.011 A 
HETATM    9  C   UNL     1      18.907  47.766  47.496  1.00  0.00     0.039 A 
HETATM   10  C   UNL     1      20.134  47.570  48.128  1.00  0.00     0.095 A 
BRANCH   7  11
HETATM   11  C   UNL     1      18.115  51.446  48.413  1.00  0.00    -0.024 C 
HETATM   12  C   UNL     1      17.106  51.600  47.254  1.00  0.00     0.019 C 
HETATM   13  C   UNL     1      19.172  52.567  48.320  1.00  0.00     0.019 C 
HETATM   14  C   UNL     1      17.336  51.663  49.730  1.00  0.00     0.019 C 
ENDBRANCH   7  11
BRANCH  10  15
HETATM   15  O   UNL     1      20.864  46.404  48.093  1.00  0.00    -0.354 OA
HETATM   16  C   UNL     1      20.235  45.235  48.602  1.00  0.00     0.210 C 
ENDBRANCH  10  15
ENDBRANCH   1   5
BRANCH   2  17
HETATM   17  C   UNL     1      24.268  48.090  49.880  1.00  0.00     0.077 C 
HETATM   18  C   UNL     1      24.251  46.838  50.365  1.00  0.00     0.038 C 
BRANCH  18  19
HETATM   19  C   UNL     1      25.236  46.335  51.326  1.00  0.00     0.075 A 
HETATM   20  N   UNL     1      25.596  47.151  52.346  1.00  0.00    -0.245 NA
HETATM   21  C   UNL     1      26.479  46.660  53.239  1.00  0.00     0.086 A 
HETATM   22  C   UNL     1      27.021  45.357  53.108  1.00  0.00     0.085 A 
HETATM   23  C   UNL     1      26.864  47.445  54.320  1.00  0.00     0.034 A 
HETATM   24  N   UNL     1      26.670  44.553  52.086  1.00  0.00    -0.256 NA
HETATM   25  C   UNL     1      27.928  44.905  54.058  1.00  0.00     0.034 A 
HETATM   26  C   UNL     1      25.770  45.059  51.210  1.00  0.00     0.148 A 
HETATM   27  C   UNL     1      28.307  45.703  55.139  1.00  0.00     0.002 A 
HETATM   28  C   UNL     1      27.771  46.977  55.272  1.00  0.00     0.002 A 
ENDBRANCH  18  19
ENDBRANCH   2  17
TORSDOF 5
ENDMDL
MODEL 7
REMARK VINA RESULT:      -8.5      1.955      9.983
REMARK  5 active torsions:
REMARK  status: ('A' for Active; 'I' for Inactive)
REMARK    1  A    between atoms: C_2  and  C_3 
REMARK    2  A    between atoms: C_5  and  N_6 
REMARK       I    between atoms: N_6  and  C_7 
REMARK    3  A    between atoms: C_7  and  C_8 
REMARK    4  A    between atoms: C_9  and  C_10 
REMARK    5  A    between atoms: C_21  and  O_22 
ROOT
HETATM    1  N   UNL     1      23.469  47.428  49.612  1.00  0.00    -0.321 N 
HETATM    2  C   UNL     1      24.679  48.074  49.530  1.00  0.00     0.245 C 
HETATM    3  O   UNL     1      24.955  49.061  48.862  1.00  0.00    -0.268 OA
HETATM    4  H   UNL     1      23.353  46.698  50.307  1.00  0.00     0.169 HD
ENDROOT
BRANCH   1   5
HETATM    5  C   UNL     1      22.285  47.698  48.888  1.00  0.00     0.069 A 
HETATM    6  C   UNL     1      21.514  48.852  49.068  1.00  0.00     0.040 A 
HETATM    7  C   UNL     1      20.352  49.095  48.307  1.00  0.00    -0.048 A 
HETATM    8  C   UNL     1      19.986  48.126  47.361  1.00  0.00     0.011 A 
HETATM    9  C   UNL     1      20.748  46.966  47.170  1.00  0.00     0.039 A 
HETATM   10  C   UNL     1      21.900  46.747  47.924  1.00  0.00     0.095 A 
BRANCH   7  11
HETATM   11  C   UNL     1      19.552  50.394  48.520  1.00  0.00    -0.024 C 
HETATM   12  C   UNL     1      20.524  51.594  48.557  1.00  0.00     0.019 C 
HETATM   13  C   UNL     1      18.777  50.326  49.852  1.00  0.00     0.019 C 
HETATM   14  C   UNL     1      18.518  50.679  47.406  1.00  0.00     0.019 C 
ENDBRANCH   7  11
BRANCH  10  15
HETATM   15  O   UNL     1      22.722  45.649  47.811  1.00  0.00    -0.354 OA
HETATM   16  C   UNL     1      22.172  44.391  48.186  1.00  0.00     0.210 C 
ENDBRANCH  10  15
ENDBRANCH   1   5
BRANCH   2  17
HETATM   17  C   UNL     1      25.694  47.441  50.412  1.00  0.00     0.077 C 
HETATM   18  C   UNL     1      25.320  46.506  51.299  1.00  0.00     0.038 C 
BRANCH  18  19
HETATM   19  C   UNL     1      26.251  45.862  52.230  1.00  0.00     0.075 A 
HETATM   20  N   UNL     1      26.984  44.821  51.769  1.00  0.00    -0.245 NA
HETATM   21  C   UNL     1      27.859  44.262  52.629  1.00  0.00     0.086 A 
HETATM   22  C   UNL     1      27.993  44.728  53.960  1.00  0.00     0.085 A 
HETATM   23  C   UNL     1      28.657  43.206  52.201  1.00  0.00     0.034 A 
HETATM   24  N   UNL     1      27.254  45.756  54.419  1.00  0.00    -0.256 NA
HETATM   25  C   UNL     1      28.911  44.112  54.802  1.00  0.00     0.034 A 
HETATM   26  C   UNL     1      26.393  46.314  53.534  1.00  0.00     0.148 A 
HETATM   27  C   UNL     1      29.705  43.052  54.361  1.00  0.00     0.002 A 
HETATM   28  C   UNL     1      29.579  42.599  53.054  1.00  0.00     0.002 A 
ENDBRANCH  18  19
ENDBRANCH   2  17
TORSDOF 5
ENDMDL
MODEL 8
REMARK VINA RESULT:      -8.4      2.256      3.744
REMARK  5 active torsions:
REMARK  status: ('A' for Active; 'I' for Inactive)
REMARK    1  A    between atoms: C_2  and  C_3 
REMARK    2  A    between atoms: C_5  and  N_6 
REMARK       I    between atoms: N_6  and  C_7 
REMARK    3  A    between atoms: C_7  and  C_8 
REMARK    4  A    between atoms: C_9  and  C_10 
REMARK    5  A    between atoms: C_21  and  O_22 
ROOT
HETATM    1  N   UNL     1      25.523  45.609  50.274  1.00  0.00    -0.321 N 
HETATM    2  C   UNL     1      26.145  46.694  49.706  1.00  0.00     0.245 C 
HETATM    3  O   UNL     1      27.297  46.767  49.297  1.00  0.00    -0.268 OA
HETATM    4  H   UNL     1      24.525  45.656  50.448  1.00  0.00     0.169 HD
ENDROOT
BRANCH   1   5
HETATM    5  C   UNL     1      26.084  44.351  50.595  1.00  0.00     0.069 A 
HETATM    6  C   UNL     1      26.969  44.149  51.660  1.00  0.00     0.040 A 
HETATM    7  C   UNL     1      27.487  42.873  51.963  1.00  0.00    -0.048 A 
HETATM    8  C   UNL     1      27.089  41.805  51.146  1.00  0.00     0.011 A 
HETATM    9  C   UNL     1      26.204  41.992  50.077  1.00  0.00     0.039 A 
HETATM   10  C   UNL     1      25.693  43.259  49.798  1.00  0.00     0.095 A 
BRANCH   7  11
HETATM   11  C   UNL     1      28.435  42.694  53.164  1.00  0.00    -0.024 C 
HETATM   12  C   UNL     1      28.392  41.224  53.636  1.00  0.00     0.019 C 
HETATM   13  C   UNL     1      27.999  43.614  54.323  1.00  0.00     0.019 C 
HETATM   14  C   UNL     1      29.911  43.029  52.849  1.00  0.00     0.019 C 
ENDBRANCH   7  11
BRANCH  10  15
HETATM   15  O   UNL     1      24.815  43.551  48.779  1.00  0.00    -0.354 OA
HETATM   16  C   UNL     1      23.940  42.509  48.365  1.00  0.00     0.210 C 
ENDBRANCH  10  15
ENDBRANCH   1   5
BRANCH   2  17
HETATM   17  C   UNL     1      25.222  47.854  49.593  1.00  0.00     0.077 C 
HETATM   18  C   UNL     1      23.932  47.653  49.282  1.00  0.00     0.038 C 
BRANCH  18  19
HETATM   19  C   UNL     1      22.966  48.743  49.114  1.00  0.00     0.075 A 
HETATM   20  N   UNL     1      21.650  48.438  49.204  1.00  0.00    -0.245 NA
HETATM   21  C   UNL     1      20.777  49.458  49.080  1.00  0.00     0.086 A 
HETATM   22  C   UNL     1      21.214  50.786  48.847  1.00  0.00     0.085 A 
HETATM   23  C   UNL     1      19.414  49.207  49.189  1.00  0.00     0.034 A 
HETATM   24  N   UNL     1      22.524  51.083  48.746  1.00  0.00    -0.256 NA
HETATM   25  C   UNL     1      20.268  51.796  48.726  1.00  0.00     0.034 A 
HETATM   26  C   UNL     1      23.384  50.047  48.890  1.00  0.00     0.148 A 
HETATM   27  C   UNL     1      18.902  51.531  48.836  1.00  0.00     0.002 A 
HETATM   28  C   UNL     1      18.474  50.231  49.072  1.00  0.00     0.002 A 
ENDBRANCH  18  19
ENDBRANCH   2  17
TORSDOF 5
ENDMDL
MODEL 9
REMARK VINA RESULT:      -8.3      1.564      3.209
REMARK  5 active torsions:
REMARK  status: ('A' for Active; 'I' for Inactive)
REMARK    1  A    between atoms: C_2  and  C_3 
REMARK    2  A    between atoms: C_5  and  N_6 
REMARK       I    between atoms: N_6  and  C_7 
REMARK    3  A    between atoms: C_7  and  C_8 
REMARK    4  A    between atoms: C_9  and  C_10 
REMARK    5  A    between atoms: C_21  and  O_22 
ROOT
HETATM    1  N   UNL     1      26.901  45.213  52.876  1.00  0.00    -0.321 N 
HETATM    2  C   UNL     1      26.483  46.512  53.041  1.00  0.00     0.245 C 
HETATM    3  O   UNL     1      26.993  47.379  53.737  1.00  0.00    -0.268 OA
HETATM    4  H   UNL     1      26.452  44.644  52.166  1.00  0.00     0.169 HD
ENDROOT
BRANCH   1   5
HETATM    5  C   UNL     1      27.965  44.550  53.529  1.00  0.00     0.069 A 
HETATM    6  C   UNL     1      28.619  45.060  54.656  1.00  0.00     0.040 A 
HETATM    7  C   UNL     1      29.661  44.355  55.293  1.00  0.00    -0.048 A 
HETATM    8  C   UNL     1      30.028  43.116  54.748  1.00  0.00     0.011 A 
HETATM    9  C   UNL     1      29.382  42.592  53.620  1.00  0.00     0.039 A 
HETATM   10  C   UNL     1      28.348  43.299  53.009  1.00  0.00     0.095 A 
BRANCH   7  11
HETATM   11  C   UNL     1      30.331  44.944  56.549  1.00  0.00    -0.024 C 
HETATM   12  C   UNL     1      31.101  46.226  56.165  1.00  0.00     0.019 C 
HETATM   13  C   UNL     1      31.317  43.920  57.151  1.00  0.00     0.019 C 
HETATM   14  C   UNL     1      29.334  45.327  57.666  1.00  0.00     0.019 C 
ENDBRANCH   7  11
BRANCH  10  15
HETATM   15  O   UNL     1      27.644  42.873  51.905  1.00  0.00    -0.354 OA
HETATM   16  C   UNL     1      27.410  41.475  51.791  1.00  0.00     0.210 C 
ENDBRANCH  10  15
ENDBRANCH   1   5
BRANCH   2  17
HETATM   17  C   UNL     1      25.281  46.806  52.216  1.00  0.00     0.077 C 
HETATM   18  C   UNL     1      25.425  47.153  50.927  1.00  0.00     0.038 C 
BRANCH  18  19
HETATM   19  C   UNL     1      24.296  47.496  50.057  1.00  0.00     0.075 A 
HETATM   20  N   UNL     1      23.893  48.788  50.028  1.00  0.00    -0.245 NA
HETATM   21  C   UNL     1      22.875  49.092  49.198  1.00  0.00     0.086 A 
HETATM   22  C   UNL     1      22.243  48.102  48.405  1.00  0.00     0.085 A 
HETATM   23  C   UNL     1      22.436  50.408  49.108  1.00  0.00     0.034 A 
HETATM   24  N   UNL     1      22.639  46.816  48.445  1.00  0.00    -0.256 NA
HETATM   25  C   UNL     1      21.197  48.474  47.568  1.00  0.00     0.034 A 
HETATM   26  C   UNL     1      23.674  46.535  49.273  1.00  0.00     0.148 A 
HETATM   27  C   UNL     1      20.765  49.798  47.488  1.00  0.00     0.002 A 
HETATM   28  C   UNL     1      21.389  50.770  48.260  1.00  0.00     0.002 A 
ENDBRANCH  18  19
ENDBRANCH   2  17
TORSDOF 5
ENDMDL
MODEL 10
REMARK VINA RESULT:      -8.2      1.916      3.688
REMARK  5 active torsions:
REMARK  status: ('A' for Active; 'I' for Inactive)
REMARK    1  A    between atoms: C_2  and  C_3 
REMARK    2  A    between atoms: C_5  and  N_6 
REMARK       I    between atoms: N_6  and  C_7 
REMARK    3  A    between atoms: C_7  and  C_8 
REMARK    4  A    between atoms: C_9  and  C_10 
REMARK    5  A    between atoms: C_21  and  O_22 
ROOT
HETATM    1  N   UNL     1      24.309  46.462  50.314  1.00  0.00    -0.321 N 
HETATM    2  C   UNL     1      24.668  47.745  49.977  1.00  0.00     0.245 C 
HETATM    3  O   UNL     1      25.789  48.236  49.991  1.00  0.00    -0.268 OA
HETATM    4  H   UNL     1      23.359  46.159  50.130  1.00  0.00     0.169 HD
ENDROOT
BRANCH   1   5
HETATM    5  C   UNL     1      25.130  45.435  50.834  1.00  0.00     0.069 A 
HETATM    6  C   UNL     1      25.702  45.474  52.111  1.00  0.00     0.040 A 
HETATM    7  C   UNL     1      26.496  44.416  52.602  1.00  0.00    -0.048 A 
HETATM    8  C   UNL     1      26.701  43.317  51.754  1.00  0.00     0.011 A 
HETATM    9  C   UNL     1      26.134  43.264  50.474  1.00  0.00     0.039 A 
HETATM   10  C   UNL     1      25.345  44.315  50.009  1.00  0.00     0.095 A 
BRANCH   7  11
HETATM   11  C   UNL     1      27.080  44.491  54.025  1.00  0.00    -0.024 C 
HETATM   12  C   UNL     1      26.231  43.617  54.974  1.00  0.00     0.019 C 
HETATM   13  C   UNL     1      27.064  45.950  54.527  1.00  0.00     0.019 C 
HETATM   14  C   UNL     1      28.539  43.990  54.127  1.00  0.00     0.019 C 
ENDBRANCH   7  11
BRANCH  10  15
HETATM   15  O   UNL     1      24.736  44.360  48.775  1.00  0.00    -0.354 OA
HETATM   16  C   UNL     1      23.891  43.268  48.433  1.00  0.00     0.210 C 
ENDBRANCH  10  15
ENDBRANCH   1   5
BRANCH   2  17
HETATM   17  C   UNL     1      23.494  48.539  49.529  1.00  0.00     0.077 C 
HETATM   18  C   UNL     1      22.540  47.959  48.783  1.00  0.00     0.038 C 
BRANCH  18  19
HETATM   19  C   UNL     1      21.372  48.680  48.270  1.00  0.00     0.075 A 
HETATM   20  N   UNL     1      21.144  49.928  48.743  1.00  0.00    -0.245 NA
HETATM   21  C   UNL     1      20.084  50.589  48.236  1.00  0.00     0.086 A 
HETATM   22  C   UNL     1      19.235  50.000  47.266  1.00  0.00     0.085 A 
HETATM   23  C   UNL     1      19.817  51.884  48.667  1.00  0.00     0.034 A 
HETATM   24  N   UNL     1      19.459  48.754  46.806  1.00  0.00    -0.256 NA
HETATM   25  C   UNL     1      18.157  50.728  46.780  1.00  0.00     0.034 A 
HETATM   26  C   UNL     1      20.538  48.113  47.317  1.00  0.00     0.148 A 
HETATM   27  C   UNL     1      17.899  52.027  47.222  1.00  0.00     0.002 A 
HETATM   28  C   UNL     1      18.734  52.608  48.167  1.00  0.00     0.002 A 
ENDBRANCH  18  19
ENDBRANCH   2  17
TORSDOF 5
ENDMDL
