MODEL 1
REMARK VINA RESULT:      -8.0      0.000      0.000
REMARK  4 active torsions:
REMARK  status: ('A' for Active; 'I' for Inactive)
REMARK    1  A    between atoms: C_6  and  C_7 
REMARK       I    between atoms: C_7  and  N_8 
REMARK    2  A    between atoms: N_8  and  C_9 
REMARK    3  A    between atoms: C_10  and  O_11 
REMARK    4  A    between atoms: N_13  and  C_15 
ROOT
HETATM    1  C   UNL     1      29.148  43.087  53.110  1.00  0.00     0.252 C 
HETATM    2  N   UNL     1      27.924  43.369  52.536  1.00  0.00    -0.348 N 
HETATM    3  O   UNL     1      29.900  42.259  52.606  1.00  0.00    -0.268 OA
HETATM    4  H   UNL     1      27.244  43.918  53.050  1.00  0.00     0.163 HD
ENDROOT
BRANCH   2   5
HETATM    5  C   UNL     1      27.485  42.708  51.309  1.00  0.00     0.141 C 
HETATM    6  C   UNL     1      26.414  43.488  50.525  1.00  0.00     0.168 C 
HETATM    7  C   UNL     1      25.207  42.552  50.457  1.00  0.00     0.269 C 
HETATM    8  N   UNL     1      25.797  41.143  50.473  1.00  0.00    -0.063 N 
HETATM    9  H   UNL     1      25.075  40.511  50.841  1.00  0.00     0.280 HD
HETATM   10  C   UNL     1      26.890  41.298  51.518  1.00  0.00     0.263 C 
BRANCH   6  11
HETATM   11  O   UNL     1      26.893  43.744  49.199  1.00  0.00    -0.392 OA
HETATM   12  H   UNL     1      26.508  44.591  48.899  1.00  0.00     0.210 HD
ENDBRANCH   6  11
BRANCH   8  13
HETATM   13  C   UNL     1      26.265  40.591  49.127  1.00  0.00     0.180 C 
HETATM   14  C   UNL     1      26.783  39.163  49.327  1.00  0.00     0.039 C 
HETATM   15  C   UNL     1      25.107  40.557  48.129  1.00  0.00     0.039 C 
ENDBRANCH   8  13
ENDBRANCH   2   5
BRANCH   1  16
HETATM   16  C   UNL     1      29.520  43.805  54.362  1.00  0.00     0.035 A 
HETATM   17  C   UNL     1      30.561  43.385  55.190  1.00  0.00     0.041 A 
HETATM   18  C   UNL     1      30.854  44.089  56.368  1.00  0.00     0.042 A 
HETATM   19  C   UNL     1      30.120  45.227  56.744  1.00  0.00    -0.018 A 
HETATM   20 CL   UNL     1      32.143  43.463  57.337  1.00  0.00    -0.084 Cl
HETATM   21  C   UNL     1      30.413  45.964  58.026  1.00  0.00     0.052 C 
HETATM   22  C   UNL     1      29.049  45.609  55.916  1.00  0.00     0.042 A 
HETATM   23  C   UNL     1      28.757  44.913  54.738  1.00  0.00     0.041 A 
HETATM   24 CL   UNL     1      28.018  46.940  56.311  1.00  0.00    -0.084 Cl
ENDBRANCH   1  16
TORSDOF 4
ENDMDL
MODEL 2
REMARK VINA RESULT:      -8.0      0.424      2.038
REMARK  4 active torsions:
REMARK  status: ('A' for Active; 'I' for Inactive)
REMARK    1  A    between atoms: C_6  and  C_7 
REMARK       I    between atoms: C_7  and  N_8 
REMARK    2  A    between atoms: N_8  and  C_9 
REMARK    3  A    between atoms: C_10  and  O_11 
REMARK    4  A    between atoms: N_13  and  C_15 
ROOT
HETATM    1  C   UNL     1      29.088  42.881  53.010  1.00  0.00     0.252 C 
HETATM    2  N   UNL     1      27.882  43.062  52.362  1.00  0.00    -0.348 N 
HETATM    3  O   UNL     1      29.905  42.064  52.596  1.00  0.00    -0.268 OA
HETATM    4  H   UNL     1      27.150  43.604  52.807  1.00  0.00     0.163 HD
ENDROOT
BRANCH   2   5
HETATM    5  C   UNL     1      27.540  42.306  51.159  1.00  0.00     0.141 C 
HETATM    6  C   UNL     1      26.497  42.995  50.260  1.00  0.00     0.168 C 
HETATM    7  C   UNL     1      25.325  42.016  50.185  1.00  0.00     0.269 C 
HETATM    8  N   UNL     1      25.954  40.632  50.333  1.00  0.00    -0.063 N 
HETATM    9  H   UNL     1      25.230  40.002  50.699  1.00  0.00     0.280 HD
HETATM   10  C   UNL     1      26.976  40.894  51.428  1.00  0.00     0.263 C 
BRANCH   6  11
HETATM   11  O   UNL     1      27.049  43.178  48.951  1.00  0.00    -0.392 OA
HETATM   12  H   UNL     1      26.660  42.502  48.363  1.00  0.00     0.210 HD
ENDBRANCH   6  11
BRANCH   8  13
HETATM   13  C   UNL     1      26.522  40.008  49.059  1.00  0.00     0.180 C 
HETATM   14  C   UNL     1      26.875  38.542  49.336  1.00  0.00     0.039 C 
HETATM   15  C   UNL     1      25.489  40.058  47.932  1.00  0.00     0.039 C 
ENDBRANCH   8  13
ENDBRANCH   2   5
BRANCH   1  16
HETATM   16  C   UNL     1      29.359  43.691  54.231  1.00  0.00     0.035 A 
HETATM   17  C   UNL     1      28.641  44.846  54.543  1.00  0.00     0.041 A 
HETATM   18  C   UNL     1      28.954  45.582  55.695  1.00  0.00     0.042 A 
HETATM   19  C   UNL     1      29.984  45.182  56.564  1.00  0.00    -0.018 A 
HETATM   20 CL   UNL     1      28.022  47.013  55.970  1.00  0.00    -0.084 Cl
HETATM   21  C   UNL     1      30.342  45.990  57.785  1.00  0.00     0.052 C 
HETATM   22  C   UNL     1      30.723  44.039  56.209  1.00  0.00     0.042 A 
HETATM   23  C   UNL     1      30.410  43.300  55.062  1.00  0.00     0.041 A 
HETATM   24 CL   UNL     1      32.068  43.492  57.147  1.00  0.00    -0.084 Cl
ENDBRANCH   1  16
TORSDOF 4
ENDMDL
MODEL 3
REMARK VINA RESULT:      -7.7      1.412      2.577
REMARK  4 active torsions:
REMARK  status: ('A' for Active; 'I' for Inactive)
REMARK    1  A    between atoms: C_6  and  C_7 
REMARK       I    between atoms: C_7  and  N_8 
REMARK    2  A    between atoms: N_8  and  C_9 
REMARK    3  A    between atoms: C_10  and  O_11 
REMARK    4  A    between atoms: N_13  and  C_15 
ROOT
HETATM    1  C   UNL     1      28.654  42.064  52.350  1.00  0.00     0.252 C 
HETATM    2  N   UNL     1      27.786  42.388  51.326  1.00  0.00    -0.348 N 
HETATM    3  O   UNL     1      29.219  40.975  52.372  1.00  0.00    -0.268 OA
HETATM    4  H   UNL     1      27.197  43.208  51.408  1.00  0.00     0.163 HD
ENDROOT
BRANCH   2   5
HETATM    5  C   UNL     1      27.518  41.458  50.230  1.00  0.00     0.141 C 
HETATM    6  C   UNL     1      26.810  42.101  49.022  1.00  0.00     0.168 C 
HETATM    7  C   UNL     1      25.497  41.330  48.872  1.00  0.00     0.269 C 
HETATM    8  N   UNL     1      25.801  39.927  49.392  1.00  0.00    -0.063 N 
HETATM    9  H   UNL     1      24.911  39.514  49.701  1.00  0.00     0.280 HD
HETATM   10  C   UNL     1      26.643  40.246  50.617  1.00  0.00     0.263 C 
BRANCH   6  11
HETATM   11  O   UNL     1      27.611  41.910  47.850  1.00  0.00    -0.392 OA
HETATM   12  H   UNL     1      28.197  41.144  48.007  1.00  0.00     0.210 HD
ENDBRANCH   6  11
BRANCH   8  13
HETATM   13  C   UNL     1      26.448  38.963  48.398  1.00  0.00     0.180 C 
HETATM   14  C   UNL     1      26.700  37.622  49.096  1.00  0.00     0.039 C 
HETATM   15  C   UNL     1      25.525  38.726  47.203  1.00  0.00     0.039 C 
ENDBRANCH   8  13
ENDBRANCH   2   5
BRANCH   1  16
HETATM   16  C   UNL     1      28.872  43.068  53.430  1.00  0.00     0.035 A 
HETATM   17  C   UNL     1      28.143  44.254  53.515  1.00  0.00     0.041 A 
HETATM   18  C   UNL     1      28.405  45.173  54.542  1.00  0.00     0.042 A 
HETATM   19  C   UNL     1      29.396  44.928  55.509  1.00  0.00    -0.018 A 
HETATM   20 CL   UNL     1      27.465  46.624  54.534  1.00  0.00    -0.084 Cl
HETATM   21  C   UNL     1      29.701  45.929  56.594  1.00  0.00     0.052 C 
HETATM   22  C   UNL     1      30.147  43.746  55.382  1.00  0.00     0.042 A 
HETATM   23  C   UNL     1      29.885  42.825  54.361  1.00  0.00     0.041 A 
HETATM   24 CL   UNL     1      31.448  43.370  56.456  1.00  0.00    -0.084 Cl
ENDBRANCH   1  16
TORSDOF 4
ENDMDL
MODEL 4
REMARK VINA RESULT:      -7.7      2.126      2.300
REMARK  4 active torsions:
REMARK  status: ('A' for Active; 'I' for Inactive)
REMARK    1  A    between atoms: C_6  and  C_7 
REMARK       I    between atoms: C_7  and  N_8 
REMARK    2  A    between atoms: N_8  and  C_9 
REMARK    3  A    between atoms: C_10  and  O_11 
REMARK    4  A    between atoms: N_13  and  C_15 
ROOT
HETATM    1  C   UNL     1      28.483  44.046  53.333  1.00  0.00     0.252 C 
HETATM    2  N   UNL     1      27.219  44.543  53.086  1.00  0.00    -0.348 N 
HETATM    3  O   UNL     1      29.049  43.333  52.509  1.00  0.00    -0.268 OA
HETATM    4  H   UNL     1      26.696  44.979  53.837  1.00  0.00     0.163 HD
ENDROOT
BRANCH   2   5
HETATM    5  C   UNL     1      26.515  44.255  51.838  1.00  0.00     0.141 C 
HETATM    6  C   UNL     1      26.701  45.329  50.750  1.00  0.00     0.168 C 
HETATM    7  C   UNL     1      25.291  45.833  50.441  1.00  0.00     0.269 C 
HETATM    8  N   UNL     1      24.377  44.640  50.709  1.00  0.00    -0.063 N 
HETATM    9  H   UNL     1      23.442  45.010  50.923  1.00  0.00     0.280 HD
HETATM   10  C   UNL     1      24.988  44.087  51.987  1.00  0.00     0.263 C 
BRANCH   6  11
HETATM   11  O   UNL     1      27.258  44.723  49.578  1.00  0.00    -0.392 OA
HETATM   12  H   UNL     1      26.519  44.473  48.989  1.00  0.00     0.210 HD
ENDBRANCH   6  11
BRANCH   8  13
HETATM   13  C   UNL     1      24.234  43.629  49.572  1.00  0.00     0.180 C 
HETATM   14  C   UNL     1      23.088  42.666  49.902  1.00  0.00     0.039 C 
HETATM   15  C   UNL     1      23.912  44.341  48.259  1.00  0.00     0.039 C 
ENDBRANCH   8  13
ENDBRANCH   2   5
BRANCH   1  16
HETATM   16  C   UNL     1      29.131  44.386  54.631  1.00  0.00     0.035 A 
HETATM   17  C   UNL     1      30.267  43.727  55.102  1.00  0.00     0.041 A 
HETATM   18  C   UNL     1      30.823  44.076  56.342  1.00  0.00     0.042 A 
HETATM   19  C   UNL     1      30.263  45.091  57.137  1.00  0.00    -0.018 A 
HETATM   20 CL   UNL     1      32.211  43.173  56.843  1.00  0.00    -0.084 Cl
HETATM   21  C   UNL     1      30.841  45.444  58.484  1.00  0.00     0.052 C 
HETATM   22  C   UNL     1      29.095  45.714  56.663  1.00  0.00     0.042 A 
HETATM   23  C   UNL     1      28.541  45.372  55.425  1.00  0.00     0.041 A 
HETATM   24 CL   UNL     1      28.263  46.918  57.584  1.00  0.00    -0.084 Cl
ENDBRANCH   1  16
TORSDOF 4
ENDMDL
MODEL 5
REMARK VINA RESULT:      -7.6      3.566      4.774
REMARK  4 active torsions:
REMARK  status: ('A' for Active; 'I' for Inactive)
REMARK    1  A    between atoms: C_6  and  C_7 
REMARK       I    between atoms: C_7  and  N_8 
REMARK    2  A    between atoms: N_8  and  C_9 
REMARK    3  A    between atoms: C_10  and  O_11 
REMARK    4  A    between atoms: N_13  and  C_15 
ROOT
HETATM    1  C   UNL     1      26.222  45.258  53.446  1.00  0.00     0.252 C 
HETATM    2  N   UNL     1      26.303  45.666  52.129  1.00  0.00    -0.348 N 
HETATM    3  O   UNL     1      25.135  45.173  54.009  1.00  0.00    -0.268 OA
HETATM    4  H   UNL     1      27.205  45.901  51.731  1.00  0.00     0.163 HD
ENDROOT
BRANCH   2   5
HETATM    5  C   UNL     1      25.107  45.996  51.356  1.00  0.00     0.141 C 
HETATM    6  C   UNL     1      24.499  44.800  50.600  1.00  0.00     0.168 C 
HETATM    7  C   UNL     1      24.532  45.201  49.125  1.00  0.00     0.269 C 
HETATM    8  N   UNL     1      24.405  46.723  49.125  1.00  0.00    -0.063 N 
HETATM    9  H   UNL     1      24.826  47.067  48.253  1.00  0.00     0.280 HD
HETATM   10  C   UNL     1      25.316  47.090  50.286  1.00  0.00     0.263 C 
BRANCH   6  11
HETATM   11  O   UNL     1      23.139  44.622  51.015  1.00  0.00    -0.392 OA
HETATM   12  H   UNL     1      22.785  43.837  50.554  1.00  0.00     0.210 HD
ENDBRANCH   6  11
BRANCH   8  13
HETATM   13  C   UNL     1      22.986  47.283  49.217  1.00  0.00     0.180 C 
HETATM   14  C   UNL     1      23.056  48.813  49.263  1.00  0.00     0.039 C 
HETATM   15  C   UNL     1      22.166  46.867  47.996  1.00  0.00     0.039 C 
ENDBRANCH   8  13
ENDBRANCH   2   5
BRANCH   1  16
HETATM   16  C   UNL     1      27.489  44.941  54.163  1.00  0.00     0.035 A 
HETATM   17  C   UNL     1      27.859  45.570  55.352  1.00  0.00     0.041 A 
HETATM   18  C   UNL     1      29.074  45.246  55.973  1.00  0.00     0.042 A 
HETATM   19  C   UNL     1      29.945  44.287  55.427  1.00  0.00    -0.018 A 
HETATM   20 CL   UNL     1      29.450  46.109  57.425  1.00  0.00    -0.084 Cl
HETATM   21  C   UNL     1      31.265  43.962  56.076  1.00  0.00     0.052 C 
HETATM   22  C   UNL     1      29.571  43.695  54.207  1.00  0.00     0.042 A 
HETATM   23  C   UNL     1      28.358  44.012  53.587  1.00  0.00     0.041 A 
HETATM   24 CL   UNL     1      30.592  42.563  53.390  1.00  0.00    -0.084 Cl
ENDBRANCH   1  16
TORSDOF 4
ENDMDL
MODEL 6
REMARK VINA RESULT:      -7.5      2.730      4.370
REMARK  4 active torsions:
REMARK  status: ('A' for Active; 'I' for Inactive)
REMARK    1  A    between atoms: C_6  and  C_7 
REMARK       I    between atoms: C_7  and  N_8 
REMARK    2  A    between atoms: N_8  and  C_9 
REMARK    3  A    between atoms: C_10  and  O_11 
REMARK    4  A    between atoms: N_13  and  C_15 
ROOT
HETATM    1  C   UNL     1      27.735  41.442  51.755  1.00  0.00     0.252 C 
HETATM    2  N   UNL     1      28.762  40.595  51.387  1.00  0.00    -0.348 N 
HETATM    3  O   UNL     1      26.608  41.298  51.292  1.00  0.00    -0.268 OA
HETATM    4  H   UNL     1      29.717  40.827  51.635  1.00  0.00     0.163 HD
ENDROOT
BRANCH   2   5
HETATM    5  C   UNL     1      28.546  39.494  50.451  1.00  0.00     0.141 C 
HETATM    6  C   UNL     1      29.538  38.327  50.615  1.00  0.00     0.168 C 
HETATM    7  C   UNL     1      30.249  38.215  49.266  1.00  0.00     0.269 C 
HETATM    8  N   UNL     1      29.228  38.696  48.238  1.00  0.00    -0.063 N 
HETATM    9  H   UNL     1      29.750  39.032  47.419  1.00  0.00     0.280 HD
HETATM   10  C   UNL     1      28.629  39.892  48.961  1.00  0.00     0.263 C 
BRANCH   6  11
HETATM   11  O   UNL     1      28.809  37.120  50.871  1.00  0.00    -0.392 OA
HETATM   12  H   UNL     1      28.997  36.844  51.789  1.00  0.00     0.210 HD
ENDBRANCH   6  11
BRANCH   8  13
HETATM   13  C   UNL     1      28.212  37.660  47.757  1.00  0.00     0.180 C 
HETATM   14  C   UNL     1      26.884  38.364  47.459  1.00  0.00     0.039 C 
HETATM   15  C   UNL     1      28.705  36.981  46.479  1.00  0.00     0.039 C 
ENDBRANCH   8  13
ENDBRANCH   2   5
BRANCH   1  16
HETATM   16  C   UNL     1      28.040  42.541  52.714  1.00  0.00     0.035 A 
HETATM   17  C   UNL     1      27.329  43.742  52.735  1.00  0.00     0.041 A 
HETATM   18  C   UNL     1      27.674  44.750  53.647  1.00  0.00     0.042 A 
HETATM   19  C   UNL     1      28.729  44.583  54.561  1.00  0.00    -0.018 A 
HETATM   20 CL   UNL     1      26.748  46.209  53.565  1.00  0.00    -0.084 Cl
HETATM   21  C   UNL     1      29.120  45.679  55.520  1.00  0.00     0.052 C 
HETATM   22  C   UNL     1      29.458  43.382  54.496  1.00  0.00     0.042 A 
HETATM   23  C   UNL     1      29.115  42.372  53.590  1.00  0.00     0.041 A 
HETATM   24 CL   UNL     1      30.830  43.090  55.507  1.00  0.00    -0.084 Cl
ENDBRANCH   1  16
TORSDOF 4
ENDMDL
MODEL 7
REMARK VINA RESULT:      -7.5      3.573      4.585
REMARK  4 active torsions:
REMARK  status: ('A' for Active; 'I' for Inactive)
REMARK    1  A    between atoms: C_6  and  C_7 
REMARK       I    between atoms: C_7  and  N_8 
REMARK    2  A    between atoms: N_8  and  C_9 
REMARK    3  A    between atoms: C_10  and  O_11 
REMARK    4  A    between atoms: N_13  and  C_15 
ROOT
HETATM    1  C   UNL     1      25.865  44.946  53.062  1.00  0.00     0.252 C 
HETATM    2  N   UNL     1      25.867  45.453  51.777  1.00  0.00    -0.348 N 
HETATM    3  O   UNL     1      24.809  44.685  53.631  1.00  0.00    -0.268 OA
HETATM    4  H   UNL     1      26.724  45.826  51.387  1.00  0.00     0.163 HD
ENDROOT
BRANCH   2   5
HETATM    5  C   UNL     1      24.623  45.684  51.046  1.00  0.00     0.141 C 
HETATM    6  C   UNL     1      24.079  44.436  50.324  1.00  0.00     0.168 C 
HETATM    7  C   UNL     1      24.030  44.819  48.845  1.00  0.00     0.269 C 
HETATM    8  N   UNL     1      23.790  46.327  48.834  1.00  0.00    -0.063 N 
HETATM    9  H   UNL     1      24.153  46.691  47.944  1.00  0.00     0.280 HD
HETATM   10  C   UNL     1      24.712  46.776  49.957  1.00  0.00     0.263 C 
BRANCH   6  11
HETATM   11  O   UNL     1      22.752  44.163  50.790  1.00  0.00    -0.392 OA
HETATM   12  H   UNL     1      22.673  43.198  50.923  1.00  0.00     0.210 HD
ENDBRANCH   6  11
BRANCH   8  13
HETATM   13  C   UNL     1      22.338  46.782  48.972  1.00  0.00     0.180 C 
HETATM   14  C   UNL     1      22.252  48.279  48.654  1.00  0.00     0.039 C 
HETATM   15  C   UNL     1      21.443  46.022  47.993  1.00  0.00     0.039 C 
ENDBRANCH   8  13
ENDBRANCH   2   5
BRANCH   1  16
HETATM   16  C   UNL     1      27.177  44.741  53.739  1.00  0.00     0.035 A 
HETATM   17  C   UNL     1      28.143  43.857  53.257  1.00  0.00     0.041 A 
HETATM   18  C   UNL     1      29.352  43.689  53.947  1.00  0.00     0.042 A 
HETATM   19  C   UNL     1      29.628  44.398  55.129  1.00  0.00    -0.018 A 
HETATM   20 CL   UNL     1      30.466  42.545  53.279  1.00  0.00    -0.084 Cl
HETATM   21  C   UNL     1      30.913  44.194  55.889  1.00  0.00     0.052 C 
HETATM   22  C   UNL     1      28.624  45.253  55.619  1.00  0.00     0.042 A 
HETATM   23  C   UNL     1      27.418  45.427  54.931  1.00  0.00     0.041 A 
HETATM   24 CL   UNL     1      28.805  46.118  57.105  1.00  0.00    -0.084 Cl
ENDBRANCH   1  16
TORSDOF 4
ENDMDL
MODEL 8
REMARK VINA RESULT:      -7.1      2.090      2.905
REMARK  4 active torsions:
REMARK  status: ('A' for Active; 'I' for Inactive)
REMARK    1  A    between atoms: C_6  and  C_7 
REMARK       I    between atoms: C_7  and  N_8 
REMARK    2  A    between atoms: N_8  and  C_9 
REMARK    3  A    between atoms: C_10  and  O_11 
REMARK    4  A    between atoms: N_13  and  C_15 
ROOT
HETATM    1  C   UNL     1      27.427  42.583  52.100  1.00  0.00     0.252 C 
HETATM    2  N   UNL     1      28.218  41.649  51.460  1.00  0.00    -0.348 N 
HETATM    3  O   UNL     1      26.251  42.732  51.780  1.00  0.00    -0.268 OA
HETATM    4  H   UNL     1      29.220  41.655  51.607  1.00  0.00     0.163 HD
ENDROOT
BRANCH   2   5
HETATM    5  C   UNL     1      27.687  40.800  50.395  1.00  0.00     0.141 C 
HETATM    6  C   UNL     1      28.476  39.495  50.182  1.00  0.00     0.168 C 
HETATM    7  C   UNL     1      28.965  39.554  48.734  1.00  0.00     0.269 C 
HETATM    8  N   UNL     1      27.909  40.373  47.993  1.00  0.00    -0.063 N 
HETATM    9  H   UNL     1      28.363  40.788  47.170  1.00  0.00     0.280 HD
HETATM   10  C   UNL     1      27.632  41.473  49.006  1.00  0.00     0.263 C 
BRANCH   6  11
HETATM   11  O   UNL     1      27.593  38.378  50.341  1.00  0.00    -0.392 OA
HETATM   12  H   UNL     1      27.332  38.071  49.450  1.00  0.00     0.210 HD
ENDBRANCH   6  11
BRANCH   8  13
HETATM   13  C   UNL     1      26.674  39.610  47.516  1.00  0.00     0.180 C 
HETATM   14  C   UNL     1      25.748  40.576  46.769  1.00  0.00     0.039 C 
HETATM   15  C   UNL     1      27.075  38.482  46.565  1.00  0.00     0.039 C 
ENDBRANCH   8  13
ENDBRANCH   2   5
BRANCH   1  16
HETATM   16  C   UNL     1      28.044  43.409  53.175  1.00  0.00     0.035 A 
HETATM   17  C   UNL     1      29.136  42.973  53.927  1.00  0.00     0.041 A 
HETATM   18  C   UNL     1      29.664  43.786  54.941  1.00  0.00     0.042 A 
HETATM   19  C   UNL     1      29.120  45.050  55.226  1.00  0.00    -0.018 A 
HETATM   20 CL   UNL     1      30.997  43.135  55.831  1.00  0.00    -0.084 Cl
HETATM   21  C   UNL     1      29.666  45.909  56.337  1.00  0.00     0.052 C 
HETATM   22  C   UNL     1      27.995  45.452  54.485  1.00  0.00     0.042 A 
HETATM   23  C   UNL     1      27.468  44.647  53.469  1.00  0.00     0.041 A 
HETATM   24 CL   UNL     1      27.182  46.946  54.795  1.00  0.00    -0.084 Cl
ENDBRANCH   1  16
TORSDOF 4
ENDMDL
MODEL 9
REMARK VINA RESULT:      -6.6     15.173     17.090
REMARK  4 active torsions:
REMARK  status: ('A' for Active; 'I' for Inactive)
REMARK    1  A    between atoms: C_6  and  C_7 
REMARK       I    between atoms: C_7  and  N_8 
REMARK    2  A    between atoms: N_8  and  C_9 
REMARK    3  A    between atoms: C_10  and  O_11 
REMARK    4  A    between atoms: N_13  and  C_15 
ROOT
HETATM    1  C   UNL     1      37.798  48.826  65.539  1.00  0.00     0.252 C 
HETATM    2  N   UNL     1      37.406  47.557  65.916  1.00  0.00    -0.348 N 
HETATM    3  O   UNL     1      38.306  49.025  64.439  1.00  0.00    -0.268 OA
HETATM    4  H   UNL     1      37.154  47.375  66.880  1.00  0.00     0.163 HD
ENDROOT
BRANCH   2   5
HETATM    5  C   UNL     1      37.565  46.412  65.022  1.00  0.00     0.141 C 
HETATM    6  C   UNL     1      36.452  45.355  65.152  1.00  0.00     0.168 C 
HETATM    7  C   UNL     1      37.170  44.066  65.553  1.00  0.00     0.269 C 
HETATM    8  N   UNL     1      38.559  44.176  64.928  1.00  0.00    -0.063 N 
HETATM    9  H   UNL     1      39.193  43.584  65.481  1.00  0.00     0.280 HD
HETATM   10  C   UNL     1      38.887  45.634  65.204  1.00  0.00     0.263 C 
BRANCH   6  11
HETATM   11  O   UNL     1      35.823  45.173  63.878  1.00  0.00    -0.392 OA
HETATM   12  H   UNL     1      35.744  46.050  63.453  1.00  0.00     0.210 HD
ENDBRANCH   6  11
BRANCH   8  13
HETATM   13  C   UNL     1      38.678  43.754  63.464  1.00  0.00     0.180 C 
HETATM   14  C   UNL     1      40.160  43.577  63.115  1.00  0.00     0.039 C 
HETATM   15  C   UNL     1      37.958  42.425  63.229  1.00  0.00     0.039 C 
ENDBRANCH   8  13
ENDBRANCH   2   5
BRANCH   1  16
HETATM   16  C   UNL     1      37.602  49.940  66.510  1.00  0.00     0.035 A 
HETATM   17  C   UNL     1      37.181  49.729  67.823  1.00  0.00     0.041 A 
HETATM   18  C   UNL     1      36.993  50.817  68.688  1.00  0.00     0.042 A 
HETATM   19  C   UNL     1      37.223  52.138  68.265  1.00  0.00    -0.018 A 
HETATM   20 CL   UNL     1      36.439  50.444  70.284  1.00  0.00    -0.084 Cl
HETATM   21  C   UNL     1      36.990  53.310  69.184  1.00  0.00     0.052 C 
HETATM   22  C   UNL     1      37.607  52.331  66.926  1.00  0.00     0.042 A 
HETATM   23  C   UNL     1      37.800  51.248  66.062  1.00  0.00     0.041 A 
HETATM   24 CL   UNL     1      37.840  53.910  66.261  1.00  0.00    -0.084 Cl
ENDBRANCH   1  16
TORSDOF 4
ENDMDL
MODEL 10
REMARK VINA RESULT:      -6.6      3.648      5.006
REMARK  4 active torsions:
REMARK  status: ('A' for Active; 'I' for Inactive)
REMARK    1  A    between atoms: C_6  and  C_7 
REMARK       I    between atoms: C_7  and  N_8 
REMARK    2  A    between atoms: N_8  and  C_9 
REMARK    3  A    between atoms: C_10  and  O_11 
REMARK    4  A    between atoms: N_13  and  C_15 
ROOT
HETATM    1  C   UNL     1      25.002  46.119  51.432  1.00  0.00     0.252 C 
HETATM    2  N   UNL     1      24.533  44.881  51.038  1.00  0.00    -0.348 N 
HETATM    3  O   UNL     1      24.730  47.127  50.787  1.00  0.00    -0.268 OA
HETATM    4  H   UNL     1      24.904  44.043  51.471  1.00  0.00     0.163 HD
ENDROOT
BRANCH   2   5
HETATM    5  C   UNL     1      23.691  44.725  49.854  1.00  0.00     0.141 C 
HETATM    6  C   UNL     1      22.548  43.708  50.028  1.00  0.00     0.168 C 
HETATM    7  C   UNL     1      22.791  42.646  48.954  1.00  0.00     0.269 C 
HETATM    8  N   UNL     1      23.482  43.389  47.812  1.00  0.00    -0.063 N 
HETATM    9  H   UNL     1      24.023  42.697  47.278  1.00  0.00     0.280 HD
HETATM   10  C   UNL     1      24.446  44.276  48.585  1.00  0.00     0.263 C 
BRANCH   6  11
HETATM   11  O   UNL     1      21.296  44.358  49.780  1.00  0.00    -0.392 OA
HETATM   12  H   UNL     1      20.632  43.975  50.387  1.00  0.00     0.210 HD
ENDBRANCH   6  11
BRANCH   8  13
HETATM   13  C   UNL     1      22.568  44.128  46.835  1.00  0.00     0.180 C 
HETATM   14  C   UNL     1      23.308  44.318  45.507  1.00  0.00     0.039 C 
HETATM   15  C   UNL     1      21.296  43.321  46.576  1.00  0.00     0.039 C 
ENDBRANCH   8  13
ENDBRANCH   2   5
BRANCH   1  16
HETATM   16  C   UNL     1      25.856  46.192  52.651  1.00  0.00     0.035 A 
HETATM   17  C   UNL     1      25.794  47.256  53.552  1.00  0.00     0.041 A 
HETATM   18  C   UNL     1      26.637  47.282  54.673  1.00  0.00     0.042 A 
HETATM   19  C   UNL     1      27.556  46.249  54.924  1.00  0.00    -0.018 A 
HETATM   20 CL   UNL     1      26.500  48.663  55.706  1.00  0.00    -0.084 Cl
HETATM   21  C   UNL     1      28.485  46.292  56.110  1.00  0.00     0.052 C 
HETATM   22  C   UNL     1      27.631  45.206  53.982  1.00  0.00     0.042 A 
HETATM   23  C   UNL     1      26.788  45.175  52.865  1.00  0.00     0.041 A 
HETATM   24 CL   UNL     1      28.777  43.920  54.131  1.00  0.00    -0.084 Cl
ENDBRANCH   1  16
TORSDOF 4
ENDMDL
