MODEL 1
REMARK VINA RESULT:     -10.0      0.000      0.000
REMARK  8 active torsions:
REMARK  status: ('A' for Active; 'I' for Inactive)
REMARK    1  A    between atoms: C_4  and  C_5 
REMARK       I    between atoms: C_5  and  N_6 
REMARK    2  A    between atoms: N_6  and  C_7 
REMARK    3  A    between atoms: C_7  and  C_8 
REMARK    4  A    between atoms: C_8  and  C_9 
REMARK       I    between atoms: C_9  and  N_10 
REMARK    5  A    between atoms: N_10  and  N_11 
REMARK       I    between atoms: N_11  and  C_12 
REMARK    6  A    between atoms: C_12  and  C_13 
REMARK    7  A    between atoms: N_15  and  C_16 
REMARK    8  A    between atoms: C_24  and  O_25 
ROOT
HETATM    1  N   UNL     1      24.830  47.082  50.407  1.00  0.00    -0.262 N 
HETATM    2  C   UNL     1      25.418  48.092  49.664  1.00  0.00     0.293 C 
HETATM    3  O   UNL     1      26.635  48.148  49.494  1.00  0.00    -0.264 OA
HETATM    4  H   UNL     1      23.817  46.962  50.376  1.00  0.00     0.190 HD
ENDROOT
BRANCH   1   5
HETATM    5  N   UNL     1      25.619  45.999  50.822  1.00  0.00    -0.267 N 
HETATM    6  C   UNL     1      25.733  44.921  49.964  1.00  0.00     0.237 C 
HETATM    7  O   UNL     1      25.040  44.788  48.958  1.00  0.00    -0.272 OA
HETATM    8  H   UNL     1      26.367  46.230  51.475  1.00  0.00     0.190 HD
BRANCH   6   9
HETATM    9  C   UNL     1      26.736  43.894  50.438  1.00  0.00     0.124 C 
BRANCH   9  10
HETATM   10  C   UNL     1      26.337  43.324  51.792  1.00  0.00     0.132 C 
BRANCH  10  11
HETATM   11  N   UNL     1      27.411  43.398  52.768  1.00  0.00    -0.356 N 
HETATM   12  C   UNL     1      27.605  44.513  53.556  1.00  0.00     0.251 C 
HETATM   13  O   UNL     1      26.857  45.485  53.539  1.00  0.00    -0.268 OA
HETATM   14  H   UNL     1      27.961  42.566  52.932  1.00  0.00     0.162 HD
BRANCH  12  15
HETATM   15  C   UNL     1      28.772  44.479  54.483  1.00  0.00     0.032 A 
HETATM   16  C   UNL     1      29.048  45.531  55.365  1.00  0.00     0.017 A 
HETATM   17  C   UNL     1      30.147  45.451  56.226  1.00  0.00     0.001 A 
HETATM   18  C   UNL     1      30.963  44.320  56.214  1.00  0.00     0.000 A 
HETATM   19  C   UNL     1      30.682  43.263  55.349  1.00  0.00     0.001 A 
HETATM   20  C   UNL     1      29.586  43.339  54.487  1.00  0.00     0.017 A 
ENDBRANCH  12  15
ENDBRANCH  10  11
ENDBRANCH   9  10
ENDBRANCH   6   9
ENDBRANCH   1   5
BRANCH   2  21
HETATM   21  C   UNL     1      24.453  49.054  49.116  1.00  0.00     0.181 A 
HETATM   22  N   UNL     1      23.193  49.144  49.593  1.00  0.00    -0.159 NA
HETATM   23  N   UNL     1      22.606  50.142  48.876  1.00  0.00    -0.242 N 
HETATM   24  C   UNL     1      23.464  50.662  47.931  1.00  0.00     0.158 A 
HETATM   25  C   UNL     1      24.644  49.985  48.074  1.00  0.00     0.119 A 
BRANCH  23  26
HETATM   26  C   UNL     1      21.264  50.539  49.148  1.00  0.00     0.058 A 
HETATM   27  C   UNL     1      20.719  51.644  48.473  1.00  0.00     0.033 A 
HETATM   28  C   UNL     1      19.401  52.043  48.716  1.00  0.00     0.026 A 
HETATM   29  C   UNL     1      18.623  51.342  49.634  1.00  0.00     0.034 A 
HETATM   30 CL   UNL     1      17.001  51.830  49.932  1.00  0.00    -0.084 Cl
HETATM   31  C   UNL     1      19.152  50.246  50.312  1.00  0.00     0.026 A 
HETATM   32  C   UNL     1      20.471  49.842  50.072  1.00  0.00     0.033 A 
ENDBRANCH  23  26
BRANCH  25  33
HETATM   33  O   UNL     1      25.740  50.209  47.336  1.00  0.00    -0.357 OA
HETATM   34  H   UNL     1      25.941  49.449  46.763  1.00  0.00     0.218 HD
ENDBRANCH  25  33
ENDBRANCH   2  21
TORSDOF 8
ENDMDL
MODEL 2
REMARK VINA RESULT:     -10.0      0.072      1.251
REMARK  8 active torsions:
REMARK  status: ('A' for Active; 'I' for Inactive)
REMARK    1  A    between atoms: C_4  and  C_5 
REMARK       I    between atoms: C_5  and  N_6 
REMARK    2  A    between atoms: N_6  and  C_7 
REMARK    3  A    between atoms: C_7  and  C_8 
REMARK    4  A    between atoms: C_8  and  C_9 
REMARK       I    between atoms: C_9  and  N_10 
REMARK    5  A    between atoms: N_10  and  N_11 
REMARK       I    between atoms: N_11  and  C_12 
REMARK    6  A    between atoms: C_12  and  C_13 
REMARK    7  A    between atoms: N_15  and  C_16 
REMARK    8  A    between atoms: C_24  and  O_25 
ROOT
HETATM    1  N   UNL     1      24.805  47.069  50.339  1.00  0.00    -0.262 N 
HETATM    2  C   UNL     1      25.406  48.120  49.667  1.00  0.00     0.293 C 
HETATM    3  O   UNL     1      26.629  48.213  49.569  1.00  0.00    -0.264 OA
HETATM    4  H   UNL     1      23.799  46.925  50.247  1.00  0.00     0.190 HD
ENDROOT
BRANCH   1   5
HETATM    5  N   UNL     1      25.599  45.991  50.759  1.00  0.00    -0.267 N 
HETATM    6  C   UNL     1      25.685  44.893  49.924  1.00  0.00     0.237 C 
HETATM    7  O   UNL     1      24.966  44.741  48.940  1.00  0.00    -0.272 OA
HETATM    8  H   UNL     1      26.365  46.233  51.388  1.00  0.00     0.190 HD
BRANCH   6   9
HETATM    9  C   UNL     1      26.695  43.872  50.396  1.00  0.00     0.124 C 
BRANCH   9  10
HETATM   10  C   UNL     1      26.291  43.285  51.742  1.00  0.00     0.132 C 
BRANCH  10  11
HETATM   11  N   UNL     1      27.366  43.331  52.718  1.00  0.00    -0.356 N 
HETATM   12  C   UNL     1      27.574  44.433  53.521  1.00  0.00     0.251 C 
HETATM   13  O   UNL     1      26.838  45.414  53.518  1.00  0.00    -0.268 OA
HETATM   14  H   UNL     1      27.906  42.491  52.870  1.00  0.00     0.162 HD
BRANCH  12  15
HETATM   15  C   UNL     1      28.741  44.372  54.446  1.00  0.00     0.032 A 
HETATM   16  C   UNL     1      29.594  43.262  54.490  1.00  0.00     0.017 A 
HETATM   17  C   UNL     1      30.684  43.252  55.365  1.00  0.00     0.001 A 
HETATM   18  C   UNL     1      30.929  44.350  56.190  1.00  0.00     0.000 A 
HETATM   19  C   UNL     1      30.092  45.464  56.138  1.00  0.00     0.001 A 
HETATM   20  C   UNL     1      29.002  45.478  55.265  1.00  0.00     0.017 A 
ENDBRANCH  12  15
ENDBRANCH  10  11
ENDBRANCH   9  10
ENDBRANCH   6   9
ENDBRANCH   1   5
BRANCH   2  21
HETATM   21  C   UNL     1      24.447  49.077  49.100  1.00  0.00     0.181 A 
HETATM   22  N   UNL     1      23.180  49.167  49.558  1.00  0.00    -0.159 NA
HETATM   23  N   UNL     1      22.602  50.160  48.828  1.00  0.00    -0.242 N 
HETATM   24  C   UNL     1      23.474  50.678  47.894  1.00  0.00     0.158 A 
HETATM   25  C   UNL     1      24.652  50.005  48.057  1.00  0.00     0.119 A 
BRANCH  23  26
HETATM   26  C   UNL     1      21.255  50.555  49.077  1.00  0.00     0.058 A 
HETATM   27  C   UNL     1      20.471  49.813  49.975  1.00  0.00     0.033 A 
HETATM   28  C   UNL     1      19.151  50.190  50.243  1.00  0.00     0.026 A 
HETATM   29  C   UNL     1      18.609  51.309  49.614  1.00  0.00     0.034 A 
HETATM   30 CL   UNL     1      16.988  51.776  49.945  1.00  0.00    -0.084 Cl
HETATM   31  C   UNL     1      19.376  52.052  48.719  1.00  0.00     0.026 A 
HETATM   32  C   UNL     1      20.697  51.679  48.448  1.00  0.00     0.033 A 
ENDBRANCH  23  26
BRANCH  25  33
HETATM   33  O   UNL     1      25.759  50.228  47.335  1.00  0.00    -0.357 OA
HETATM   34  H   UNL     1      25.986  51.174  47.320  1.00  0.00     0.218 HD
ENDBRANCH  25  33
ENDBRANCH   2  21
TORSDOF 8
ENDMDL
MODEL 3
REMARK VINA RESULT:     -10.0      1.293      1.845
REMARK  8 active torsions:
REMARK  status: ('A' for Active; 'I' for Inactive)
REMARK    1  A    between atoms: C_4  and  C_5 
REMARK       I    between atoms: C_5  and  N_6 
REMARK    2  A    between atoms: N_6  and  C_7 
REMARK    3  A    between atoms: C_7  and  C_8 
REMARK    4  A    between atoms: C_8  and  C_9 
REMARK       I    between atoms: C_9  and  N_10 
REMARK    5  A    between atoms: N_10  and  N_11 
REMARK       I    between atoms: N_11  and  C_12 
REMARK    6  A    between atoms: C_12  and  C_13 
REMARK    7  A    between atoms: N_15  and  C_16 
REMARK    8  A    between atoms: C_24  and  O_25 
ROOT
HETATM    1  N   UNL     1      24.257  47.344  50.768  1.00  0.00    -0.262 N 
HETATM    2  C   UNL     1      24.837  48.069  49.741  1.00  0.00     0.293 C 
HETATM    3  O   UNL     1      25.998  47.872  49.383  1.00  0.00    -0.264 OA
HETATM    4  H   UNL     1      23.249  47.403  50.916  1.00  0.00     0.190 HD
ENDROOT
BRANCH   1   5
HETATM    5  N   UNL     1      24.945  46.238  51.290  1.00  0.00    -0.267 N 
HETATM    6  C   UNL     1      25.484  46.357  52.558  1.00  0.00     0.237 C 
HETATM    7  O   UNL     1      25.549  47.425  53.161  1.00  0.00    -0.272 OA
HETATM    8  H   UNL     1      24.651  45.331  50.929  1.00  0.00     0.190 HD
BRANCH   6   9
HETATM    9  C   UNL     1      26.051  45.057  53.081  1.00  0.00     0.124 C 
BRANCH   9  10
HETATM   10  C   UNL     1      27.498  44.876  52.642  1.00  0.00     0.132 C 
BRANCH  10  11
HETATM   11  N   UNL     1      28.371  44.498  53.740  1.00  0.00    -0.356 N 
HETATM   12  C   UNL     1      28.760  45.402  54.707  1.00  0.00     0.251 C 
HETATM   13  O   UNL     1      28.350  46.557  54.749  1.00  0.00    -0.268 OA
HETATM   14  H   UNL     1      28.613  43.522  53.840  1.00  0.00     0.162 HD
BRANCH  12  15
HETATM   15  C   UNL     1      29.696  44.898  55.752  1.00  0.00     0.032 A 
HETATM   16  C   UNL     1      30.471  43.747  55.559  1.00  0.00     0.017 A 
HETATM   17  C   UNL     1      31.345  43.317  56.562  1.00  0.00     0.001 A 
HETATM   18  C   UNL     1      31.453  44.038  57.751  1.00  0.00     0.000 A 
HETATM   19  C   UNL     1      30.696  45.193  57.940  1.00  0.00     0.001 A 
HETATM   20  C   UNL     1      29.822  45.626  56.942  1.00  0.00     0.017 A 
ENDBRANCH  12  15
ENDBRANCH  10  11
ENDBRANCH   9  10
ENDBRANCH   6   9
ENDBRANCH   1   5
BRANCH   2  21
HETATM   21  C   UNL     1      23.935  49.062  49.143  1.00  0.00     0.181 A 
HETATM   22  N   UNL     1      22.683  49.254  49.609  1.00  0.00    -0.159 NA
HETATM   23  N   UNL     1      22.161  50.251  48.844  1.00  0.00    -0.242 N 
HETATM   24  C   UNL     1      23.053  50.672  47.880  1.00  0.00     0.158 A 
HETATM   25  C   UNL     1      24.187  49.930  48.060  1.00  0.00     0.119 A 
BRANCH  23  26
HETATM   26  C   UNL     1      20.846  50.744  49.089  1.00  0.00     0.058 A 
HETATM   27  C   UNL     1      20.378  51.857  48.371  1.00  0.00     0.033 A 
HETATM   28  C   UNL     1      19.087  52.349  48.588  1.00  0.00     0.026 A 
HETATM   29  C   UNL     1      18.259  51.733  49.524  1.00  0.00     0.034 A 
HETATM   30 CL   UNL     1      16.671  52.334  49.790  1.00  0.00    -0.084 Cl
HETATM   31  C   UNL     1      18.712  50.630  50.245  1.00  0.00     0.026 A 
HETATM   32  C   UNL     1      20.003  50.133  50.031  1.00  0.00     0.033 A 
ENDBRANCH  23  26
BRANCH  25  33
HETATM   33  O   UNL     1      25.297  50.050  47.318  1.00  0.00    -0.357 OA
HETATM   34  H   UNL     1      25.122  49.842  46.385  1.00  0.00     0.218 HD
ENDBRANCH  25  33
ENDBRANCH   2  21
TORSDOF 8
ENDMDL
MODEL 4
REMARK VINA RESULT:      -9.5      3.679     10.789
REMARK  8 active torsions:
REMARK  status: ('A' for Active; 'I' for Inactive)
REMARK    1  A    between atoms: C_4  and  C_5 
REMARK       I    between atoms: C_5  and  N_6 
REMARK    2  A    between atoms: N_6  and  C_7 
REMARK    3  A    between atoms: C_7  and  C_8 
REMARK    4  A    between atoms: C_8  and  C_9 
REMARK       I    between atoms: C_9  and  N_10 
REMARK    5  A    between atoms: N_10  and  N_11 
REMARK       I    between atoms: N_11  and  C_12 
REMARK    6  A    between atoms: C_12  and  C_13 
REMARK    7  A    between atoms: N_15  and  C_16 
REMARK    8  A    between atoms: C_24  and  O_25 
ROOT
HETATM    1  N   UNL     1      25.740  44.362  51.157  1.00  0.00    -0.262 N 
HETATM    2  C   UNL     1      26.833  43.690  50.636  1.00  0.00     0.293 C 
HETATM    3  O   UNL     1      26.939  43.459  49.433  1.00  0.00    -0.264 OA
HETATM    4  H   UNL     1      25.768  44.695  52.122  1.00  0.00     0.190 HD
ENDROOT
BRANCH   1   5
HETATM    5  N   UNL     1      24.823  44.952  50.273  1.00  0.00    -0.267 N 
HETATM    6  C   UNL     1      24.520  46.288  50.459  1.00  0.00     0.237 C 
HETATM    7  O   UNL     1      24.865  46.921  51.454  1.00  0.00    -0.272 OA
HETATM    8  H   UNL     1      24.776  44.527  49.347  1.00  0.00     0.190 HD
BRANCH   6   9
HETATM    9  C   UNL     1      23.659  46.855  49.354  1.00  0.00     0.124 C 
BRANCH   9  10
HETATM   10  C   UNL     1      23.707  48.377  49.350  1.00  0.00     0.132 C 
BRANCH  10  11
HETATM   11  N   UNL     1      22.391  48.978  49.220  1.00  0.00    -0.356 N 
HETATM   12  C   UNL     1      22.147  50.286  49.583  1.00  0.00     0.251 C 
HETATM   13  O   UNL     1      23.025  51.048  49.975  1.00  0.00    -0.268 OA
HETATM   14  H   UNL     1      21.669  48.442  48.758  1.00  0.00     0.162 HD
BRANCH  12  15
HETATM   15  C   UNL     1      20.743  50.764  49.444  1.00  0.00     0.032 A 
HETATM   16  C   UNL     1      20.381  51.735  48.502  1.00  0.00     0.017 A 
HETATM   17  C   UNL     1      19.049  52.146  48.397  1.00  0.00     0.001 A 
HETATM   18  C   UNL     1      18.077  51.584  49.225  1.00  0.00     0.000 A 
HETATM   19  C   UNL     1      18.430  50.605  50.153  1.00  0.00     0.001 A 
HETATM   20  C   UNL     1      19.759  50.192  50.261  1.00  0.00     0.017 A 
ENDBRANCH  12  15
ENDBRANCH  10  11
ENDBRANCH   9  10
ENDBRANCH   6   9
ENDBRANCH   1   5
BRANCH   2  21
HETATM   21  C   UNL     1      27.820  43.302  51.652  1.00  0.00     0.181 A 
HETATM   22  N   UNL     1      28.116  44.106  52.696  1.00  0.00    -0.159 NA
HETATM   23  N   UNL     1      29.036  43.420  53.430  1.00  0.00    -0.242 N 
HETATM   24  C   UNL     1      29.350  42.210  52.849  1.00  0.00     0.158 A 
HETATM   25  C   UNL     1      28.582  42.117  51.722  1.00  0.00     0.119 A 
BRANCH  23  26
HETATM   26  C   UNL     1      29.548  43.964  54.644  1.00  0.00     0.058 A 
HETATM   27  C   UNL     1      28.982  45.138  55.170  1.00  0.00     0.033 A 
HETATM   28  C   UNL     1      29.461  45.682  56.366  1.00  0.00     0.026 A 
HETATM   29  C   UNL     1      30.508  45.058  57.040  1.00  0.00     0.034 A 
HETATM   30 CL   UNL     1      31.097  45.723  58.512  1.00  0.00    -0.084 Cl
HETATM   31  C   UNL     1      31.080  43.895  56.528  1.00  0.00     0.026 A 
HETATM   32  C   UNL     1      30.604  43.346  55.332  1.00  0.00     0.033 A 
ENDBRANCH  23  26
BRANCH  25  33
HETATM   33  O   UNL     1      28.593  41.073  50.882  1.00  0.00    -0.357 OA
HETATM   34  H   UNL     1      28.212  40.281  51.298  1.00  0.00     0.218 HD
ENDBRANCH  25  33
ENDBRANCH   2  21
TORSDOF 8
ENDMDL
MODEL 5
REMARK VINA RESULT:      -9.2      3.728     10.415
REMARK  8 active torsions:
REMARK  status: ('A' for Active; 'I' for Inactive)
REMARK    1  A    between atoms: C_4  and  C_5 
REMARK       I    between atoms: C_5  and  N_6 
REMARK    2  A    between atoms: N_6  and  C_7 
REMARK    3  A    between atoms: C_7  and  C_8 
REMARK    4  A    between atoms: C_8  and  C_9 
REMARK       I    between atoms: C_9  and  N_10 
REMARK    5  A    between atoms: N_10  and  N_11 
REMARK       I    between atoms: N_11  and  C_12 
REMARK    6  A    between atoms: C_12  and  C_13 
REMARK    7  A    between atoms: N_15  and  C_16 
REMARK    8  A    between atoms: C_24  and  O_25 
ROOT
HETATM    1  N   UNL     1      25.505  44.123  50.934  1.00  0.00    -0.262 N 
HETATM    2  C   UNL     1      26.636  43.491  50.446  1.00  0.00     0.293 C 
HETATM    3  O   UNL     1      26.763  43.217  49.253  1.00  0.00    -0.264 OA
HETATM    4  H   UNL     1      25.509  44.496  51.884  1.00  0.00     0.190 HD
ENDROOT
BRANCH   1   5
HETATM    5  N   UNL     1      24.563  44.626  50.023  1.00  0.00    -0.267 N 
HETATM    6  C   UNL     1      23.301  44.062  50.027  1.00  0.00     0.237 C 
HETATM    7  O   UNL     1      23.026  43.038  50.647  1.00  0.00    -0.272 OA
HETATM    8  H   UNL     1      24.703  45.597  49.743  1.00  0.00     0.190 HD
BRANCH   6   9
HETATM    9  C   UNL     1      22.328  44.792  49.129  1.00  0.00     0.124 C 
BRANCH   9  10
HETATM   10  C   UNL     1      22.876  46.153  48.720  1.00  0.00     0.132 C 
BRANCH  10  11
HETATM   11  N   UNL     1      21.937  47.232  48.975  1.00  0.00    -0.356 N 
HETATM   12  C   UNL     1      22.107  48.488  48.432  1.00  0.00     0.251 C 
HETATM   13  O   UNL     1      23.011  48.766  47.652  1.00  0.00    -0.268 OA
HETATM   14  H   UNL     1      21.092  47.015  49.485  1.00  0.00     0.162 HD
BRANCH  12  15
HETATM   15  C   UNL     1      21.098  49.518  48.811  1.00  0.00     0.032 A 
HETATM   16  C   UNL     1      20.126  49.279  49.791  1.00  0.00     0.017 A 
HETATM   17  C   UNL     1      19.208  50.278  50.123  1.00  0.00     0.001 A 
HETATM   18  C   UNL     1      19.262  51.518  49.486  1.00  0.00     0.000 A 
HETATM   19  C   UNL     1      20.238  51.767  48.523  1.00  0.00     0.001 A 
HETATM   20  C   UNL     1      21.158  50.771  48.188  1.00  0.00     0.017 A 
ENDBRANCH  12  15
ENDBRANCH  10  11
ENDBRANCH   9  10
ENDBRANCH   6   9
ENDBRANCH   1   5
BRANCH   2  21
HETATM   21  C   UNL     1      27.636  43.200  51.481  1.00  0.00     0.181 A 
HETATM   22  N   UNL     1      27.879  44.059  52.494  1.00  0.00    -0.159 NA
HETATM   23  N   UNL     1      28.831  43.455  53.259  1.00  0.00    -0.242 N 
HETATM   24  C   UNL     1      29.216  42.243  52.728  1.00  0.00     0.158 A 
HETATM   25  C   UNL     1      28.463  42.063  51.601  1.00  0.00     0.119 A 
BRANCH  23  26
HETATM   26  C   UNL     1      29.303  44.074  54.453  1.00  0.00     0.058 A 
HETATM   27  C   UNL     1      28.650  45.217  54.945  1.00  0.00     0.033 A 
HETATM   28  C   UNL     1      29.090  45.833  56.121  1.00  0.00     0.026 A 
HETATM   29  C   UNL     1      30.182  45.311  56.810  1.00  0.00     0.034 A 
HETATM   30 CL   UNL     1      30.722  46.065  58.258  1.00  0.00    -0.084 Cl
HETATM   31  C   UNL     1      30.840  44.180  56.331  1.00  0.00     0.026 A 
HETATM   32  C   UNL     1      30.404  43.559  55.155  1.00  0.00     0.033 A 
ENDBRANCH  23  26
BRANCH  25  33
HETATM   33  O   UNL     1      28.539  40.989  50.802  1.00  0.00    -0.357 OA
HETATM   34  H   UNL     1      28.858  40.210  51.288  1.00  0.00     0.218 HD
ENDBRANCH  25  33
ENDBRANCH   2  21
TORSDOF 8
ENDMDL
MODEL 6
REMARK VINA RESULT:      -9.2      3.850     10.939
REMARK  8 active torsions:
REMARK  status: ('A' for Active; 'I' for Inactive)
REMARK    1  A    between atoms: C_4  and  C_5 
REMARK       I    between atoms: C_5  and  N_6 
REMARK    2  A    between atoms: N_6  and  C_7 
REMARK    3  A    between atoms: C_7  and  C_8 
REMARK    4  A    between atoms: C_8  and  C_9 
REMARK       I    between atoms: C_9  and  N_10 
REMARK    5  A    between atoms: N_10  and  N_11 
REMARK       I    between atoms: N_11  and  C_12 
REMARK    6  A    between atoms: C_12  and  C_13 
REMARK    7  A    between atoms: N_15  and  C_16 
REMARK    8  A    between atoms: C_24  and  O_25 
ROOT
HETATM    1  N   UNL     1      23.652  47.599  50.214  1.00  0.00    -0.262 N 
HETATM    2  C   UNL     1      25.003  47.293  50.224  1.00  0.00     0.293 C 
HETATM    3  O   UNL     1      25.821  47.944  49.576  1.00  0.00    -0.264 OA
HETATM    4  H   UNL     1      23.033  47.160  50.896  1.00  0.00     0.190 HD
ENDROOT
BRANCH   1   5
HETATM    5  N   UNL     1      23.232  48.787  49.597  1.00  0.00    -0.267 N 
HETATM    6  C   UNL     1      22.666  48.693  48.339  1.00  0.00     0.237 C 
HETATM    7  O   UNL     1      22.684  47.662  47.672  1.00  0.00    -0.272 OA
HETATM    8  H   UNL     1      22.972  49.540  50.234  1.00  0.00     0.190 HD
BRANCH   6   9
HETATM    9  C   UNL     1      22.099  50.006  47.848  1.00  0.00     0.124 C 
BRANCH   9  10
HETATM   10  C   UNL     1      21.790  50.937  49.013  1.00  0.00     0.132 C 
BRANCH  10  11
HETATM   11  N   UNL     1      20.417  51.412  48.999  1.00  0.00    -0.356 N 
HETATM   12  C   UNL     1      19.387  50.681  49.553  1.00  0.00     0.251 C 
HETATM   13  O   UNL     1      19.560  49.623  50.149  1.00  0.00    -0.268 OA
HETATM   14  H   UNL     1      20.242  52.347  48.659  1.00  0.00     0.162 HD
BRANCH  12  15
HETATM   15  C   UNL     1      18.019  51.259  49.430  1.00  0.00     0.032 A 
HETATM   16  C   UNL     1      17.714  52.546  49.891  1.00  0.00     0.017 A 
HETATM   17  C   UNL     1      16.420  53.053  49.744  1.00  0.00     0.001 A 
HETATM   18  C   UNL     1      15.433  52.282  49.130  1.00  0.00     0.000 A 
HETATM   19  C   UNL     1      15.736  51.007  48.654  1.00  0.00     0.001 A 
HETATM   20  C   UNL     1      17.027  50.497  48.799  1.00  0.00     0.017 A 
ENDBRANCH  12  15
ENDBRANCH  10  11
ENDBRANCH   9  10
ENDBRANCH   6   9
ENDBRANCH   1   5
BRANCH   2  21
HETATM   21  C   UNL     1      25.336  46.143  51.074  1.00  0.00     0.181 A 
HETATM   22  N   UNL     1      26.524  46.050  51.708  1.00  0.00    -0.159 NA
HETATM   23  N   UNL     1      26.468  44.885  52.411  1.00  0.00    -0.242 N 
HETATM   24  C   UNL     1      25.277  44.224  52.206  1.00  0.00     0.158 A 
HETATM   25  C   UNL     1      24.543  45.012  51.363  1.00  0.00     0.119 A 
BRANCH  23  26
HETATM   26  C   UNL     1      27.557  44.484  53.240  1.00  0.00     0.058 A 
HETATM   27  C   UNL     1      27.907  45.270  54.350  1.00  0.00     0.033 A 
HETATM   28  C   UNL     1      28.964  44.889  55.183  1.00  0.00     0.026 A 
HETATM   29  C   UNL     1      29.675  43.723  54.910  1.00  0.00     0.034 A 
HETATM   30 CL   UNL     1      30.972  43.251  55.936  1.00  0.00    -0.084 Cl
HETATM   31  C   UNL     1      29.339  42.936  53.811  1.00  0.00     0.026 A 
HETATM   32  C   UNL     1      28.282  43.312  52.974  1.00  0.00     0.033 A 
ENDBRANCH  23  26
BRANCH  25  33
HETATM   33  O   UNL     1      23.310  44.716  50.930  1.00  0.00    -0.357 OA
HETATM   34  H   UNL     1      23.058  45.273  50.174  1.00  0.00     0.218 HD
ENDBRANCH  25  33
ENDBRANCH   2  21
TORSDOF 8
ENDMDL
MODEL 7
REMARK VINA RESULT:      -9.0      1.720      2.175
REMARK  8 active torsions:
REMARK  status: ('A' for Active; 'I' for Inactive)
REMARK    1  A    between atoms: C_4  and  C_5 
REMARK       I    between atoms: C_5  and  N_6 
REMARK    2  A    between atoms: N_6  and  C_7 
REMARK    3  A    between atoms: C_7  and  C_8 
REMARK    4  A    between atoms: C_8  and  C_9 
REMARK       I    between atoms: C_9  and  N_10 
REMARK    5  A    between atoms: N_10  and  N_11 
REMARK       I    between atoms: N_11  and  C_12 
REMARK    6  A    between atoms: C_12  and  C_13 
REMARK    7  A    between atoms: N_15  and  C_16 
REMARK    8  A    between atoms: C_24  and  O_25 
ROOT
HETATM    1  N   UNL     1      23.408  47.011  49.912  1.00  0.00    -0.262 N 
HETATM    2  C   UNL     1      22.751  47.126  48.698  1.00  0.00     0.293 C 
HETATM    3  O   UNL     1      22.698  46.193  47.898  1.00  0.00    -0.264 OA
HETATM    4  H   UNL     1      23.279  47.732  50.622  1.00  0.00     0.190 HD
ENDROOT
BRANCH   1   5
HETATM    5  N   UNL     1      23.866  45.748  50.317  1.00  0.00    -0.267 N 
HETATM    6  C   UNL     1      24.958  45.701  51.163  1.00  0.00     0.237 C 
HETATM    7  O   UNL     1      25.648  46.684  51.421  1.00  0.00    -0.272 OA
HETATM    8  H   UNL     1      23.158  45.013  50.333  1.00  0.00     0.190 HD
BRANCH   6   9
HETATM    9  C   UNL     1      25.255  44.307  51.665  1.00  0.00     0.124 C 
BRANCH   9  10
HETATM   10  C   UNL     1      26.694  43.912  51.365  1.00  0.00     0.132 C 
BRANCH  10  11
HETATM   11  N   UNL     1      27.606  44.263  52.440  1.00  0.00    -0.356 N 
HETATM   12  C   UNL     1      28.194  43.305  53.240  1.00  0.00     0.251 C 
HETATM   13  O   UNL     1      28.046  42.101  53.063  1.00  0.00    -0.268 OA
HETATM   14  H   UNL     1      27.883  45.231  52.530  1.00  0.00     0.162 HD
BRANCH  12  15
HETATM   15  C   UNL     1      29.071  43.802  54.338  1.00  0.00     0.032 A 
HETATM   16  C   UNL     1      28.867  45.048  54.944  1.00  0.00     0.017 A 
HETATM   17  C   UNL     1      29.708  45.468  55.978  1.00  0.00     0.001 A 
HETATM   18  C   UNL     1      30.745  44.644  56.415  1.00  0.00     0.000 A 
HETATM   19  C   UNL     1      30.942  43.396  55.826  1.00  0.00     0.001 A 
HETATM   20  C   UNL     1      30.105  42.972  54.792  1.00  0.00     0.017 A 
ENDBRANCH  12  15
ENDBRANCH  10  11
ENDBRANCH   9  10
ENDBRANCH   6   9
ENDBRANCH   1   5
BRANCH   2  21
HETATM   21  C   UNL     1      22.141  48.445  48.485  1.00  0.00     0.181 A 
HETATM   22  N   UNL     1      20.862  48.699  48.835  1.00  0.00    -0.159 NA
HETATM   23  N   UNL     1      20.655  50.007  48.519  1.00  0.00    -0.242 N 
HETATM   24  C   UNL     1      21.772  50.575  47.946  1.00  0.00     0.158 A 
HETATM   25  C   UNL     1      22.728  49.598  47.922  1.00  0.00     0.119 A 
BRANCH  23  26
HETATM   26  C   UNL     1      19.403  50.631  48.795  1.00  0.00     0.058 A 
HETATM   27  C   UNL     1      18.259  49.837  48.978  1.00  0.00     0.033 A 
HETATM   28  C   UNL     1      17.024  50.428  49.261  1.00  0.00     0.026 A 
HETATM   29  C   UNL     1      16.925  51.814  49.360  1.00  0.00     0.034 A 
HETATM   30 CL   UNL     1      15.408  52.542  49.711  1.00  0.00    -0.084 Cl
HETATM   31  C   UNL     1      18.052  52.613  49.178  1.00  0.00     0.026 A 
HETATM   32  C   UNL     1      19.291  52.027  48.895  1.00  0.00     0.033 A 
ENDBRANCH  23  26
BRANCH  25  33
HETATM   33  O   UNL     1      23.969  49.763  47.444  1.00  0.00    -0.357 OA
HETATM   34  H   UNL     1      24.414  48.907  47.316  1.00  0.00     0.218 HD
ENDBRANCH  25  33
ENDBRANCH   2  21
TORSDOF 8
ENDMDL
MODEL 8
REMARK VINA RESULT:      -8.9      3.834     11.210
REMARK  8 active torsions:
REMARK  status: ('A' for Active; 'I' for Inactive)
REMARK    1  A    between atoms: C_4  and  C_5 
REMARK       I    between atoms: C_5  and  N_6 
REMARK    2  A    between atoms: N_6  and  C_7 
REMARK    3  A    between atoms: C_7  and  C_8 
REMARK    4  A    between atoms: C_8  and  C_9 
REMARK       I    between atoms: C_9  and  N_10 
REMARK    5  A    between atoms: N_10  and  N_11 
REMARK       I    between atoms: N_11  and  C_12 
REMARK    6  A    between atoms: C_12  and  C_13 
REMARK    7  A    between atoms: N_15  and  C_16 
REMARK    8  A    between atoms: C_24  and  O_25 
ROOT
HETATM    1  N   UNL     1      24.868  46.115  50.152  1.00  0.00    -0.262 N 
HETATM    2  C   UNL     1      24.886  45.107  51.101  1.00  0.00     0.293 C 
HETATM    3  O   UNL     1      23.853  44.687  51.621  1.00  0.00    -0.264 OA
HETATM    4  H   UNL     1      25.713  46.312  49.614  1.00  0.00     0.190 HD
ENDROOT
BRANCH   1   5
HETATM    5  N   UNL     1      23.634  46.540  49.638  1.00  0.00    -0.267 N 
HETATM    6  C   UNL     1      23.478  47.888  49.373  1.00  0.00     0.237 C 
HETATM    7  O   UNL     1      24.286  48.740  49.733  1.00  0.00    -0.272 OA
HETATM    8  H   UNL     1      23.118  45.838  49.107  1.00  0.00     0.190 HD
BRANCH   6   9
HETATM    9  C   UNL     1      22.178  48.203  48.668  1.00  0.00     0.124 C 
BRANCH   9  10
HETATM   10  C   UNL     1      22.202  49.606  48.076  1.00  0.00     0.132 C 
BRANCH  10  11
HETATM   11  N   UNL     1      20.877  50.191  47.972  1.00  0.00    -0.356 N 
HETATM   12  C   UNL     1      20.292  50.862  49.026  1.00  0.00     0.251 C 
HETATM   13  O   UNL     1      20.865  51.069  50.090  1.00  0.00    -0.268 OA
HETATM   14  H   UNL     1      20.425  50.185  47.068  1.00  0.00     0.162 HD
BRANCH  12  15
HETATM   15  C   UNL     1      18.910  51.374  48.804  1.00  0.00     0.032 A 
HETATM   16  C   UNL     1      18.143  50.981  47.699  1.00  0.00     0.017 A 
HETATM   17  C   UNL     1      16.846  51.477  47.537  1.00  0.00     0.001 A 
HETATM   18  C   UNL     1      16.311  52.357  48.478  1.00  0.00     0.000 A 
HETATM   19  C   UNL     1      17.065  52.737  49.587  1.00  0.00     0.001 A 
HETATM   20  C   UNL     1      18.360  52.244  49.754  1.00  0.00     0.017 A 
ENDBRANCH  12  15
ENDBRANCH  10  11
ENDBRANCH   9  10
ENDBRANCH   6   9
ENDBRANCH   1   5
BRANCH   2  21
HETATM   21  C   UNL     1      26.235  44.611  51.402  1.00  0.00     0.181 A 
HETATM   22  N   UNL     1      26.786  44.753  52.627  1.00  0.00    -0.159 NA
HETATM   23  N   UNL     1      28.009  44.160  52.543  1.00  0.00    -0.242 N 
HETATM   24  C   UNL     1      28.253  43.674  51.277  1.00  0.00     0.158 A 
HETATM   25  C   UNL     1      27.134  43.947  50.541  1.00  0.00     0.119 A 
BRANCH  23  26
HETATM   26  C   UNL     1      28.862  44.091  53.684  1.00  0.00     0.058 A 
HETATM   27  C   UNL     1      29.804  43.053  53.781  1.00  0.00     0.033 A 
HETATM   28  C   UNL     1      30.658  42.973  54.886  1.00  0.00     0.026 A 
HETATM   29  C   UNL     1      30.574  43.927  55.897  1.00  0.00     0.034 A 
HETATM   30 CL   UNL     1      31.625  43.832  57.254  1.00  0.00    -0.084 Cl
HETATM   31  C   UNL     1      29.641  44.959  55.814  1.00  0.00     0.026 A 
HETATM   32  C   UNL     1      28.785  45.045  54.711  1.00  0.00     0.033 A 
ENDBRANCH  23  26
BRANCH  25  33
HETATM   33  O   UNL     1      26.977  43.620  49.250  1.00  0.00    -0.357 OA
HETATM   34  H   UNL     1      26.063  43.775  48.956  1.00  0.00     0.218 HD
ENDBRANCH  25  33
ENDBRANCH   2  21
TORSDOF 8
ENDMDL
MODEL 9
REMARK VINA RESULT:      -8.9      3.598     10.770
REMARK  8 active torsions:
REMARK  status: ('A' for Active; 'I' for Inactive)
REMARK    1  A    between atoms: C_4  and  C_5 
REMARK       I    between atoms: C_5  and  N_6 
REMARK    2  A    between atoms: N_6  and  C_7 
REMARK    3  A    between atoms: C_7  and  C_8 
REMARK    4  A    between atoms: C_8  and  C_9 
REMARK       I    between atoms: C_9  and  N_10 
REMARK    5  A    between atoms: N_10  and  N_11 
REMARK       I    between atoms: N_11  and  C_12 
REMARK    6  A    between atoms: C_12  and  C_13 
REMARK    7  A    between atoms: N_15  and  C_16 
REMARK    8  A    between atoms: C_24  and  O_25 
ROOT
HETATM    1  N   UNL     1      25.476  47.081  50.139  1.00  0.00    -0.262 N 
HETATM    2  C   UNL     1      25.192  45.795  49.710  1.00  0.00     0.293 C 
HETATM    3  O   UNL     1      24.252  45.556  48.953  1.00  0.00    -0.264 OA
HETATM    4  H   UNL     1      26.361  47.267  50.613  1.00  0.00     0.190 HD
ENDROOT
BRANCH   1   5
HETATM    5  N   UNL     1      24.791  48.157  49.556  1.00  0.00    -0.267 N 
HETATM    6  C   UNL     1      25.516  49.029  48.766  1.00  0.00     0.237 C 
HETATM    7  O   UNL     1      26.743  49.014  48.704  1.00  0.00    -0.272 OA
HETATM    8  H   UNL     1      23.797  48.000  49.387  1.00  0.00     0.190 HD
BRANCH   6   9
HETATM    9  C   UNL     1      24.647  50.044  48.058  1.00  0.00     0.124 C 
BRANCH   9  10
HETATM   10  C   UNL     1      23.859  50.881  49.057  1.00  0.00     0.132 C 
BRANCH  10  11
HETATM   11  N   UNL     1      22.552  51.266  48.554  1.00  0.00    -0.356 N 
HETATM   12  C   UNL     1      21.480  50.398  48.573  1.00  0.00     0.251 C 
HETATM   13  O   UNL     1      21.532  49.278  49.069  1.00  0.00    -0.268 OA
HETATM   14  H   UNL     1      22.414  52.228  48.278  1.00  0.00     0.162 HD
BRANCH  12  15
HETATM   15  C   UNL     1      20.206  50.902  47.984  1.00  0.00     0.032 A 
HETATM   16  C   UNL     1      19.595  50.272  46.892  1.00  0.00     0.017 A 
HETATM   17  C   UNL     1      18.394  50.771  46.380  1.00  0.00     0.001 A 
HETATM   18  C   UNL     1      17.799  51.892  46.960  1.00  0.00     0.000 A 
HETATM   19  C   UNL     1      18.395  52.511  48.056  1.00  0.00     0.001 A 
HETATM   20  C   UNL     1      19.594  52.016  48.572  1.00  0.00     0.017 A 
ENDBRANCH  12  15
ENDBRANCH  10  11
ENDBRANCH   9  10
ENDBRANCH   6   9
ENDBRANCH   1   5
BRANCH   2  21
HETATM   21  C   UNL     1      26.116  44.784  50.239  1.00  0.00     0.181 A 
HETATM   22  N   UNL     1      26.865  45.014  51.339  1.00  0.00    -0.159 NA
HETATM   23  N   UNL     1      27.567  43.865  51.545  1.00  0.00    -0.242 N 
HETATM   24  C   UNL     1      27.297  42.924  50.575  1.00  0.00     0.158 A 
HETATM   25  C   UNL     1      26.373  43.489  49.741  1.00  0.00     0.119 A 
BRANCH  23  26
HETATM   26  C   UNL     1      28.443  43.740  52.662  1.00  0.00     0.058 A 
HETATM   27  C   UNL     1      28.177  44.465  53.835  1.00  0.00     0.033 A 
HETATM   28  C   UNL     1      29.018  44.348  54.947  1.00  0.00     0.026 A 
HETATM   29  C   UNL     1      30.127  43.508  54.891  1.00  0.00     0.034 A 
HETATM   30 CL   UNL     1      31.160  43.360  56.257  1.00  0.00    -0.084 Cl
HETATM   31  C   UNL     1      30.404  42.786  53.732  1.00  0.00     0.026 A 
HETATM   32  C   UNL     1      29.566  42.898  52.617  1.00  0.00     0.033 A 
ENDBRANCH  23  26
BRANCH  25  33
HETATM   33  O   UNL     1      25.846  42.880  48.669  1.00  0.00    -0.357 OA
HETATM   34  H   UNL     1      25.454  43.524  48.055  1.00  0.00     0.218 HD
ENDBRANCH  25  33
ENDBRANCH   2  21
TORSDOF 8
ENDMDL
MODEL 10
REMARK VINA RESULT:      -8.7      4.159      9.904
REMARK  8 active torsions:
REMARK  status: ('A' for Active; 'I' for Inactive)
REMARK    1  A    between atoms: C_4  and  C_5 
REMARK       I    between atoms: C_5  and  N_6 
REMARK    2  A    between atoms: N_6  and  C_7 
REMARK    3  A    between atoms: C_7  and  C_8 
REMARK    4  A    between atoms: C_8  and  C_9 
REMARK       I    between atoms: C_9  and  N_10 
REMARK    5  A    between atoms: N_10  and  N_11 
REMARK       I    between atoms: N_11  and  C_12 
REMARK    6  A    between atoms: C_12  and  C_13 
REMARK    7  A    between atoms: N_15  and  C_16 
REMARK    8  A    between atoms: C_24  and  O_25 
ROOT
HETATM    1  N   UNL     1      24.945  44.511  49.900  1.00  0.00    -0.262 N 
HETATM    2  C   UNL     1      26.285  44.303  50.178  1.00  0.00     0.293 C 
HETATM    3  O   UNL     1      27.047  43.797  49.356  1.00  0.00    -0.264 OA
HETATM    4  H   UNL     1      24.387  45.093  50.527  1.00  0.00     0.190 HD
ENDROOT
BRANCH   1   5
HETATM    5  N   UNL     1      24.485  44.308  48.590  1.00  0.00    -0.267 N 
HETATM    6  C   UNL     1      23.118  44.255  48.390  1.00  0.00     0.237 C 
HETATM    7  O   UNL     1      22.308  44.191  49.311  1.00  0.00    -0.272 OA
HETATM    8  H   UNL     1      25.110  44.635  47.853  1.00  0.00     0.190 HD
BRANCH   6   9
HETATM    9  C   UNL     1      22.739  44.204  46.927  1.00  0.00     0.124 C 
BRANCH   9  10
HETATM   10  C   UNL     1      21.677  45.245  46.601  1.00  0.00     0.132 C 
BRANCH  10  11
HETATM   11  N   UNL     1      22.038  46.575  47.062  1.00  0.00    -0.356 N 
HETATM   12  C   UNL     1      21.232  47.293  47.921  1.00  0.00     0.251 C 
HETATM   13  O   UNL     1      20.199  46.842  48.405  1.00  0.00    -0.268 OA
HETATM   14  H   UNL     1      22.952  46.931  46.817  1.00  0.00     0.162 HD
BRANCH  12  15
HETATM   15  C   UNL     1      21.695  48.663  48.279  1.00  0.00     0.032 A 
HETATM   16  C   UNL     1      20.897  49.546  49.019  1.00  0.00     0.017 A 
HETATM   17  C   UNL     1      21.377  50.818  49.343  1.00  0.00     0.001 A 
HETATM   18  C   UNL     1      22.653  51.208  48.936  1.00  0.00     0.000 A 
HETATM   19  C   UNL     1      23.457  50.328  48.214  1.00  0.00     0.001 A 
HETATM   20  C   UNL     1      22.981  49.056  47.889  1.00  0.00     0.017 A 
ENDBRANCH  12  15
ENDBRANCH  10  11
ENDBRANCH   9  10
ENDBRANCH   6   9
ENDBRANCH   1   5
BRANCH   2  21
HETATM   21  C   UNL     1      26.680  44.747  51.521  1.00  0.00     0.181 A 
HETATM   22  N   UNL     1      27.710  44.176  52.182  1.00  0.00    -0.159 NA
HETATM   23  N   UNL     1      27.799  44.850  53.362  1.00  0.00    -0.242 N 
HETATM   24  C   UNL     1      26.823  45.816  53.471  1.00  0.00     0.158 A 
HETATM   25  C   UNL     1      26.107  45.768  52.307  1.00  0.00     0.119 A 
BRANCH  23  26
HETATM   26  C   UNL     1      28.820  44.530  54.305  1.00  0.00     0.058 A 
HETATM   27  C   UNL     1      29.549  43.338  54.158  1.00  0.00     0.033 A 
HETATM   28  C   UNL     1      30.562  43.012  55.066  1.00  0.00     0.026 A 
HETATM   29  C   UNL     1      30.850  43.872  56.122  1.00  0.00     0.034 A 
HETATM   30 CL   UNL     1      32.097  43.473  57.237  1.00  0.00    -0.084 Cl
HETATM   31  C   UNL     1      30.132  45.056  56.280  1.00  0.00     0.026 A 
HETATM   32  C   UNL     1      29.117  45.388  55.375  1.00  0.00     0.033 A 
ENDBRANCH  23  26
BRANCH  25  33
HETATM   33  O   UNL     1      25.068  46.566  52.023  1.00  0.00    -0.357 OA
HETATM   34  H   UNL     1      25.137  46.930  51.124  1.00  0.00     0.218 HD
ENDBRANCH  25  33
ENDBRANCH   2  21
TORSDOF 8
ENDMDL
