MODEL 1
REMARK VINA RESULT:      -8.9      0.000      0.000
REMARK  6 active torsions:
REMARK  status: ('A' for Active; 'I' for Inactive)
REMARK    1  A    between atoms: C_3  and  C_4 
REMARK    2  A    between atoms: C_4  and  C_5 
REMARK       I    between atoms: C_5  and  N_6 
REMARK    3  A    between atoms: N_6  and  C_7 
REMARK    4  A    between atoms: C_9  and  C_10 
REMARK    5  A    between atoms: C_11  and  C_12 
REMARK    6  A    between atoms: C_22  and  O_23 
ROOT
HETATM    1  C   UNL     1      25.853  47.533  50.028  1.00  0.00     0.036 A 
HETATM    2  C   UNL     1      24.606  48.072  49.705  1.00  0.00     0.050 A 
HETATM    3  C   UNL     1      24.512  49.211  48.896  1.00  0.00     0.020 A 
HETATM    4  C   UNL     1      25.669  49.824  48.412  1.00  0.00     0.021 A 
HETATM    5  C   UNL     1      26.918  49.296  48.732  1.00  0.00     0.004 A 
HETATM    6  C   UNL     1      27.008  48.153  49.531  1.00  0.00     0.029 A 
ENDROOT
BRANCH   1   7
HETATM    7  N   UNL     1      26.031  46.364  50.800  1.00  0.00    -0.327 N 
HETATM    8  C   UNL     1      26.164  46.281  52.174  1.00  0.00     0.226 C 
HETATM    9  O   UNL     1      26.289  47.221  52.957  1.00  0.00    -0.273 OA
HETATM   10  H   UNL     1      26.110  45.501  50.279  1.00  0.00     0.169 HD
BRANCH   8  11
HETATM   11  C   UNL     1      26.161  44.856  52.702  1.00  0.00     0.144 C 
BRANCH  11  12
HETATM   12  C   UNL     1      27.531  44.361  53.092  1.00  0.00    -0.016 A 
HETATM   13  C   UNL     1      28.234  43.525  52.206  1.00  0.00     0.010 A 
HETATM   14  C   UNL     1      29.474  42.985  52.558  1.00  0.00     0.001 A 
HETATM   15  C   UNL     1      30.027  43.265  53.804  1.00  0.00     0.003 A 
HETATM   16  C   UNL     1      29.344  44.091  54.694  1.00  0.00     0.037 A 
HETATM   17  C   UNL     1      28.114  44.641  54.336  1.00  0.00     0.072 A 
BRANCH  17  18
HETATM   18  O   UNL     1      27.520  45.433  55.277  1.00  0.00    -0.360 OA
HETATM   19  H   UNL     1      28.130  45.572  56.032  1.00  0.00     0.217 HD
ENDBRANCH  17  18
ENDBRANCH  11  12
ENDBRANCH   8  11
ENDBRANCH   1   7
BRANCH   3  20
HETATM   20  C   UNL     1      23.226  49.730  48.546  1.00  0.00    -0.060 C 
HETATM   21  C   UNL     1      22.140  50.173  48.284  1.00  0.00    -0.041 C 
BRANCH  21  22
HETATM   22  C   UNL     1      20.845  50.704  48.003  1.00  0.00     0.110 A 
HETATM   23  N   UNL     1      20.185  50.086  47.001  1.00  0.00    -0.252 NA
HETATM   24  C   UNL     1      18.959  50.564  46.698  1.00  0.00     0.118 A 
HETATM   25  C   UNL     1      18.365  51.632  47.351  1.00  0.00     0.019 A 
HETATM   26  C   UNL     1      19.069  52.250  48.380  1.00  0.00     0.004 A 
HETATM   27  C   UNL     1      20.336  51.779  48.717  1.00  0.00     0.041 A 
ENDBRANCH  21  22
ENDBRANCH   3  20
TORSDOF 6
ENDMDL
MODEL 2
REMARK VINA RESULT:      -8.8      0.897      1.369
REMARK  6 active torsions:
REMARK  status: ('A' for Active; 'I' for Inactive)
REMARK    1  A    between atoms: C_3  and  C_4 
REMARK    2  A    between atoms: C_4  and  C_5 
REMARK       I    between atoms: C_5  and  N_6 
REMARK    3  A    between atoms: N_6  and  C_7 
REMARK    4  A    between atoms: C_9  and  C_10 
REMARK    5  A    between atoms: C_11  and  C_12 
REMARK    6  A    between atoms: C_22  and  O_23 
ROOT
HETATM    1  C   UNL     1      25.634  47.565  50.125  1.00  0.00     0.036 A 
HETATM    2  C   UNL     1      24.410  48.151  49.791  1.00  0.00     0.050 A 
HETATM    3  C   UNL     1      24.364  49.251  48.924  1.00  0.00     0.020 A 
HETATM    4  C   UNL     1      25.542  49.777  48.394  1.00  0.00     0.021 A 
HETATM    5  C   UNL     1      26.767  49.200  48.725  1.00  0.00     0.004 A 
HETATM    6  C   UNL     1      26.811  48.098  49.581  1.00  0.00     0.029 A 
ENDROOT
BRANCH   1   7
HETATM    7  N   UNL     1      25.763  46.430  50.955  1.00  0.00    -0.327 N 
HETATM    8  C   UNL     1      25.980  46.412  52.320  1.00  0.00     0.226 C 
HETATM    9  O   UNL     1      26.236  47.379  53.035  1.00  0.00    -0.273 OA
HETATM   10  H   UNL     1      25.733  45.535  50.484  1.00  0.00     0.169 HD
BRANCH   8  11
HETATM   11  C   UNL     1      25.891  45.024  52.933  1.00  0.00     0.144 C 
BRANCH  11  12
HETATM   12  C   UNL     1      27.239  44.389  53.171  1.00  0.00    -0.016 A 
HETATM   13  C   UNL     1      27.816  44.469  54.451  1.00  0.00     0.010 A 
HETATM   14  C   UNL     1      29.093  43.957  54.696  1.00  0.00     0.001 A 
HETATM   15  C   UNL     1      29.816  43.365  53.665  1.00  0.00     0.003 A 
HETATM   16  C   UNL     1      29.259  43.277  52.391  1.00  0.00     0.037 A 
HETATM   17  C   UNL     1      27.980  43.775  52.151  1.00  0.00     0.072 A 
BRANCH  17  18
HETATM   18  O   UNL     1      27.522  43.647  50.870  1.00  0.00    -0.360 OA
HETATM   19  H   UNL     1      27.298  44.529  50.505  1.00  0.00     0.217 HD
ENDBRANCH  17  18
ENDBRANCH  11  12
ENDBRANCH   8  11
ENDBRANCH   1   7
BRANCH   3  20
HETATM   20  C   UNL     1      23.100  49.818  48.565  1.00  0.00    -0.060 C 
HETATM   21  C   UNL     1      22.024  50.270  48.280  1.00  0.00    -0.041 C 
BRANCH  21  22
HETATM   22  C   UNL     1      20.732  50.784  47.956  1.00  0.00     0.110 A 
HETATM   23  N   UNL     1      20.098  50.133  46.957  1.00  0.00    -0.252 NA
HETATM   24  C   UNL     1      18.877  50.593  46.613  1.00  0.00     0.118 A 
HETATM   25  C   UNL     1      18.261  51.675  47.223  1.00  0.00     0.019 A 
HETATM   26  C   UNL     1      18.939  52.327  48.249  1.00  0.00     0.004 A 
HETATM   27  C   UNL     1      20.201  51.874  48.627  1.00  0.00     0.041 A 
ENDBRANCH  21  22
ENDBRANCH   3  20
TORSDOF 6
ENDMDL
MODEL 3
REMARK VINA RESULT:      -8.6      2.435      4.497
REMARK  6 active torsions:
REMARK  status: ('A' for Active; 'I' for Inactive)
REMARK    1  A    between atoms: C_3  and  C_4 
REMARK    2  A    between atoms: C_4  and  C_5 
REMARK       I    between atoms: C_5  and  N_6 
REMARK    3  A    between atoms: N_6  and  C_7 
REMARK    4  A    between atoms: C_9  and  C_10 
REMARK    5  A    between atoms: C_11  and  C_12 
REMARK    6  A    between atoms: C_22  and  O_23 
ROOT
HETATM    1  C   UNL     1      27.067  43.770  51.650  1.00  0.00     0.036 A 
HETATM    2  C   UNL     1      26.454  44.947  51.213  1.00  0.00     0.050 A 
HETATM    3  C   UNL     1      25.218  44.903  50.557  1.00  0.00     0.020 A 
HETATM    4  C   UNL     1      24.590  43.679  50.326  1.00  0.00     0.021 A 
HETATM    5  C   UNL     1      25.195  42.498  50.756  1.00  0.00     0.004 A 
HETATM    6  C   UNL     1      26.424  42.546  51.419  1.00  0.00     0.029 A 
ENDROOT
BRANCH   1   7
HETATM    7  N   UNL     1      28.289  43.732  52.356  1.00  0.00    -0.327 N 
HETATM    8  C   UNL     1      28.515  43.196  53.611  1.00  0.00     0.226 C 
HETATM    9  O   UNL     1      27.664  42.781  54.394  1.00  0.00    -0.273 OA
HETATM   10  H   UNL     1      29.072  44.185  51.904  1.00  0.00     0.169 HD
BRANCH   8  11
HETATM   11  C   UNL     1      29.982  43.160  54.003  1.00  0.00     0.144 C 
BRANCH  11  12
HETATM   12  C   UNL     1      30.272  43.871  55.301  1.00  0.00    -0.016 A 
HETATM   13  C   UNL     1      31.131  43.266  56.236  1.00  0.00     0.010 A 
HETATM   14  C   UNL     1      31.368  43.855  57.480  1.00  0.00     0.001 A 
HETATM   15  C   UNL     1      30.746  45.054  57.813  1.00  0.00     0.003 A 
HETATM   16  C   UNL     1      29.892  45.667  56.899  1.00  0.00     0.037 A 
HETATM   17  C   UNL     1      29.666  45.086  55.653  1.00  0.00     0.072 A 
BRANCH  17  18
HETATM   18  O   UNL     1      28.810  45.759  54.828  1.00  0.00    -0.360 OA
HETATM   19  H   UNL     1      29.010  46.719  54.849  1.00  0.00     0.217 HD
ENDBRANCH  17  18
ENDBRANCH  11  12
ENDBRANCH   8  11
ENDBRANCH   1   7
BRANCH   3  20
HETATM   20  C   UNL     1      24.588  46.120  50.147  1.00  0.00    -0.060 C 
HETATM   21  C   UNL     1      24.082  47.145  49.778  1.00  0.00    -0.041 C 
BRANCH  21  22
HETATM   22  C   UNL     1      23.502  48.366  49.318  1.00  0.00     0.110 A 
HETATM   23  N   UNL     1      24.375  49.385  49.164  1.00  0.00    -0.252 NA
HETATM   24  C   UNL     1      23.865  50.561  48.739  1.00  0.00     0.118 A 
HETATM   25  C   UNL     1      22.522  50.763  48.462  1.00  0.00     0.019 A 
HETATM   26  C   UNL     1      21.646  49.696  48.630  1.00  0.00     0.004 A 
HETATM   27  C   UNL     1      22.142  48.469  49.067  1.00  0.00     0.041 A 
ENDBRANCH  21  22
ENDBRANCH   3  20
TORSDOF 6
ENDMDL
MODEL 4
REMARK VINA RESULT:      -8.5      2.805     10.276
REMARK  6 active torsions:
REMARK  status: ('A' for Active; 'I' for Inactive)
REMARK    1  A    between atoms: C_3  and  C_4 
REMARK    2  A    between atoms: C_4  and  C_5 
REMARK       I    between atoms: C_5  and  N_6 
REMARK    3  A    between atoms: N_6  and  C_7 
REMARK    4  A    between atoms: C_9  and  C_10 
REMARK    5  A    between atoms: C_11  and  C_12 
REMARK    6  A    between atoms: C_22  and  O_23 
ROOT
HETATM    1  C   UNL     1      24.621  46.608  50.395  1.00  0.00     0.036 A 
HETATM    2  C   UNL     1      25.607  46.418  51.366  1.00  0.00     0.050 A 
HETATM    3  C   UNL     1      25.852  45.143  51.889  1.00  0.00     0.020 A 
HETATM    4  C   UNL     1      25.104  44.050  51.451  1.00  0.00     0.021 A 
HETATM    5  C   UNL     1      24.115  44.230  50.485  1.00  0.00     0.004 A 
HETATM    6  C   UNL     1      23.879  45.502  49.957  1.00  0.00     0.029 A 
ENDROOT
BRANCH   1   7
HETATM    7  N   UNL     1      24.342  47.852  49.786  1.00  0.00    -0.327 N 
HETATM    8  C   UNL     1      23.149  48.256  49.217  1.00  0.00     0.226 C 
HETATM    9  O   UNL     1      22.158  47.557  49.015  1.00  0.00    -0.273 OA
HETATM   10  H   UNL     1      25.119  48.497  49.729  1.00  0.00     0.169 HD
BRANCH   8  11
HETATM   11  C   UNL     1      23.133  49.720  48.810  1.00  0.00     0.144 C 
BRANCH  11  12
HETATM   12  C   UNL     1      21.755  50.335  48.844  1.00  0.00    -0.016 A 
HETATM   13  C   UNL     1      21.018  50.426  47.651  1.00  0.00     0.010 A 
HETATM   14  C   UNL     1      19.769  51.054  47.624  1.00  0.00     0.001 A 
HETATM   15  C   UNL     1      19.242  51.606  48.788  1.00  0.00     0.003 A 
HETATM   16  C   UNL     1      19.960  51.524  49.979  1.00  0.00     0.037 A 
HETATM   17  C   UNL     1      21.198  50.886  50.007  1.00  0.00     0.072 A 
BRANCH  17  18
HETATM   18  O   UNL     1      21.827  50.861  51.220  1.00  0.00    -0.360 OA
HETATM   19  H   UNL     1      21.438  51.539  51.813  1.00  0.00     0.217 HD
ENDBRANCH  17  18
ENDBRANCH  11  12
ENDBRANCH   8  11
ENDBRANCH   1   7
BRANCH   3  20
HETATM   20  C   UNL     1      26.889  44.959  52.858  1.00  0.00    -0.060 C 
HETATM   21  C   UNL     1      27.779  44.792  53.647  1.00  0.00    -0.041 C 
BRANCH  21  22
HETATM   22  C   UNL     1      28.853  44.580  54.563  1.00  0.00     0.110 A 
HETATM   23  N   UNL     1      29.088  45.607  55.408  1.00  0.00    -0.252 NA
HETATM   24  C   UNL     1      30.102  45.450  56.285  1.00  0.00     0.118 A 
HETATM   25  C   UNL     1      30.892  44.313  56.354  1.00  0.00     0.019 A 
HETATM   26  C   UNL     1      30.627  43.271  55.470  1.00  0.00     0.004 A 
HETATM   27  C   UNL     1      29.586  43.403  54.554  1.00  0.00     0.041 A 
ENDBRANCH  21  22
ENDBRANCH   3  20
TORSDOF 6
ENDMDL
MODEL 5
REMARK VINA RESULT:      -8.0      5.367      9.747
REMARK  6 active torsions:
REMARK  status: ('A' for Active; 'I' for Inactive)
REMARK    1  A    between atoms: C_3  and  C_4 
REMARK    2  A    between atoms: C_4  and  C_5 
REMARK       I    between atoms: C_5  and  N_6 
REMARK    3  A    between atoms: N_6  and  C_7 
REMARK    4  A    between atoms: C_9  and  C_10 
REMARK    5  A    between atoms: C_11  and  C_12 
REMARK    6  A    between atoms: C_22  and  O_23 
ROOT
HETATM    1  C   UNL     1      25.755  44.564  51.518  1.00  0.00     0.036 A 
HETATM    2  C   UNL     1      26.737  44.400  52.498  1.00  0.00     0.050 A 
HETATM    3  C   UNL     1      27.031  45.439  53.389  1.00  0.00     0.020 A 
HETATM    4  C   UNL     1      26.350  46.654  53.299  1.00  0.00     0.021 A 
HETATM    5  C   UNL     1      25.371  46.828  52.323  1.00  0.00     0.004 A 
HETATM    6  C   UNL     1      25.072  45.786  51.441  1.00  0.00     0.029 A 
ENDROOT
BRANCH   1   7
HETATM    7  N   UNL     1      25.369  43.552  50.611  1.00  0.00    -0.327 N 
HETATM    8  C   UNL     1      26.117  43.031  49.571  1.00  0.00     0.226 C 
HETATM    9  O   UNL     1      27.198  43.451  49.163  1.00  0.00    -0.273 OA
HETATM   10  H   UNL     1      24.425  43.204  50.716  1.00  0.00     0.169 HD
BRANCH   8  11
HETATM   11  C   UNL     1      25.474  41.830  48.900  1.00  0.00     0.144 C 
BRANCH  11  12
HETATM   12  C   UNL     1      26.416  40.665  48.729  1.00  0.00    -0.016 A 
HETATM   13  C   UNL     1      26.381  39.614  49.663  1.00  0.00     0.010 A 
HETATM   14  C   UNL     1      27.285  38.552  49.583  1.00  0.00     0.001 A 
HETATM   15  C   UNL     1      28.243  38.526  48.574  1.00  0.00     0.003 A 
HETATM   16  C   UNL     1      28.291  39.558  47.640  1.00  0.00     0.037 A 
HETATM   17  C   UNL     1      27.381  40.610  47.712  1.00  0.00     0.072 A 
BRANCH  17  18
HETATM   18  O   UNL     1      27.511  41.577  46.755  1.00  0.00    -0.360 OA
HETATM   19  H   UNL     1      26.675  42.083  46.674  1.00  0.00     0.217 HD
ENDBRANCH  17  18
ENDBRANCH  11  12
ENDBRANCH   8  11
ENDBRANCH   1   7
BRANCH   3  20
HETATM   20  C   UNL     1      28.016  45.243  54.409  1.00  0.00    -0.060 C 
HETATM   21  C   UNL     1      28.856  45.055  55.246  1.00  0.00    -0.041 C 
BRANCH  21  22
HETATM   22  C   UNL     1      29.865  44.807  56.225  1.00  0.00     0.110 A 
HETATM   23  N   UNL     1      29.848  45.648  57.281  1.00  0.00    -0.252 NA
HETATM   24  C   UNL     1      30.793  45.453  58.226  1.00  0.00     0.118 A 
HETATM   25  C   UNL     1      31.754  44.457  58.161  1.00  0.00     0.019 A 
HETATM   26  C   UNL     1      31.748  43.606  57.060  1.00  0.00     0.004 A 
HETATM   27  C   UNL     1      30.784  43.781  56.069  1.00  0.00     0.041 A 
ENDBRANCH  21  22
ENDBRANCH   3  20
TORSDOF 6
ENDMDL
MODEL 6
REMARK VINA RESULT:      -8.0      6.385     12.845
REMARK  6 active torsions:
REMARK  status: ('A' for Active; 'I' for Inactive)
REMARK    1  A    between atoms: C_3  and  C_4 
REMARK    2  A    between atoms: C_4  and  C_5 
REMARK       I    between atoms: C_5  and  N_6 
REMARK    3  A    between atoms: N_6  and  C_7 
REMARK    4  A    between atoms: C_9  and  C_10 
REMARK    5  A    between atoms: C_11  and  C_12 
REMARK    6  A    between atoms: C_22  and  O_23 
ROOT
HETATM    1  C   UNL     1      16.053  53.067  49.933  1.00  0.00     0.036 A 
HETATM    2  C   UNL     1      17.339  52.524  49.878  1.00  0.00     0.050 A 
HETATM    3  C   UNL     1      17.831  51.984  48.683  1.00  0.00     0.020 A 
HETATM    4  C   UNL     1      17.034  51.974  47.537  1.00  0.00     0.021 A 
HETATM    5  C   UNL     1      15.748  52.510  47.584  1.00  0.00     0.004 A 
HETATM    6  C   UNL     1      15.264  53.058  48.775  1.00  0.00     0.029 A 
ENDROOT
BRANCH   1   7
HETATM    7  N   UNL     1      15.500  53.670  51.084  1.00  0.00    -0.327 N 
HETATM    8  C   UNL     1      15.166  55.000  51.254  1.00  0.00     0.226 C 
HETATM    9  O   UNL     1      15.417  55.924  50.482  1.00  0.00    -0.273 OA
HETATM   10  H   UNL     1      15.376  53.061  51.883  1.00  0.00     0.169 HD
BRANCH   8  11
HETATM   11  C   UNL     1      14.427  55.283  52.551  1.00  0.00     0.144 C 
BRANCH  11  12
HETATM   12  C   UNL     1      14.787  56.613  53.166  1.00  0.00    -0.016 A 
HETATM   13  C   UNL     1      14.091  57.765  52.759  1.00  0.00     0.010 A 
HETATM   14  C   UNL     1      14.440  59.026  53.250  1.00  0.00     0.001 A 
HETATM   15  C   UNL     1      15.495  59.157  54.148  1.00  0.00     0.003 A 
HETATM   16  C   UNL     1      16.194  58.025  54.562  1.00  0.00     0.037 A 
HETATM   17  C   UNL     1      15.837  56.766  54.083  1.00  0.00     0.072 A 
BRANCH  17  18
HETATM   18  O   UNL     1      16.585  55.720  54.543  1.00  0.00    -0.360 OA
HETATM   19  H   UNL     1      16.798  55.851  55.491  1.00  0.00     0.217 HD
ENDBRANCH  17  18
ENDBRANCH  11  12
ENDBRANCH   8  11
ENDBRANCH   1   7
BRANCH   3  20
HETATM   20  C   UNL     1      19.163  51.463  48.634  1.00  0.00    -0.060 C 
HETATM   21  C   UNL     1      20.282  51.027  48.626  1.00  0.00    -0.041 C 
BRANCH  21  22
HETATM   22  C   UNL     1      21.612  50.510  48.647  1.00  0.00     0.110 A 
HETATM   23  N   UNL     1      21.738  49.290  49.212  1.00  0.00    -0.252 NA
HETATM   24  C   UNL     1      22.982  48.770  49.260  1.00  0.00     0.118 A 
HETATM   25  C   UNL     1      24.107  49.415  48.770  1.00  0.00     0.019 A 
HETATM   26  C   UNL     1      23.948  50.672  48.194  1.00  0.00     0.004 A 
HETATM   27  C   UNL     1      22.675  51.235  48.129  1.00  0.00     0.041 A 
ENDBRANCH  21  22
ENDBRANCH   3  20
TORSDOF 6
ENDMDL
MODEL 7
REMARK VINA RESULT:      -7.9     11.527     15.293
REMARK  6 active torsions:
REMARK  status: ('A' for Active; 'I' for Inactive)
REMARK    1  A    between atoms: C_3  and  C_4 
REMARK    2  A    between atoms: C_4  and  C_5 
REMARK       I    between atoms: C_5  and  N_6 
REMARK    3  A    between atoms: N_6  and  C_7 
REMARK    4  A    between atoms: C_9  and  C_10 
REMARK    5  A    between atoms: C_11  and  C_12 
REMARK    6  A    between atoms: C_22  and  O_23 
ROOT
HETATM    1  C   UNL     1      32.753  51.253  42.433  1.00  0.00     0.036 A 
HETATM    2  C   UNL     1      33.697  51.876  43.253  1.00  0.00     0.050 A 
HETATM    3  C   UNL     1      35.059  51.571  43.127  1.00  0.00     0.020 A 
HETATM    4  C   UNL     1      35.483  50.632  42.186  1.00  0.00     0.021 A 
HETATM    5  C   UNL     1      34.548  50.003  41.366  1.00  0.00     0.004 A 
HETATM    6  C   UNL     1      33.192  50.316  41.486  1.00  0.00     0.029 A 
ENDROOT
BRANCH   1   7
HETATM    7  N   UNL     1      31.371  51.536  42.466  1.00  0.00    -0.327 N 
HETATM    8  C   UNL     1      30.717  52.590  41.855  1.00  0.00     0.226 C 
HETATM    9  O   UNL     1      31.240  53.547  41.288  1.00  0.00    -0.273 OA
HETATM   10  H   UNL     1      30.808  50.917  43.036  1.00  0.00     0.169 HD
BRANCH   8  11
HETATM   11  C   UNL     1      29.203  52.502  41.942  1.00  0.00     0.144 C 
BRANCH  11  12
HETATM   12  C   UNL     1      28.572  51.839  40.742  1.00  0.00    -0.016 A 
HETATM   13  C   UNL     1      28.792  52.386  39.465  1.00  0.00     0.010 A 
HETATM   14  C   UNL     1      28.169  51.847  38.336  1.00  0.00     0.001 A 
HETATM   15  C   UNL     1      27.311  50.759  38.466  1.00  0.00     0.003 A 
HETATM   16  C   UNL     1      27.083  50.205  39.724  1.00  0.00     0.037 A 
HETATM   17  C   UNL     1      27.715  50.734  40.848  1.00  0.00     0.072 A 
BRANCH  17  18
HETATM   18  O   UNL     1      27.425  50.126  42.036  1.00  0.00    -0.360 OA
HETATM   19  H   UNL     1      26.453  50.045  42.142  1.00  0.00     0.217 HD
ENDBRANCH  17  18
ENDBRANCH  11  12
ENDBRANCH   8  11
ENDBRANCH   1   7
BRANCH   3  20
HETATM   20  C   UNL     1      36.016  52.243  43.951  1.00  0.00    -0.060 C 
HETATM   21  C   UNL     1      36.825  52.779  44.658  1.00  0.00    -0.041 C 
BRANCH  21  22
HETATM   22  C   UNL     1      37.791  53.390  45.514  1.00  0.00     0.110 A 
HETATM   23  N   UNL     1      38.430  52.539  46.345  1.00  0.00    -0.252 NA
HETATM   24  C   UNL     1      39.346  53.078  47.177  1.00  0.00     0.118 A 
HETATM   25  C   UNL     1      39.649  54.430  47.218  1.00  0.00     0.019 A 
HETATM   26  C   UNL     1      38.973  55.284  46.352  1.00  0.00     0.004 A 
HETATM   27  C   UNL     1      38.023  54.757  45.479  1.00  0.00     0.041 A 
ENDBRANCH  21  22
ENDBRANCH   3  20
TORSDOF 6
ENDMDL
MODEL 8
REMARK VINA RESULT:      -7.7      6.107     10.072
REMARK  6 active torsions:
REMARK  status: ('A' for Active; 'I' for Inactive)
REMARK    1  A    between atoms: C_3  and  C_4 
REMARK    2  A    between atoms: C_4  and  C_5 
REMARK       I    between atoms: C_5  and  N_6 
REMARK    3  A    between atoms: N_6  and  C_7 
REMARK    4  A    between atoms: C_9  and  C_10 
REMARK    5  A    between atoms: C_11  and  C_12 
REMARK    6  A    between atoms: C_22  and  O_23 
ROOT
HETATM    1  C   UNL     1      26.529  42.781  50.933  1.00  0.00     0.036 A 
HETATM    2  C   UNL     1      27.399  42.890  52.021  1.00  0.00     0.050 A 
HETATM    3  C   UNL     1      27.507  44.095  52.726  1.00  0.00     0.020 A 
HETATM    4  C   UNL     1      26.752  45.203  52.340  1.00  0.00     0.021 A 
HETATM    5  C   UNL     1      25.884  45.105  51.254  1.00  0.00     0.004 A 
HETATM    6  C   UNL     1      25.771  43.899  50.559  1.00  0.00     0.029 A 
ENDROOT
BRANCH   1   7
HETATM    7  N   UNL     1      26.330  41.592  50.199  1.00  0.00    -0.327 N 
HETATM    8  C   UNL     1      26.903  41.251  48.987  1.00  0.00     0.226 C 
HETATM    9  O   UNL     1      27.579  41.980  48.265  1.00  0.00    -0.273 OA
HETATM   10  H   UNL     1      25.663  40.940  50.590  1.00  0.00     0.169 HD
BRANCH   8  11
HETATM   11  C   UNL     1      26.615  39.822  48.557  1.00  0.00     0.144 C 
BRANCH  11  12
HETATM   12  C   UNL     1      27.429  38.797  49.307  1.00  0.00    -0.016 A 
HETATM   13  C   UNL     1      28.707  39.149  49.776  1.00  0.00     0.010 A 
HETATM   14  C   UNL     1      29.523  38.209  50.411  1.00  0.00     0.001 A 
HETATM   15  C   UNL     1      29.078  36.901  50.581  1.00  0.00     0.003 A 
HETATM   16  C   UNL     1      27.815  36.536  50.122  1.00  0.00     0.037 A 
HETATM   17  C   UNL     1      26.996  37.477  49.501  1.00  0.00     0.072 A 
BRANCH  17  18
HETATM   18  O   UNL     1      25.778  37.023  49.081  1.00  0.00    -0.360 OA
HETATM   19  H   UNL     1      25.681  37.166  48.116  1.00  0.00     0.217 HD
ENDBRANCH  17  18
ENDBRANCH  11  12
ENDBRANCH   8  11
ENDBRANCH   1   7
BRANCH   3  20
HETATM   20  C   UNL     1      28.377  44.180  53.860  1.00  0.00    -0.060 C 
HETATM   21  C   UNL     1      29.097  44.282  54.815  1.00  0.00    -0.041 C 
BRANCH  21  22
HETATM   22  C   UNL     1      29.946  44.434  55.953  1.00  0.00     0.110 A 
HETATM   23  N   UNL     1      29.676  45.511  56.721  1.00  0.00    -0.252 NA
HETATM   24  C   UNL     1      30.462  45.695  57.803  1.00  0.00     0.118 A 
HETATM   25  C   UNL     1      31.506  44.852  58.151  1.00  0.00     0.019 A 
HETATM   26  C   UNL     1      31.761  43.750  57.340  1.00  0.00     0.004 A 
HETATM   27  C   UNL     1      30.966  43.532  56.217  1.00  0.00     0.041 A 
ENDBRANCH  21  22
ENDBRANCH   3  20
TORSDOF 6
ENDMDL
MODEL 9
REMARK VINA RESULT:      -7.7      5.360      8.685
REMARK  6 active torsions:
REMARK  status: ('A' for Active; 'I' for Inactive)
REMARK    1  A    between atoms: C_3  and  C_4 
REMARK    2  A    between atoms: C_4  and  C_5 
REMARK       I    between atoms: C_5  and  N_6 
REMARK    3  A    between atoms: N_6  and  C_7 
REMARK    4  A    between atoms: C_9  and  C_10 
REMARK    5  A    between atoms: C_11  and  C_12 
REMARK    6  A    between atoms: C_22  and  O_23 
ROOT
HETATM    1  C   UNL     1      26.668  45.000  52.285  1.00  0.00     0.036 A 
HETATM    2  C   UNL     1      27.114  43.839  51.649  1.00  0.00     0.050 A 
HETATM    3  C   UNL     1      26.389  43.290  50.583  1.00  0.00     0.020 A 
HETATM    4  C   UNL     1      25.207  43.894  50.154  1.00  0.00     0.021 A 
HETATM    5  C   UNL     1      24.752  45.051  50.785  1.00  0.00     0.004 A 
HETATM    6  C   UNL     1      25.482  45.602  51.841  1.00  0.00     0.029 A 
ENDROOT
BRANCH   1   7
HETATM    7  N   UNL     1      27.361  45.640  53.335  1.00  0.00    -0.327 N 
HETATM    8  C   UNL     1      27.394  45.266  54.666  1.00  0.00     0.226 C 
HETATM    9  O   UNL     1      26.715  44.391  55.199  1.00  0.00    -0.273 OA
HETATM   10  H   UNL     1      27.854  46.487  53.085  1.00  0.00     0.169 HD
BRANCH   8  11
HETATM   11  C   UNL     1      28.380  46.067  55.500  1.00  0.00     0.144 C 
BRANCH  11  12
HETATM   12  C   UNL     1      29.516  45.236  56.045  1.00  0.00    -0.016 A 
HETATM   13  C   UNL     1      30.039  44.194  55.258  1.00  0.00     0.010 A 
HETATM   14  C   UNL     1      31.041  43.354  55.753  1.00  0.00     0.001 A 
HETATM   15  C   UNL     1      31.530  43.538  57.042  1.00  0.00     0.003 A 
HETATM   16  C   UNL     1      31.023  44.566  57.834  1.00  0.00     0.037 A 
HETATM   17  C   UNL     1      30.034  45.411  57.336  1.00  0.00     0.072 A 
BRANCH  17  18
HETATM   18  O   UNL     1      29.597  46.385  58.189  1.00  0.00    -0.360 OA
HETATM   19  H   UNL     1      30.115  47.207  58.052  1.00  0.00     0.217 HD
ENDBRANCH  17  18
ENDBRANCH  11  12
ENDBRANCH   8  11
ENDBRANCH   1   7
BRANCH   3  20
HETATM   20  C   UNL     1      26.877  42.119  49.920  1.00  0.00    -0.060 C 
HETATM   21  C   UNL     1      27.317  41.141  49.379  1.00  0.00    -0.041 C 
BRANCH  21  22
HETATM   22  C   UNL     1      27.866  39.984  48.750  1.00  0.00     0.110 A 
HETATM   23  N   UNL     1      28.767  39.308  49.494  1.00  0.00    -0.252 NA
HETATM   24  C   UNL     1      29.317  38.211  48.931  1.00  0.00     0.118 A 
HETATM   25  C   UNL     1      29.007  37.760  47.658  1.00  0.00     0.019 A 
HETATM   26  C   UNL     1      28.075  38.477  46.914  1.00  0.00     0.004 A 
HETATM   27  C   UNL     1      27.489  39.613  47.468  1.00  0.00     0.041 A 
ENDBRANCH  21  22
ENDBRANCH   3  20
TORSDOF 6
ENDMDL
MODEL 10
REMARK VINA RESULT:      -7.3      3.819      4.766
REMARK  6 active torsions:
REMARK  status: ('A' for Active; 'I' for Inactive)
REMARK    1  A    between atoms: C_3  and  C_4 
REMARK    2  A    between atoms: C_4  and  C_5 
REMARK       I    between atoms: C_5  and  N_6 
REMARK    3  A    between atoms: N_6  and  C_7 
REMARK    4  A    between atoms: C_9  and  C_10 
REMARK    5  A    between atoms: C_11  and  C_12 
REMARK    6  A    between atoms: C_22  and  O_23 
ROOT
HETATM    1  C   UNL     1      25.479  45.017  51.815  1.00  0.00     0.036 A 
HETATM    2  C   UNL     1      24.527  44.588  50.886  1.00  0.00     0.050 A 
HETATM    3  C   UNL     1      23.965  45.494  49.977  1.00  0.00     0.020 A 
HETATM    4  C   UNL     1      24.344  46.836  49.999  1.00  0.00     0.021 A 
HETATM    5  C   UNL     1      25.290  47.273  50.925  1.00  0.00     0.004 A 
HETATM    6  C   UNL     1      25.857  46.366  51.824  1.00  0.00     0.029 A 
ENDROOT
BRANCH   1   7
HETATM    7  N   UNL     1      26.124  44.161  52.734  1.00  0.00    -0.327 N 
HETATM    8  C   UNL     1      27.387  43.610  52.620  1.00  0.00     0.226 C 
HETATM    9  O   UNL     1      28.120  43.655  51.634  1.00  0.00    -0.273 OA
HETATM   10  H   UNL     1      25.580  43.894  53.544  1.00  0.00     0.169 HD
BRANCH   8  11
HETATM   11  C   UNL     1      27.849  42.878  53.869  1.00  0.00     0.144 C 
BRANCH  11  12
HETATM   12  C   UNL     1      28.864  43.650  54.674  1.00  0.00    -0.016 A 
HETATM   13  C   UNL     1      30.109  43.058  54.953  1.00  0.00     0.010 A 
HETATM   14  C   UNL     1      31.049  43.709  55.756  1.00  0.00     0.001 A 
HETATM   15  C   UNL     1      30.759  44.957  56.298  1.00  0.00     0.003 A 
HETATM   16  C   UNL     1      29.530  45.557  56.032  1.00  0.00     0.037 A 
HETATM   17  C   UNL     1      28.598  44.914  55.220  1.00  0.00     0.072 A 
BRANCH  17  18
HETATM   18  O   UNL     1      27.422  45.580  55.021  1.00  0.00    -0.360 OA
HETATM   19  H   UNL     1      27.223  46.148  55.795  1.00  0.00     0.217 HD
ENDBRANCH  17  18
ENDBRANCH  11  12
ENDBRANCH   8  11
ENDBRANCH   1   7
BRANCH   3  20
HETATM   20  C   UNL     1      23.017  45.032  49.009  1.00  0.00    -0.060 C 
HETATM   21  C   UNL     1      22.198  44.647  48.220  1.00  0.00    -0.041 C 
BRANCH  21  22
HETATM   22  C   UNL     1      21.203  44.189  47.304  1.00  0.00     0.110 A 
HETATM   23  N   UNL     1      21.403  42.942  46.828  1.00  0.00    -0.252 NA
HETATM   24  C   UNL     1      20.489  42.474  45.951  1.00  0.00     0.118 A 
HETATM   25  C   UNL     1      19.385  43.198  45.529  1.00  0.00     0.019 A 
HETATM   26  C   UNL     1      19.205  44.482  46.036  1.00  0.00     0.004 A 
HETATM   27  C   UNL     1      20.132  44.991  46.944  1.00  0.00     0.041 A 
ENDBRANCH  21  22
ENDBRANCH   3  20
TORSDOF 6
ENDMDL
