MODEL 1
REMARK VINA RESULT:     -10.1      0.000      0.000
REMARK  6 active torsions:
REMARK  status: ('A' for Active; 'I' for Inactive)
REMARK       I    between atoms: N_2  and  C_3 
REMARK    1  A    between atoms: N_2  and  C_15 
REMARK       I    between atoms: C_3  and  N_4 
REMARK    2  A    between atoms: N_4  and  C_5 
REMARK    3  A    between atoms: C_15  and  C_16 
REMARK    4  A    between atoms: C_16  and  C_17 
REMARK    5  A    between atoms: C_17  and  C_18 
REMARK    6  A    between atoms: C_22  and  C_23 
ROOT
HETATM    1  C   UNL     1      25.195  47.336  49.897  1.00  0.00     0.127 C 
ENDROOT
BRANCH   1   2
HETATM    2  N   UNL     1      25.394  48.646  49.269  1.00  0.00    -0.338 N 
HETATM    3  C   UNL     1      26.758  48.942  48.841  1.00  0.00     0.154 C 
HETATM    4  C   UNL     1      24.386  49.403  48.670  1.00  0.00     0.322 C 
HETATM    5  N   UNL     1      23.124  49.180  49.161  1.00  0.00    -0.309 N 
HETATM    6  O   UNL     1      24.644  50.142  47.723  1.00  0.00    -0.247 OA
HETATM    7  H   UNL     1      23.070  48.751  50.069  1.00  0.00     0.170 HD
BRANCH   5   8
HETATM    8  C   UNL     1      21.895  49.622  48.622  1.00  0.00     0.036 A 
HETATM    9  C   UNL     1      21.344  50.883  48.867  1.00  0.00     0.039 A 
HETATM   10  C   UNL     1      20.136  51.213  48.267  1.00  0.00    -0.024 A 
HETATM   11  C   UNL     1      19.486  50.335  47.418  1.00  0.00    -0.026 A 
HETATM   12  C   UNL     1      19.353  52.470  48.371  1.00  0.00     0.207 C 
HETATM   13  C   UNL     1      18.254  50.979  46.900  1.00  0.00     0.207 C 
HETATM   14  C   UNL     1      20.014  49.087  47.147  1.00  0.00     0.012 A 
HETATM   15  O   UNL     1      18.105  52.177  47.697  1.00  0.00    -0.382 OA
HETATM   16  C   UNL     1      21.219  48.731  47.763  1.00  0.00     0.030 A 
ENDBRANCH   5   8
ENDBRANCH   1   2
BRANCH   1  17
HETATM   17  C   UNL     1      26.169  47.043  51.050  1.00  0.00     0.026 C 
BRANCH  17  18
HETATM   18  C   UNL     1      25.537  47.141  52.441  1.00  0.00     0.060 C 
BRANCH  18  19
HETATM   19  C   UNL     1      26.472  46.816  53.553  1.00  0.00     0.030 A 
HETATM   20  N   UNL     1      26.655  47.601  54.658  1.00  0.00    -0.282 N 
HETATM   21  H   UNL     1      26.195  48.474  54.907  1.00  0.00     0.189 HD
HETATM   22  N   UNL     1      27.585  47.128  55.503  1.00  0.00    -0.174 NA
HETATM   23  C   UNL     1      28.048  46.009  54.925  1.00  0.00     0.089 A 
HETATM   24  C   UNL     1      27.354  45.768  53.708  1.00  0.00     0.060 A 
BRANCH  23  25
HETATM   25  C   UNL     1      29.132  45.224  55.531  1.00  0.00    -0.005 A 
HETATM   26  C   UNL     1      29.629  44.064  54.911  1.00  0.00     0.017 A 
HETATM   27  C   UNL     1      30.675  43.339  55.490  1.00  0.00     0.043 A 
HETATM   28  C   UNL     1      31.229  43.769  56.690  1.00  0.00     0.116 A 
HETATM   29  F   UNL     1      32.233  43.074  57.240  1.00  0.00    -0.206 F 
HETATM   30  C   UNL     1      30.756  44.909  57.324  1.00  0.00     0.043 A 
HETATM   31  C   UNL     1      29.711  45.634  56.745  1.00  0.00     0.017 A 
ENDBRANCH  23  25
ENDBRANCH  18  19
ENDBRANCH  17  18
ENDBRANCH   1  17
TORSDOF 6
ENDMDL
MODEL 2
REMARK VINA RESULT:     -10.0      4.860     11.958
REMARK  6 active torsions:
REMARK  status: ('A' for Active; 'I' for Inactive)
REMARK       I    between atoms: N_2  and  C_3 
REMARK    1  A    between atoms: N_2  and  C_15 
REMARK       I    between atoms: C_3  and  N_4 
REMARK    2  A    between atoms: N_4  and  C_5 
REMARK    3  A    between atoms: C_15  and  C_16 
REMARK    4  A    between atoms: C_16  and  C_17 
REMARK    5  A    between atoms: C_17  and  C_18 
REMARK    6  A    between atoms: C_22  and  C_23 
ROOT
HETATM    1  C   UNL     1      26.594  46.065  51.261  1.00  0.00     0.127 C 
ENDROOT
BRANCH   1   2
HETATM    2  N   UNL     1      25.968  45.317  52.356  1.00  0.00    -0.338 N 
HETATM    3  C   UNL     1      24.645  44.770  52.074  1.00  0.00     0.154 C 
HETATM    4  C   UNL     1      26.660  44.730  53.416  1.00  0.00     0.322 C 
HETATM    5  N   UNL     1      27.857  45.325  53.729  1.00  0.00    -0.309 N 
HETATM    6  O   UNL     1      26.231  43.708  53.948  1.00  0.00    -0.247 OA
HETATM    7  H   UNL     1      27.983  46.267  53.400  1.00  0.00     0.170 HD
BRANCH   5   8
HETATM    8  C   UNL     1      28.867  44.839  54.589  1.00  0.00     0.036 A 
HETATM    9  C   UNL     1      29.155  45.386  55.842  1.00  0.00     0.039 A 
HETATM   10  C   UNL     1      30.161  44.812  56.607  1.00  0.00    -0.024 A 
HETATM   11  C   UNL     1      30.860  43.701  56.168  1.00  0.00    -0.026 A 
HETATM   12  C   UNL     1      30.653  45.205  57.951  1.00  0.00     0.207 C 
HETATM   13  C   UNL     1      31.831  43.292  57.212  1.00  0.00     0.207 C 
HETATM   14  C   UNL     1      30.587  43.131  54.940  1.00  0.00     0.012 A 
HETATM   15  O   UNL     1      31.824  44.381  58.164  1.00  0.00    -0.382 OA
HETATM   16  C   UNL     1      29.592  43.713  54.146  1.00  0.00     0.030 A 
ENDBRANCH   5   8
ENDBRANCH   1   2
BRANCH   1  17
HETATM   17  C   UNL     1      25.945  47.431  50.989  1.00  0.00     0.026 C 
BRANCH  17  18
HETATM   18  C   UNL     1      26.327  48.046  49.639  1.00  0.00     0.060 C 
BRANCH  18  19
HETATM   19  C   UNL     1      25.212  48.770  48.968  1.00  0.00     0.030 A 
HETATM   20  N   UNL     1      25.385  49.725  48.004  1.00  0.00    -0.282 N 
HETATM   21  H   UNL     1      26.249  50.064  47.587  1.00  0.00     0.189 HD
HETATM   22  N   UNL     1      24.236  50.273  47.580  1.00  0.00    -0.174 NA
HETATM   23  C   UNL     1      23.275  49.680  48.307  1.00  0.00     0.089 A 
HETATM   24  C   UNL     1      23.850  48.711  49.174  1.00  0.00     0.060 A 
BRANCH  23  25
HETATM   25  C   UNL     1      21.862  50.060  48.167  1.00  0.00    -0.005 A 
HETATM   26  C   UNL     1      21.407  51.334  48.548  1.00  0.00     0.017 A 
HETATM   27  C   UNL     1      20.064  51.687  48.389  1.00  0.00     0.043 A 
HETATM   28  C   UNL     1      19.170  50.770  47.851  1.00  0.00     0.116 A 
HETATM   29  F   UNL     1      17.884  51.113  47.698  1.00  0.00    -0.206 F 
HETATM   30  C   UNL     1      19.592  49.505  47.468  1.00  0.00     0.043 A 
HETATM   31  C   UNL     1      20.935  49.151  47.627  1.00  0.00     0.017 A 
ENDBRANCH  23  25
ENDBRANCH  18  19
ENDBRANCH  17  18
ENDBRANCH   1  17
TORSDOF 6
ENDMDL
MODEL 3
REMARK VINA RESULT:      -9.8      1.247      1.888
REMARK  6 active torsions:
REMARK  status: ('A' for Active; 'I' for Inactive)
REMARK       I    between atoms: N_2  and  C_3 
REMARK    1  A    between atoms: N_2  and  C_15 
REMARK       I    between atoms: C_3  and  N_4 
REMARK    2  A    between atoms: N_4  and  C_5 
REMARK    3  A    between atoms: C_15  and  C_16 
REMARK    4  A    between atoms: C_16  and  C_17 
REMARK    5  A    between atoms: C_17  and  C_18 
REMARK    6  A    between atoms: C_22  and  C_23 
ROOT
HETATM    1  C   UNL     1      24.170  46.541  49.761  1.00  0.00     0.127 C 
ENDROOT
BRANCH   1   2
HETATM    2  N   UNL     1      24.630  47.931  49.681  1.00  0.00    -0.338 N 
HETATM    3  C   UNL     1      26.075  48.115  49.578  1.00  0.00     0.154 C 
HETATM    4  C   UNL     1      23.845  49.008  49.265  1.00  0.00     0.322 C 
HETATM    5  N   UNL     1      22.496  48.853  49.464  1.00  0.00    -0.309 N 
HETATM    6  O   UNL     1      24.359  49.966  48.693  1.00  0.00    -0.247 OA
HETATM    7  H   UNL     1      22.224  48.160  50.140  1.00  0.00     0.170 HD
BRANCH   5   8
HETATM    8  C   UNL     1      21.449  49.656  48.959  1.00  0.00     0.036 A 
HETATM    9  C   UNL     1      20.791  49.411  47.751  1.00  0.00     0.039 A 
HETATM   10  C   UNL     1      19.763  50.261  47.365  1.00  0.00    -0.024 A 
HETATM   11  C   UNL     1      19.363  51.321  48.160  1.00  0.00    -0.026 A 
HETATM   12  C   UNL     1      18.924  50.217  46.141  1.00  0.00     0.207 C 
HETATM   13  C   UNL     1      18.223  52.013  47.511  1.00  0.00     0.207 C 
HETATM   14  C   UNL     1      19.986  51.578  49.366  1.00  0.00     0.012 A 
HETATM   15  O   UNL     1      18.158  51.446  46.182  1.00  0.00    -0.382 OA
HETATM   16  C   UNL     1      21.040  50.745  49.757  1.00  0.00     0.030 A 
ENDBRANCH   5   8
ENDBRANCH   1   2
BRANCH   1  17
HETATM   17  C   UNL     1      25.283  45.534  50.089  1.00  0.00     0.026 C 
BRANCH  17  18
HETATM   18  C   UNL     1      25.025  44.707  51.352  1.00  0.00     0.060 C 
BRANCH  18  19
HETATM   19  C   UNL     1      25.981  44.982  52.460  1.00  0.00     0.030 A 
HETATM   20  N   UNL     1      26.005  46.141  53.185  1.00  0.00    -0.282 N 
HETATM   21  H   UNL     1      25.395  46.952  53.115  1.00  0.00     0.189 HD
HETATM   22  N   UNL     1      26.987  46.180  54.100  1.00  0.00    -0.174 NA
HETATM   23  C   UNL     1      27.649  45.021  53.955  1.00  0.00     0.089 A 
HETATM   24  C   UNL     1      27.029  44.231  52.948  1.00  0.00     0.060 A 
BRANCH  23  25
HETATM   25  C   UNL     1      28.841  44.713  54.756  1.00  0.00    -0.005 A 
HETATM   26  C   UNL     1      29.355  45.634  55.686  1.00  0.00     0.017 A 
HETATM   27  C   UNL     1      30.478  45.316  56.455  1.00  0.00     0.043 A 
HETATM   28  C   UNL     1      31.094  44.081  56.299  1.00  0.00     0.116 A 
HETATM   29  F   UNL     1      32.168  43.780  57.040  1.00  0.00    -0.206 F 
HETATM   30  C   UNL     1      30.609  43.154  55.387  1.00  0.00     0.043 A 
HETATM   31  C   UNL     1      29.485  43.471  54.618  1.00  0.00     0.017 A 
ENDBRANCH  23  25
ENDBRANCH  18  19
ENDBRANCH  17  18
ENDBRANCH   1  17
TORSDOF 6
ENDMDL
MODEL 4
REMARK VINA RESULT:      -9.7      1.577      2.019
REMARK  6 active torsions:
REMARK  status: ('A' for Active; 'I' for Inactive)
REMARK       I    between atoms: N_2  and  C_3 
REMARK    1  A    between atoms: N_2  and  C_15 
REMARK       I    between atoms: C_3  and  N_4 
REMARK    2  A    between atoms: N_4  and  C_5 
REMARK    3  A    between atoms: C_15  and  C_16 
REMARK    4  A    between atoms: C_16  and  C_17 
REMARK    5  A    between atoms: C_17  and  C_18 
REMARK    6  A    between atoms: C_22  and  C_23 
ROOT
HETATM    1  C   UNL     1      24.225  45.550  50.961  1.00  0.00     0.127 C 
ENDROOT
BRANCH   1   2
HETATM    2  N   UNL     1      24.066  45.656  49.507  1.00  0.00    -0.338 N 
HETATM    3  C   UNL     1      24.336  44.437  48.750  1.00  0.00     0.154 C 
HETATM    4  C   UNL     1      23.294  46.621  48.858  1.00  0.00     0.322 C 
HETATM    5  N   UNL     1      23.138  47.798  49.546  1.00  0.00    -0.309 N 
HETATM    6  O   UNL     1      22.746  46.362  47.789  1.00  0.00    -0.247 OA
HETATM    7  H   UNL     1      23.810  47.979  50.272  1.00  0.00     0.170 HD
BRANCH   5   8
HETATM    8  C   UNL     1      22.251  48.859  49.257  1.00  0.00     0.036 A 
HETATM    9  C   UNL     1      20.859  48.736  49.264  1.00  0.00     0.039 A 
HETATM   10  C   UNL     1      20.088  49.855  48.980  1.00  0.00    -0.024 A 
HETATM   11  C   UNL     1      20.666  51.086  48.718  1.00  0.00    -0.026 A 
HETATM   12  C   UNL     1      18.610  49.982  48.921  1.00  0.00     0.207 C 
HETATM   13  C   UNL     1      19.596  52.090  48.498  1.00  0.00     0.207 C 
HETATM   14  C   UNL     1      22.039  51.239  48.718  1.00  0.00     0.012 A 
HETATM   15  O   UNL     1      18.380  51.313  48.399  1.00  0.00    -0.382 OA
HETATM   16  C   UNL     1      22.830  50.115  48.979  1.00  0.00     0.030 A 
ENDBRANCH   5   8
ENDBRANCH   1   2
BRANCH   1  17
HETATM   17  C   UNL     1      25.597  46.018  51.472  1.00  0.00     0.026 C 
BRANCH  17  18
HETATM   18  C   UNL     1      25.528  46.908  52.717  1.00  0.00     0.060 C 
BRANCH  18  19
HETATM   19  C   UNL     1      26.652  46.698  53.671  1.00  0.00     0.030 A 
HETATM   20  N   UNL     1      27.310  47.709  54.318  1.00  0.00    -0.282 N 
HETATM   21  H   UNL     1      27.139  48.711  54.279  1.00  0.00     0.189 HD
HETATM   22  N   UNL     1      28.320  47.280  55.091  1.00  0.00    -0.174 NA
HETATM   23  C   UNL     1      28.347  45.948  54.931  1.00  0.00     0.089 A 
HETATM   24  C   UNL     1      27.295  45.543  54.063  1.00  0.00     0.060 A 
BRANCH  23  25
HETATM   25  C   UNL     1      29.364  45.115  55.585  1.00  0.00    -0.005 A 
HETATM   26  C   UNL     1      29.817  43.920  55.000  1.00  0.00     0.017 A 
HETATM   27  C   UNL     1      30.802  43.150  55.625  1.00  0.00     0.043 A 
HETATM   28  C   UNL     1      31.338  43.568  56.837  1.00  0.00     0.116 A 
HETATM   29  F   UNL     1      32.283  42.829  57.431  1.00  0.00    -0.206 F 
HETATM   30  C   UNL     1      30.908  44.743  57.437  1.00  0.00     0.043 A 
HETATM   31  C   UNL     1      29.924  45.514  56.812  1.00  0.00     0.017 A 
ENDBRANCH  23  25
ENDBRANCH  18  19
ENDBRANCH  17  18
ENDBRANCH   1  17
TORSDOF 6
ENDMDL
MODEL 5
REMARK VINA RESULT:      -9.3     12.283     14.739
REMARK  6 active torsions:
REMARK  status: ('A' for Active; 'I' for Inactive)
REMARK       I    between atoms: N_2  and  C_3 
REMARK    1  A    between atoms: N_2  and  C_15 
REMARK       I    between atoms: C_3  and  N_4 
REMARK    2  A    between atoms: N_4  and  C_5 
REMARK    3  A    between atoms: C_15  and  C_16 
REMARK    4  A    between atoms: C_16  and  C_17 
REMARK    5  A    between atoms: C_17  and  C_18 
REMARK    6  A    between atoms: C_22  and  C_23 
ROOT
HETATM    1  C   UNL     1      26.106  46.164  38.216  1.00  0.00     0.127 C 
ENDROOT
BRANCH   1   2
HETATM    2  N   UNL     1      26.997  45.372  39.071  1.00  0.00    -0.338 N 
HETATM    3  C   UNL     1      26.861  43.924  38.957  1.00  0.00     0.154 C 
HETATM    4  C   UNL     1      28.197  45.834  39.614  1.00  0.00     0.322 C 
HETATM    5  N   UNL     1      28.263  47.191  39.806  1.00  0.00    -0.309 N 
HETATM    6  O   UNL     1      29.127  45.057  39.813  1.00  0.00    -0.247 OA
HETATM    7  H   UNL     1      27.383  47.678  39.836  1.00  0.00     0.170 HD
BRANCH   5   8
HETATM    8  C   UNL     1      29.400  47.966  40.127  1.00  0.00     0.036 A 
HETATM    9  C   UNL     1      29.767  48.312  41.431  1.00  0.00     0.039 A 
HETATM   10  C   UNL     1      30.917  49.064  41.624  1.00  0.00    -0.024 A 
HETATM   11  C   UNL     1      31.715  49.453  40.562  1.00  0.00    -0.026 A 
HETATM   12  C   UNL     1      31.510  49.557  42.893  1.00  0.00     0.207 C 
HETATM   13  C   UNL     1      32.887  50.200  41.081  1.00  0.00     0.207 C 
HETATM   14  C   UNL     1      31.384  49.114  39.264  1.00  0.00     0.012 A 
HETATM   15  O   UNL     1      32.583  50.434  42.476  1.00  0.00    -0.382 OA
HETATM   16  C   UNL     1      30.215  48.376  39.051  1.00  0.00     0.030 A 
ENDBRANCH   5   8
ENDBRANCH   1   2
BRANCH   1  17
HETATM   17  C   UNL     1      24.831  46.648  38.925  1.00  0.00     0.026 C 
BRANCH  17  18
HETATM   18  C   UNL     1      24.354  48.032  38.474  1.00  0.00     0.060 C 
BRANCH  18  19
HETATM   19  C   UNL     1      25.415  49.076  38.503  1.00  0.00     0.030 A 
HETATM   20  N   UNL     1      25.979  49.631  37.387  1.00  0.00    -0.282 N 
HETATM   21  H   UNL     1      25.765  49.455  36.407  1.00  0.00     0.189 HD
HETATM   22  N   UNL     1      26.950  50.516  37.661  1.00  0.00    -0.174 NA
HETATM   23  C   UNL     1      27.048  50.527  39.000  1.00  0.00     0.089 A 
HETATM   24  C   UNL     1      26.081  49.651  39.564  1.00  0.00     0.060 A 
BRANCH  23  25
HETATM   25  C   UNL     1      28.054  51.346  39.689  1.00  0.00    -0.005 A 
HETATM   26  C   UNL     1      28.006  51.545  41.080  1.00  0.00     0.017 A 
HETATM   27  C   UNL     1      28.983  52.310  41.724  1.00  0.00     0.043 A 
HETATM   28  C   UNL     1      30.011  52.880  40.983  1.00  0.00     0.116 A 
HETATM   29  F   UNL     1      30.947  53.609  41.604  1.00  0.00    -0.206 F 
HETATM   30  C   UNL     1      30.082  52.700  39.608  1.00  0.00     0.043 A 
HETATM   31  C   UNL     1      29.106  51.935  38.964  1.00  0.00     0.017 A 
ENDBRANCH  23  25
ENDBRANCH  18  19
ENDBRANCH  17  18
ENDBRANCH   1  17
TORSDOF 6
ENDMDL
MODEL 6
REMARK VINA RESULT:      -9.1      5.238      8.654
REMARK  6 active torsions:
REMARK  status: ('A' for Active; 'I' for Inactive)
REMARK       I    between atoms: N_2  and  C_3 
REMARK    1  A    between atoms: N_2  and  C_15 
REMARK       I    between atoms: C_3  and  N_4 
REMARK    2  A    between atoms: N_4  and  C_5 
REMARK    3  A    between atoms: C_15  and  C_16 
REMARK    4  A    between atoms: C_16  and  C_17 
REMARK    5  A    between atoms: C_17  and  C_18 
REMARK    6  A    between atoms: C_22  and  C_23 
ROOT
HETATM    1  C   UNL     1      25.113  45.012  49.396  1.00  0.00     0.127 C 
ENDROOT
BRANCH   1   2
HETATM    2  N   UNL     1      24.458  43.763  49.798  1.00  0.00    -0.338 N 
HETATM    3  C   UNL     1      23.000  43.801  49.849  1.00  0.00     0.154 C 
HETATM    4  C   UNL     1      25.035  42.495  49.703  1.00  0.00     0.322 C 
HETATM    5  N   UNL     1      26.406  42.476  49.760  1.00  0.00    -0.309 N 
HETATM    6  O   UNL     1      24.333  41.507  49.504  1.00  0.00    -0.247 OA
HETATM    7  H   UNL     1      26.845  43.289  50.157  1.00  0.00     0.170 HD
BRANCH   5   8
HETATM    8  C   UNL     1      27.269  41.393  49.477  1.00  0.00     0.036 A 
HETATM    9  C   UNL     1      27.846  40.580  50.456  1.00  0.00     0.039 A 
HETATM   10  C   UNL     1      28.666  39.533  50.057  1.00  0.00    -0.024 A 
HETATM   11  C   UNL     1      28.900  39.266  48.719  1.00  0.00    -0.026 A 
HETATM   12  C   UNL     1      29.391  38.542  50.892  1.00  0.00     0.207 C 
HETATM   13  C   UNL     1      29.770  38.070  48.605  1.00  0.00     0.207 C 
HETATM   14  C   UNL     1      28.331  40.045  47.730  1.00  0.00     0.012 A 
HETATM   15  O   UNL     1      30.226  37.821  49.955  1.00  0.00    -0.382 OA
HETATM   16  C   UNL     1      27.522  41.119  48.117  1.00  0.00     0.030 A 
ENDBRANCH   5   8
ENDBRANCH   1   2
BRANCH   1  17
HETATM   17  C   UNL     1      26.071  45.581  50.454  1.00  0.00     0.026 C 
BRANCH  17  18
HETATM   18  C   UNL     1      25.404  45.890  51.798  1.00  0.00     0.060 C 
BRANCH  18  19
HETATM   19  C   UNL     1      26.340  45.866  52.956  1.00  0.00     0.030 A 
HETATM   20  N   UNL     1      26.431  46.860  53.891  1.00  0.00    -0.282 N 
HETATM   21  H   UNL     1      25.892  47.719  53.967  1.00  0.00     0.189 HD
HETATM   22  N   UNL     1      27.380  46.639  54.815  1.00  0.00    -0.174 NA
HETATM   23  C   UNL     1      27.951  45.476  54.464  1.00  0.00     0.089 A 
HETATM   24  C   UNL     1      27.306  44.948  53.312  1.00  0.00     0.060 A 
BRANCH  23  25
HETATM   25  C   UNL     1      29.085  44.920  55.213  1.00  0.00    -0.005 A 
HETATM   26  C   UNL     1      29.585  45.558  56.361  1.00  0.00     0.017 A 
HETATM   27  C   UNL     1      30.652  45.004  57.076  1.00  0.00     0.043 A 
HETATM   28  C   UNL     1      31.224  43.813  56.646  1.00  0.00     0.116 A 
HETATM   29  F   UNL     1      32.244  43.284  57.335  1.00  0.00    -0.206 F 
HETATM   30  C   UNL     1      30.751  43.163  55.515  1.00  0.00     0.043 A 
HETATM   31  C   UNL     1      29.684  43.716  54.801  1.00  0.00     0.017 A 
ENDBRANCH  23  25
ENDBRANCH  18  19
ENDBRANCH  17  18
ENDBRANCH   1  17
TORSDOF 6
ENDMDL
MODEL 7
REMARK VINA RESULT:      -9.0      5.230     11.320
REMARK  6 active torsions:
REMARK  status: ('A' for Active; 'I' for Inactive)
REMARK       I    between atoms: N_2  and  C_3 
REMARK    1  A    between atoms: N_2  and  C_15 
REMARK       I    between atoms: C_3  and  N_4 
REMARK    2  A    between atoms: N_4  and  C_5 
REMARK    3  A    between atoms: C_15  and  C_16 
REMARK    4  A    between atoms: C_16  and  C_17 
REMARK    5  A    between atoms: C_17  and  C_18 
REMARK    6  A    between atoms: C_22  and  C_23 
ROOT
HETATM    1  C   UNL     1      27.012  42.885  49.784  1.00  0.00     0.127 C 
ENDROOT
BRANCH   1   2
HETATM    2  N   UNL     1      26.802  41.982  50.920  1.00  0.00    -0.338 N 
HETATM    3  C   UNL     1      26.445  40.609  50.579  1.00  0.00     0.154 C 
HETATM    4  C   UNL     1      27.319  42.180  52.201  1.00  0.00     0.322 C 
HETATM    5  N   UNL     1      27.552  43.491  52.537  1.00  0.00    -0.309 N 
HETATM    6  O   UNL     1      27.604  41.219  52.911  1.00  0.00    -0.247 OA
HETATM    7  H   UNL     1      27.067  44.181  51.990  1.00  0.00     0.170 HD
BRANCH   5   8
HETATM    8  C   UNL     1      28.261  43.985  53.655  1.00  0.00     0.036 A 
HETATM    9  C   UNL     1      29.369  43.348  54.220  1.00  0.00     0.039 A 
HETATM   10  C   UNL     1      29.996  43.939  55.309  1.00  0.00    -0.024 A 
HETATM   11  C   UNL     1      29.564  45.150  55.824  1.00  0.00    -0.026 A 
HETATM   12  C   UNL     1      31.172  43.466  56.081  1.00  0.00     0.207 C 
HETATM   13  C   UNL     1      30.451  45.547  56.945  1.00  0.00     0.207 C 
HETATM   14  C   UNL     1      28.480  45.808  55.276  1.00  0.00     0.012 A 
HETATM   15  O   UNL     1      31.258  44.375  57.205  1.00  0.00    -0.382 OA
HETATM   16  C   UNL     1      27.823  45.213  54.193  1.00  0.00     0.030 A 
ENDBRANCH   5   8
ENDBRANCH   1   2
BRANCH   1  17
HETATM   17  C   UNL     1      25.762  43.684  49.384  1.00  0.00     0.026 C 
BRANCH  17  18
HETATM   18  C   UNL     1      25.672  45.069  50.032  1.00  0.00     0.060 C 
BRANCH  18  19
HETATM   19  C   UNL     1      24.510  45.877  49.571  1.00  0.00     0.030 A 
HETATM   20  N   UNL     1      23.528  45.408  48.741  1.00  0.00    -0.282 N 
HETATM   21  H   UNL     1      23.417  44.478  48.343  1.00  0.00     0.189 HD
HETATM   22  N   UNL     1      22.609  46.332  48.423  1.00  0.00    -0.174 NA
HETATM   23  C   UNL     1      23.010  47.455  49.040  1.00  0.00     0.089 A 
HETATM   24  C   UNL     1      24.190  47.200  49.792  1.00  0.00     0.060 A 
BRANCH  23  25
HETATM   25  C   UNL     1      22.279  48.720  48.886  1.00  0.00    -0.005 A 
HETATM   26  C   UNL     1      20.892  48.792  49.100  1.00  0.00     0.017 A 
HETATM   27  C   UNL     1      20.214  50.009  48.969  1.00  0.00     0.043 A 
HETATM   28  C   UNL     1      20.918  51.156  48.625  1.00  0.00     0.116 A 
HETATM   29  F   UNL     1      20.266  52.319  48.504  1.00  0.00    -0.206 F 
HETATM   30  C   UNL     1      22.288  51.112  48.407  1.00  0.00     0.043 A 
HETATM   31  C   UNL     1      22.966  49.896  48.538  1.00  0.00     0.017 A 
ENDBRANCH  23  25
ENDBRANCH  18  19
ENDBRANCH  17  18
ENDBRANCH   1  17
TORSDOF 6
ENDMDL
MODEL 8
REMARK VINA RESULT:      -9.0      4.499      7.933
REMARK  6 active torsions:
REMARK  status: ('A' for Active; 'I' for Inactive)
REMARK       I    between atoms: N_2  and  C_3 
REMARK    1  A    between atoms: N_2  and  C_15 
REMARK       I    between atoms: C_3  and  N_4 
REMARK    2  A    between atoms: N_4  and  C_5 
REMARK    3  A    between atoms: C_15  and  C_16 
REMARK    4  A    between atoms: C_16  and  C_17 
REMARK    5  A    between atoms: C_17  and  C_18 
REMARK    6  A    between atoms: C_22  and  C_23 
ROOT
HETATM    1  C   UNL     1      25.330  46.263  49.619  1.00  0.00     0.127 C 
ENDROOT
BRANCH   1   2
HETATM    2  N   UNL     1      24.420  45.112  49.607  1.00  0.00    -0.338 N 
HETATM    3  C   UNL     1      23.085  45.367  49.076  1.00  0.00     0.154 C 
HETATM    4  C   UNL     1      24.826  43.777  49.630  1.00  0.00     0.322 C 
HETATM    5  N   UNL     1      26.041  43.550  50.225  1.00  0.00    -0.309 N 
HETATM    6  O   UNL     1      24.151  42.913  49.075  1.00  0.00    -0.247 OA
HETATM    7  H   UNL     1      26.376  44.272  50.840  1.00  0.00     0.170 HD
BRANCH   5   8
HETATM    8  C   UNL     1      26.805  42.361  50.209  1.00  0.00     0.036 A 
HETATM    9  C   UNL     1      27.131  41.659  49.045  1.00  0.00     0.039 A 
HETATM   10  C   UNL     1      27.902  40.510  49.152  1.00  0.00    -0.024 A 
HETATM   11  C   UNL     1      28.374  40.065  50.375  1.00  0.00    -0.026 A 
HETATM   12  C   UNL     1      28.373  39.597  48.080  1.00  0.00     0.207 C 
HETATM   13  C   UNL     1      29.200  38.851  50.167  1.00  0.00     0.207 C 
HETATM   14  C   UNL     1      28.079  40.748  51.540  1.00  0.00     0.012 A 
HETATM   15  O   UNL     1      28.966  38.482  48.788  1.00  0.00    -0.382 OA
HETATM   16  C   UNL     1      27.282  41.894  51.451  1.00  0.00     0.030 A 
ENDBRANCH   5   8
ENDBRANCH   1   2
BRANCH   1  17
HETATM   17  C   UNL     1      25.342  47.032  50.949  1.00  0.00     0.026 C 
BRANCH  17  18
HETATM   18  C   UNL     1      25.048  46.162  52.176  1.00  0.00     0.060 C 
BRANCH  18  19
HETATM   19  C   UNL     1      26.161  46.117  53.164  1.00  0.00     0.030 A 
HETATM   20  N   UNL     1      26.630  47.208  53.845  1.00  0.00    -0.282 N 
HETATM   21  H   UNL     1      26.302  48.170  53.814  1.00  0.00     0.189 HD
HETATM   22  N   UNL     1      27.671  46.932  54.646  1.00  0.00    -0.174 NA
HETATM   23  C   UNL     1      27.915  45.624  54.468  1.00  0.00     0.089 A 
HETATM   24  C   UNL     1      26.969  45.073  53.561  1.00  0.00     0.060 A 
BRANCH  23  25
HETATM   25  C   UNL     1      29.032  44.952  55.145  1.00  0.00    -0.005 A 
HETATM   26  C   UNL     1      29.570  43.751  54.650  1.00  0.00     0.017 A 
HETATM   27  C   UNL     1      30.648  43.135  55.294  1.00  0.00     0.043 A 
HETATM   28  C   UNL     1      31.192  43.715  56.433  1.00  0.00     0.116 A 
HETATM   29  F   UNL     1      32.226  43.124  57.045  1.00  0.00    -0.206 F 
HETATM   30  C   UNL     1      30.680  44.900  56.943  1.00  0.00     0.043 A 
HETATM   31  C   UNL     1      29.603  45.516  56.300  1.00  0.00     0.017 A 
ENDBRANCH  23  25
ENDBRANCH  18  19
ENDBRANCH  17  18
ENDBRANCH   1  17
TORSDOF 6
ENDMDL
MODEL 9
REMARK VINA RESULT:      -8.9      2.666      3.225
REMARK  6 active torsions:
REMARK  status: ('A' for Active; 'I' for Inactive)
REMARK       I    between atoms: N_2  and  C_3 
REMARK    1  A    between atoms: N_2  and  C_15 
REMARK       I    between atoms: C_3  and  N_4 
REMARK    2  A    between atoms: N_4  and  C_5 
REMARK    3  A    between atoms: C_15  and  C_16 
REMARK    4  A    between atoms: C_16  and  C_17 
REMARK    5  A    between atoms: C_17  and  C_18 
REMARK    6  A    between atoms: C_22  and  C_23 
ROOT
HETATM    1  C   UNL     1      22.534  44.266  49.361  1.00  0.00     0.127 C 
ENDROOT
BRANCH   1   2
HETATM    2  N   UNL     1      22.791  44.930  48.079  1.00  0.00    -0.338 N 
HETATM    3  C   UNL     1      23.130  44.048  46.966  1.00  0.00     0.154 C 
HETATM    4  C   UNL     1      22.330  46.202  47.734  1.00  0.00     0.322 C 
HETATM    5  N   UNL     1      22.115  47.047  48.794  1.00  0.00    -0.309 N 
HETATM    6  O   UNL     1      22.074  46.473  46.564  1.00  0.00    -0.247 OA
HETATM    7  H   UNL     1      22.578  46.807  49.654  1.00  0.00     0.170 HD
BRANCH   5   8
HETATM    8  C   UNL     1      21.457  48.298  48.783  1.00  0.00     0.036 A 
HETATM    9  C   UNL     1      20.072  48.451  48.900  1.00  0.00     0.039 A 
HETATM   10  C   UNL     1      19.539  49.733  48.894  1.00  0.00    -0.024 A 
HETATM   11  C   UNL     1      20.348  50.853  48.803  1.00  0.00    -0.026 A 
HETATM   12  C   UNL     1      18.120  50.156  48.999  1.00  0.00     0.207 C 
HETATM   13  C   UNL     1      19.503  52.071  48.867  1.00  0.00     0.207 C 
HETATM   14  C   UNL     1      21.720  50.731  48.700  1.00  0.00     0.012 A 
HETATM   15  O   UNL     1      18.147  51.582  48.746  1.00  0.00    -0.382 OA
HETATM   16  C   UNL     1      22.271  49.445  48.680  1.00  0.00     0.030 A 
ENDBRANCH   5   8
ENDBRANCH   1   2
BRANCH   1  17
HETATM   17  C   UNL     1      23.806  43.823  50.100  1.00  0.00     0.026 C 
BRANCH  17  18
HETATM   18  C   UNL     1      24.343  44.859  51.093  1.00  0.00     0.060 C 
BRANCH  18  19
HETATM   19  C   UNL     1      25.705  44.550  51.610  1.00  0.00     0.030 A 
HETATM   20  N   UNL     1      26.614  43.763  50.958  1.00  0.00    -0.282 N 
HETATM   21  H   UNL     1      26.531  43.304  50.054  1.00  0.00     0.189 HD
HETATM   22  N   UNL     1      27.756  43.587  51.641  1.00  0.00    -0.174 NA
HETATM   23  C   UNL     1      27.586  44.258  52.791  1.00  0.00     0.089 A 
HETATM   24  C   UNL     1      26.315  44.896  52.797  1.00  0.00     0.060 A 
BRANCH  23  25
HETATM   25  C   UNL     1      28.614  44.257  53.840  1.00  0.00    -0.005 A 
HETATM   26  C   UNL     1      28.638  45.245  54.841  1.00  0.00     0.017 A 
HETATM   27  C   UNL     1      29.611  45.218  55.845  1.00  0.00     0.043 A 
HETATM   28  C   UNL     1      30.564  44.207  55.854  1.00  0.00     0.116 A 
HETATM   29  F   UNL     1      31.492  44.183  56.819  1.00  0.00    -0.206 F 
HETATM   30  C   UNL     1      30.564  43.220  54.877  1.00  0.00     0.043 A 
HETATM   31  C   UNL     1      29.591  43.247  53.874  1.00  0.00     0.017 A 
ENDBRANCH  23  25
ENDBRANCH  18  19
ENDBRANCH  17  18
ENDBRANCH   1  17
TORSDOF 6
ENDMDL
MODEL 10
REMARK VINA RESULT:      -8.9      1.869      2.363
REMARK  6 active torsions:
REMARK  status: ('A' for Active; 'I' for Inactive)
REMARK       I    between atoms: N_2  and  C_3 
REMARK    1  A    between atoms: N_2  and  C_15 
REMARK       I    between atoms: C_3  and  N_4 
REMARK    2  A    between atoms: N_4  and  C_5 
REMARK    3  A    between atoms: C_15  and  C_16 
REMARK    4  A    between atoms: C_16  and  C_17 
REMARK    5  A    between atoms: C_17  and  C_18 
REMARK    6  A    between atoms: C_22  and  C_23 
ROOT
HETATM    1  C   UNL     1      23.141  47.656  49.416  1.00  0.00     0.127 C 
ENDROOT
BRANCH   1   2
HETATM    2  N   UNL     1      23.194  49.105  49.200  1.00  0.00    -0.338 N 
HETATM    3  C   UNL     1      24.450  49.620  48.663  1.00  0.00     0.154 C 
HETATM    4  C   UNL     1      22.077  49.928  49.041  1.00  0.00     0.322 C 
HETATM    5  N   UNL     1      20.930  49.472  49.641  1.00  0.00    -0.309 N 
HETATM    6  O   UNL     1      22.143  50.935  48.340  1.00  0.00    -0.247 OA
HETATM    7  H   UNL     1      21.052  48.787  50.367  1.00  0.00     0.170 HD
BRANCH   5   8
HETATM    8  C   UNL     1      19.614  49.960  49.477  1.00  0.00     0.036 A 
HETATM    9  C   UNL     1      19.216  51.258  49.812  1.00  0.00     0.039 A 
HETATM   10  C   UNL     1      17.897  51.630  49.590  1.00  0.00    -0.024 A 
HETATM   11  C   UNL     1      16.984  50.758  49.024  1.00  0.00    -0.026 A 
HETATM   12  C   UNL     1      17.235  52.931  49.860  1.00  0.00     0.207 C 
HETATM   13  C   UNL     1      15.680  51.448  48.871  1.00  0.00     0.207 C 
HETATM   14  C   UNL     1      17.353  49.474  48.671  1.00  0.00     0.012 A 
HETATM   15  O   UNL     1      15.831  52.682  49.612  1.00  0.00    -0.382 OA
HETATM   16  C   UNL     1      18.673  49.076  48.911  1.00  0.00     0.030 A 
ENDBRANCH   5   8
ENDBRANCH   1   2
BRANCH   1  17
HETATM   17  C   UNL     1      24.495  47.032  49.788  1.00  0.00     0.026 C 
BRANCH  17  18
HETATM   18  C   UNL     1      24.387  45.798  50.690  1.00  0.00     0.060 C 
BRANCH  18  19
HETATM   19  C   UNL     1      25.384  45.769  51.795  1.00  0.00     0.030 A 
HETATM   20  N   UNL     1      25.607  46.808  52.657  1.00  0.00    -0.282 N 
HETATM   21  H   UNL     1      25.141  47.711  52.705  1.00  0.00     0.189 HD
HETATM   22  N   UNL     1      26.588  46.569  53.541  1.00  0.00    -0.174 NA
HETATM   23  C   UNL     1      27.046  45.344  53.236  1.00  0.00     0.089 A 
HETATM   24  C   UNL     1      26.296  44.800  52.157  1.00  0.00     0.060 A 
BRANCH  23  25
HETATM   25  C   UNL     1      28.176  44.745  53.958  1.00  0.00    -0.005 A 
HETATM   26  C   UNL     1      28.760  43.540  53.530  1.00  0.00     0.017 A 
HETATM   27  C   UNL     1      29.850  42.993  54.216  1.00  0.00     0.043 A 
HETATM   28  C   UNL     1      30.359  43.646  55.332  1.00  0.00     0.116 A 
HETATM   29  F   UNL     1      31.404  43.121  55.984  1.00  0.00    -0.206 F 
HETATM   30  C   UNL     1      29.800  44.836  55.777  1.00  0.00     0.043 A 
HETATM   31  C   UNL     1      28.712  45.383  55.091  1.00  0.00     0.017 A 
ENDBRANCH  23  25
ENDBRANCH  18  19
ENDBRANCH  17  18
ENDBRANCH   1  17
TORSDOF 6
ENDMDL
