MODEL 1
REMARK VINA RESULT:      -9.6      0.000      0.000
REMARK  7 active torsions:
REMARK  status: ('A' for Active; 'I' for Inactive)
REMARK    1  A    between atoms: C_6  and  N_7 
REMARK       I    between atoms: N_7  and  C_8 
REMARK       I    between atoms: C_8  and  N_9 
REMARK    2  A    between atoms: N_9  and  C_10 
REMARK    3  A    between atoms: C_10  and  C_11 
REMARK    4  A    between atoms: C_11  and  C_12 
REMARK    5  A    between atoms: C_12  and  C_13 
REMARK    6  A    between atoms: C_13  and  O_14 
REMARK    7  A    between atoms: O_14  and  C_15 
ROOT
HETATM    1  C   UNL     1      25.928  46.948  52.300  1.00  0.00     0.219 C 
ENDROOT
BRANCH   1   2
HETATM    2  N   UNL     1      25.709  45.784  53.123  1.00  0.00    -0.332 N 
HETATM    3  C   UNL     1      26.522  45.108  53.978  1.00  0.00     0.321 C 
HETATM    4  N   UNL     1      27.824  45.515  54.032  1.00  0.00    -0.309 N 
HETATM    5  O   UNL     1      26.011  44.204  54.631  1.00  0.00    -0.247 OA
HETATM    6  H   UNL     1      28.126  46.162  53.326  1.00  0.00     0.170 HD
HETATM    7  H   UNL     1      24.772  45.402  53.126  1.00  0.00     0.165 HD
BRANCH   4   8
HETATM    8  C   UNL     1      28.848  45.032  54.876  1.00  0.00     0.036 A 
HETATM    9  C   UNL     1      29.249  45.651  56.061  1.00  0.00     0.037 A 
HETATM   10  C   UNL     1      30.275  45.110  56.860  1.00  0.00    -0.054 A 
HETATM   11  C   UNL     1      30.906  43.916  56.465  1.00  0.00    -0.056 A 
HETATM   12  C   UNL     1      30.633  45.802  58.149  1.00  0.00     0.049 C 
HETATM   13  C   UNL     1      31.999  43.291  57.287  1.00  0.00     0.049 C 
HETATM   14  C   UNL     1      30.515  43.307  55.266  1.00  0.00     0.009 A 
HETATM   15  C   UNL     1      29.496  43.857  54.483  1.00  0.00     0.030 A 
ENDBRANCH   4   8
ENDBRANCH   1   2
BRANCH   1  16
HETATM   16  C   UNL     1      24.970  46.903  51.121  1.00  0.00    -0.085 C 
BRANCH  16  17
HETATM   17  C   UNL     1      24.148  46.864  50.109  1.00  0.00    -0.078 C 
BRANCH  17  18
HETATM   18  C   UNL     1      23.188  46.818  48.931  1.00  0.00     0.269 C 
BRANCH  18  19
HETATM   19  O   UNL     1      23.384  47.962  48.107  1.00  0.00    -0.339 OA
BRANCH  19  20
HETATM   20  C   UNL     1      22.517  49.004  48.310  1.00  0.00     0.072 A 
HETATM   21  C   UNL     1      21.326  48.664  48.959  1.00  0.00     0.069 A 
HETATM   22  C   UNL     1      20.347  49.608  49.245  1.00  0.00     0.069 A 
HETATM   23  C   UNL     1      20.586  50.949  48.879  1.00  0.00    -0.007 A 
HETATM   24  N   UNL     1      19.208  49.224  49.851  1.00  0.00    -0.260 NA
HETATM   25  C   UNL     1      21.785  51.303  48.245  1.00  0.00     0.016 A 
HETATM   26  C   UNL     1      19.601  51.900  49.171  1.00  0.00     0.015 A 
HETATM   27  C   UNL     1      22.747  50.332  47.959  1.00  0.00     0.038 A 
HETATM   28  C   UNL     1      18.425  51.505  49.797  1.00  0.00     0.020 A 
HETATM   29  C   UNL     1      18.278  50.169  50.113  1.00  0.00     0.117 A 
ENDBRANCH  19  20
ENDBRANCH  18  19
ENDBRANCH  17  18
ENDBRANCH  16  17
ENDBRANCH   1  16
TORSDOF 7
ENDMDL
MODEL 2
REMARK VINA RESULT:      -9.2      1.487      2.025
REMARK  7 active torsions:
REMARK  status: ('A' for Active; 'I' for Inactive)
REMARK    1  A    between atoms: C_6  and  N_7 
REMARK       I    between atoms: N_7  and  C_8 
REMARK       I    between atoms: C_8  and  N_9 
REMARK    2  A    between atoms: N_9  and  C_10 
REMARK    3  A    between atoms: C_10  and  C_11 
REMARK    4  A    between atoms: C_11  and  C_12 
REMARK    5  A    between atoms: C_12  and  C_13 
REMARK    6  A    between atoms: C_13  and  O_14 
REMARK    7  A    between atoms: O_14  and  C_15 
ROOT
HETATM    1  C   UNL     1      27.401  43.968  50.621  1.00  0.00     0.219 C 
ENDROOT
BRANCH   1   2
HETATM    2  N   UNL     1      27.117  43.182  51.797  1.00  0.00    -0.332 N 
HETATM    3  C   UNL     1      27.567  43.265  53.077  1.00  0.00     0.321 C 
HETATM    4  N   UNL     1      28.539  44.193  53.324  1.00  0.00    -0.309 N 
HETATM    5  O   UNL     1      27.052  42.511  53.897  1.00  0.00    -0.247 OA
HETATM    6  H   UNL     1      28.967  44.623  52.524  1.00  0.00     0.170 HD
HETATM    7  H   UNL     1      26.420  42.456  51.698  1.00  0.00     0.165 HD
BRANCH   4   8
HETATM    8  C   UNL     1      29.124  44.525  54.566  1.00  0.00     0.036 A 
HETATM    9  C   UNL     1      30.135  43.786  55.182  1.00  0.00     0.037 A 
HETATM   10  C   UNL     1      30.679  44.178  56.421  1.00  0.00    -0.054 A 
HETATM   11  C   UNL     1      30.204  45.343  57.050  1.00  0.00    -0.056 A 
HETATM   12  C   UNL     1      31.798  43.362  57.013  1.00  0.00     0.049 C 
HETATM   13  C   UNL     1      30.757  45.812  58.367  1.00  0.00     0.049 C 
HETATM   14  C   UNL     1      29.175  46.072  56.438  1.00  0.00     0.009 A 
HETATM   15  C   UNL     1      28.645  45.669  55.210  1.00  0.00     0.030 A 
ENDBRANCH   4   8
ENDBRANCH   1   2
BRANCH   1  16
HETATM   16  C   UNL     1      26.455  45.156  50.583  1.00  0.00    -0.085 C 
BRANCH  16  17
HETATM   17  C   UNL     1      25.642  46.176  50.552  1.00  0.00    -0.078 C 
BRANCH  17  18
HETATM   18  C   UNL     1      24.696  47.365  50.516  1.00  0.00     0.269 C 
BRANCH  18  19
HETATM   19  O   UNL     1      24.668  47.919  49.206  1.00  0.00    -0.339 OA
BRANCH  19  20
HETATM   20  C   UNL     1      23.740  48.903  48.990  1.00  0.00     0.072 A 
HETATM   21  C   UNL     1      22.422  48.551  49.295  1.00  0.00     0.069 A 
HETATM   22  C   UNL     1      21.365  49.439  49.137  1.00  0.00     0.069 A 
HETATM   23  C   UNL     1      21.650  50.739  48.671  1.00  0.00    -0.007 A 
HETATM   24  N   UNL     1      20.112  49.042  49.426  1.00  0.00    -0.260 NA
HETATM   25  C   UNL     1      22.972  51.108  48.379  1.00  0.00     0.016 A 
HETATM   26  C   UNL     1      20.586  51.635  48.516  1.00  0.00     0.015 A 
HETATM   27  C   UNL     1      24.013  50.192  48.536  1.00  0.00     0.038 A 
HETATM   28  C   UNL     1      19.292  51.226  48.814  1.00  0.00     0.020 A 
HETATM   29  C   UNL     1      19.109  49.932  49.259  1.00  0.00     0.117 A 
ENDBRANCH  19  20
ENDBRANCH  18  19
ENDBRANCH  17  18
ENDBRANCH  16  17
ENDBRANCH   1  16
TORSDOF 7
ENDMDL
MODEL 3
REMARK VINA RESULT:      -9.2      1.837     11.924
REMARK  7 active torsions:
REMARK  status: ('A' for Active; 'I' for Inactive)
REMARK    1  A    between atoms: C_6  and  N_7 
REMARK       I    between atoms: N_7  and  C_8 
REMARK       I    between atoms: C_8  and  N_9 
REMARK    2  A    between atoms: N_9  and  C_10 
REMARK    3  A    between atoms: C_10  and  C_11 
REMARK    4  A    between atoms: C_11  and  C_12 
REMARK    5  A    between atoms: C_12  and  C_13 
REMARK    6  A    between atoms: C_13  and  O_14 
REMARK    7  A    between atoms: O_14  and  C_15 
ROOT
HETATM    1  C   UNL     1      23.811  45.828  50.234  1.00  0.00     0.219 C 
ENDROOT
BRANCH   1   2
HETATM    2  N   UNL     1      24.312  47.116  49.820  1.00  0.00    -0.332 N 
HETATM    3  C   UNL     1      23.682  48.258  49.436  1.00  0.00     0.321 C 
HETATM    4  N   UNL     1      22.323  48.195  49.317  1.00  0.00    -0.309 N 
HETATM    5  O   UNL     1      24.387  49.244  49.244  1.00  0.00    -0.247 OA
HETATM    6  H   UNL     1      21.907  47.281  49.355  1.00  0.00     0.170 HD
HETATM    7  H   UNL     1      25.315  47.244  49.858  1.00  0.00     0.165 HD
BRANCH   4   8
HETATM    8  C   UNL     1      21.432  49.244  49.003  1.00  0.00     0.036 A 
HETATM    9  C   UNL     1      20.735  49.350  47.797  1.00  0.00     0.037 A 
HETATM   10  C   UNL     1      19.855  50.422  47.551  1.00  0.00    -0.054 A 
HETATM   11  C   UNL     1      19.662  51.403  48.542  1.00  0.00    -0.056 A 
HETATM   12  C   UNL     1      19.101  50.458  46.248  1.00  0.00     0.049 C 
HETATM   13  C   UNL     1      18.726  52.561  48.334  1.00  0.00     0.049 C 
HETATM   14  C   UNL     1      20.376  51.303  49.743  1.00  0.00     0.009 A 
HETATM   15  C   UNL     1      21.247  50.235  49.971  1.00  0.00     0.030 A 
ENDBRANCH   4   8
ENDBRANCH   1   2
BRANCH   1  16
HETATM   16  C   UNL     1      24.843  45.163  51.128  1.00  0.00    -0.085 C 
BRANCH  16  17
HETATM   17  C   UNL     1      25.730  44.593  51.896  1.00  0.00    -0.078 C 
BRANCH  17  18
HETATM   18  C   UNL     1      26.764  43.929  52.790  1.00  0.00     0.269 C 
BRANCH  18  19
HETATM   19  O   UNL     1      27.866  44.808  52.987  1.00  0.00    -0.339 OA
BRANCH  19  20
HETATM   20  C   UNL     1      28.792  44.411  53.916  1.00  0.00     0.072 A 
HETATM   21  C   UNL     1      28.899  45.240  55.037  1.00  0.00     0.069 A 
HETATM   22  C   UNL     1      29.787  44.971  56.071  1.00  0.00     0.069 A 
HETATM   23  C   UNL     1      30.585  43.812  55.981  1.00  0.00    -0.007 A 
HETATM   24  N   UNL     1      29.866  45.813  57.118  1.00  0.00    -0.260 NA
HETATM   25  C   UNL     1      30.473  42.965  54.869  1.00  0.00     0.016 A 
HETATM   26  C   UNL     1      31.477  43.539  57.025  1.00  0.00     0.015 A 
HETATM   27  C   UNL     1      29.580  43.265  53.838  1.00  0.00     0.038 A 
HETATM   28  C   UNL     1      31.559  44.407  58.106  1.00  0.00     0.020 A 
HETATM   29  C   UNL     1      30.741  45.520  58.105  1.00  0.00     0.117 A 
ENDBRANCH  19  20
ENDBRANCH  18  19
ENDBRANCH  17  18
ENDBRANCH  16  17
ENDBRANCH   1  16
TORSDOF 7
ENDMDL
MODEL 4
REMARK VINA RESULT:      -9.0      1.814     11.443
REMARK  7 active torsions:
REMARK  status: ('A' for Active; 'I' for Inactive)
REMARK    1  A    between atoms: C_6  and  N_7 
REMARK       I    between atoms: N_7  and  C_8 
REMARK       I    between atoms: C_8  and  N_9 
REMARK    2  A    between atoms: N_9  and  C_10 
REMARK    3  A    between atoms: C_10  and  C_11 
REMARK    4  A    between atoms: C_11  and  C_12 
REMARK    5  A    between atoms: C_12  and  C_13 
REMARK    6  A    between atoms: C_13  and  O_14 
REMARK    7  A    between atoms: O_14  and  C_15 
ROOT
HETATM    1  C   UNL     1      24.900  47.132  50.398  1.00  0.00     0.219 C 
ENDROOT
BRANCH   1   2
HETATM    2  N   UNL     1      24.110  46.964  49.203  1.00  0.00    -0.332 N 
HETATM    3  C   UNL     1      23.018  47.624  48.733  1.00  0.00     0.321 C 
HETATM    4  N   UNL     1      22.478  48.572  49.555  1.00  0.00    -0.309 N 
HETATM    5  O   UNL     1      22.625  47.320  47.612  1.00  0.00    -0.247 OA
HETATM    6  H   UNL     1      22.814  48.596  50.501  1.00  0.00     0.170 HD
HETATM    7  H   UNL     1      24.430  46.265  48.545  1.00  0.00     0.165 HD
BRANCH   4   8
HETATM    8  C   UNL     1      21.396  49.437  49.284  1.00  0.00     0.036 A 
HETATM    9  C   UNL     1      20.053  49.059  49.337  1.00  0.00     0.037 A 
HETATM   10  C   UNL     1      19.021  49.977  49.060  1.00  0.00    -0.054 A 
HETATM   11  C   UNL     1      19.344  51.307  48.732  1.00  0.00    -0.056 A 
HETATM   12  C   UNL     1      17.591  49.519  49.175  1.00  0.00     0.049 C 
HETATM   13  C   UNL     1      18.281  52.329  48.438  1.00  0.00     0.049 C 
HETATM   14  C   UNL     1      20.693  51.679  48.661  1.00  0.00     0.009 A 
HETATM   15  C   UNL     1      21.705  50.756  48.936  1.00  0.00     0.030 A 
ENDBRANCH   4   8
ENDBRANCH   1   2
BRANCH   1  16
HETATM   16  C   UNL     1      25.808  45.924  50.561  1.00  0.00    -0.085 C 
BRANCH  16  17
HETATM   17  C   UNL     1      26.586  44.887  50.700  1.00  0.00    -0.078 C 
BRANCH  17  18
HETATM   18  C   UNL     1      27.494  43.678  50.861  1.00  0.00     0.269 C 
BRANCH  18  19
HETATM   19  O   UNL     1      27.282  43.084  52.137  1.00  0.00    -0.339 OA
BRANCH  19  20
HETATM   20  C   UNL     1      28.234  43.346  53.087  1.00  0.00     0.072 A 
HETATM   21  C   UNL     1      27.886  44.331  54.017  1.00  0.00     0.069 A 
HETATM   22  C   UNL     1      28.740  44.707  55.046  1.00  0.00     0.069 A 
HETATM   23  C   UNL     1      29.984  44.053  55.155  1.00  0.00    -0.007 A 
HETATM   24  N   UNL     1      28.366  45.677  55.902  1.00  0.00    -0.260 NA
HETATM   25  C   UNL     1      30.335  43.051  54.238  1.00  0.00     0.016 A 
HETATM   26  C   UNL     1      30.843  44.430  56.194  1.00  0.00     0.015 A 
HETATM   27  C   UNL     1      29.462  42.700  53.206  1.00  0.00     0.038 A 
HETATM   28  C   UNL     1      30.457  45.430  57.078  1.00  0.00     0.020 A 
HETATM   29  C   UNL     1      29.222  46.018  56.890  1.00  0.00     0.117 A 
ENDBRANCH  19  20
ENDBRANCH  18  19
ENDBRANCH  17  18
ENDBRANCH  16  17
ENDBRANCH   1  16
TORSDOF 7
ENDMDL
MODEL 5
REMARK VINA RESULT:      -8.7      1.535      2.230
REMARK  7 active torsions:
REMARK  status: ('A' for Active; 'I' for Inactive)
REMARK    1  A    between atoms: C_6  and  N_7 
REMARK       I    between atoms: N_7  and  C_8 
REMARK       I    between atoms: C_8  and  N_9 
REMARK    2  A    between atoms: N_9  and  C_10 
REMARK    3  A    between atoms: C_10  and  C_11 
REMARK    4  A    between atoms: C_11  and  C_12 
REMARK    5  A    between atoms: C_12  and  C_13 
REMARK    6  A    between atoms: C_13  and  O_14 
REMARK    7  A    between atoms: O_14  and  C_15 
ROOT
HETATM    1  C   UNL     1      25.171  44.537  50.006  1.00  0.00     0.219 C 
ENDROOT
BRANCH   1   2
HETATM    2  N   UNL     1      24.763  44.239  51.357  1.00  0.00    -0.332 N 
HETATM    3  C   UNL     1      25.420  44.318  52.545  1.00  0.00     0.321 C 
HETATM    4  N   UNL     1      26.743  44.651  52.490  1.00  0.00    -0.309 N 
HETATM    5  O   UNL     1      24.764  44.097  53.558  1.00  0.00    -0.247 OA
HETATM    6  H   UNL     1      27.174  44.647  51.582  1.00  0.00     0.170 HD
HETATM    7  H   UNL     1      23.798  43.963  51.487  1.00  0.00     0.165 HD
BRANCH   4   8
HETATM    8  C   UNL     1      27.628  44.864  53.569  1.00  0.00     0.036 A 
HETATM    9  C   UNL     1      28.623  43.966  53.960  1.00  0.00     0.037 A 
HETATM   10  C   UNL     1      29.477  44.245  55.045  1.00  0.00    -0.054 A 
HETATM   11  C   UNL     1      29.336  45.457  55.746  1.00  0.00    -0.056 A 
HETATM   12  C   UNL     1      30.558  43.256  55.391  1.00  0.00     0.049 C 
HETATM   13  C   UNL     1      30.228  45.808  56.904  1.00  0.00     0.049 C 
HETATM   14  C   UNL     1      28.324  46.348  55.363  1.00  0.00     0.009 A 
HETATM   15  C   UNL     1      27.483  46.055  54.286  1.00  0.00     0.030 A 
ENDBRANCH   4   8
ENDBRANCH   1   2
BRANCH   1  16
HETATM   16  C   UNL     1      24.031  45.245  49.293  1.00  0.00    -0.085 C 
BRANCH  16  17
HETATM   17  C   UNL     1      23.052  45.853  48.682  1.00  0.00    -0.078 C 
BRANCH  17  18
HETATM   18  C   UNL     1      21.911  46.560  47.971  1.00  0.00     0.269 C 
BRANCH  18  19
HETATM   19  O   UNL     1      22.397  47.735  47.330  1.00  0.00    -0.339 OA
BRANCH  19  20
HETATM   20  C   UNL     1      21.776  48.907  47.674  1.00  0.00     0.072 A 
HETATM   21  C   UNL     1      20.385  48.903  47.533  1.00  0.00     0.069 A 
HETATM   22  C   UNL     1      19.609  50.012  47.845  1.00  0.00     0.069 A 
HETATM   23  C   UNL     1      20.257  51.163  48.338  1.00  0.00    -0.007 A 
HETATM   24  N   UNL     1      18.275  49.963  47.671  1.00  0.00    -0.260 NA
HETATM   25  C   UNL     1      21.650  51.171  48.500  1.00  0.00     0.016 A 
HETATM   26  C   UNL     1      19.474  52.279  48.657  1.00  0.00     0.015 A 
HETATM   27  C   UNL     1      22.407  50.046  48.167  1.00  0.00     0.038 A 
HETATM   28  C   UNL     1      18.098  52.229  48.477  1.00  0.00     0.020 A 
HETATM   29  C   UNL     1      17.552  51.061  47.984  1.00  0.00     0.117 A 
ENDBRANCH  19  20
ENDBRANCH  18  19
ENDBRANCH  17  18
ENDBRANCH  16  17
ENDBRANCH   1  16
TORSDOF 7
ENDMDL
MODEL 6
REMARK VINA RESULT:      -8.6      2.751      4.018
REMARK  7 active torsions:
REMARK  status: ('A' for Active; 'I' for Inactive)
REMARK    1  A    between atoms: C_6  and  N_7 
REMARK       I    between atoms: N_7  and  C_8 
REMARK       I    between atoms: C_8  and  N_9 
REMARK    2  A    between atoms: N_9  and  C_10 
REMARK    3  A    between atoms: C_10  and  C_11 
REMARK    4  A    between atoms: C_11  and  C_12 
REMARK    5  A    between atoms: C_12  and  C_13 
REMARK    6  A    between atoms: C_13  and  O_14 
REMARK    7  A    between atoms: O_14  and  C_15 
ROOT
HETATM    1  C   UNL     1      27.953  41.137  50.272  1.00  0.00     0.219 C 
ENDROOT
BRANCH   1   2
HETATM    2  N   UNL     1      27.795  40.729  51.647  1.00  0.00    -0.332 N 
HETATM    3  C   UNL     1      28.087  41.350  52.820  1.00  0.00     0.321 C 
HETATM    4  N   UNL     1      28.736  42.548  52.732  1.00  0.00    -0.309 N 
HETATM    5  O   UNL     1      27.731  40.787  53.850  1.00  0.00    -0.247 OA
HETATM    6  H   UNL     1      29.098  42.802  51.829  1.00  0.00     0.170 HD
HETATM    7  H   UNL     1      27.339  39.839  51.804  1.00  0.00     0.165 HD
BRANCH   4   8
HETATM    8  C   UNL     1      29.091  43.421  53.783  1.00  0.00     0.036 A 
HETATM    9  C   UNL     1      28.399  44.590  54.104  1.00  0.00     0.037 A 
HETATM   10  C   UNL     1      28.805  45.413  55.172  1.00  0.00    -0.054 A 
HETATM   11  C   UNL     1      29.925  45.048  55.942  1.00  0.00    -0.056 A 
HETATM   12  C   UNL     1      27.993  46.640  55.494  1.00  0.00     0.049 C 
HETATM   13  C   UNL     1      30.394  45.886  57.100  1.00  0.00     0.049 C 
HETATM   14  C   UNL     1      30.629  43.884  55.607  1.00  0.00     0.009 A 
HETATM   15  C   UNL     1      30.214  43.080  54.543  1.00  0.00     0.030 A 
ENDBRANCH   4   8
ENDBRANCH   1   2
BRANCH   1  16
HETATM   16  C   UNL     1      26.855  42.128  49.925  1.00  0.00    -0.085 C 
BRANCH  16  17
HETATM   17  C   UNL     1      25.913  42.978  49.625  1.00  0.00    -0.078 C 
BRANCH  17  18
HETATM   18  C   UNL     1      24.815  43.970  49.277  1.00  0.00     0.269 C 
BRANCH  18  19
HETATM   19  O   UNL     1      24.734  44.973  50.285  1.00  0.00    -0.339 OA
BRANCH  19  20
HETATM   20  C   UNL     1      24.821  46.269  49.850  1.00  0.00     0.072 A 
HETATM   21  C   UNL     1      23.634  46.802  49.338  1.00  0.00     0.069 A 
HETATM   22  C   UNL     1      23.556  48.105  48.863  1.00  0.00     0.069 A 
HETATM   23  C   UNL     1      24.713  48.908  48.922  1.00  0.00    -0.007 A 
HETATM   24  N   UNL     1      22.394  48.563  48.361  1.00  0.00    -0.260 NA
HETATM   25  C   UNL     1      25.904  48.388  49.450  1.00  0.00     0.016 A 
HETATM   26  C   UNL     1      24.633  50.223  48.447  1.00  0.00     0.015 A 
HETATM   27  C   UNL     1      25.958  47.072  49.910  1.00  0.00     0.038 A 
HETATM   28  C   UNL     1      23.434  50.696  47.928  1.00  0.00     0.020 A 
HETATM   29  C   UNL     1      22.355  49.835  47.906  1.00  0.00     0.117 A 
ENDBRANCH  19  20
ENDBRANCH  18  19
ENDBRANCH  17  18
ENDBRANCH  16  17
ENDBRANCH   1  16
TORSDOF 7
ENDMDL
MODEL 7
REMARK VINA RESULT:      -8.6      1.204      1.728
REMARK  7 active torsions:
REMARK  status: ('A' for Active; 'I' for Inactive)
REMARK    1  A    between atoms: C_6  and  N_7 
REMARK       I    between atoms: N_7  and  C_8 
REMARK       I    between atoms: C_8  and  N_9 
REMARK    2  A    between atoms: N_9  and  C_10 
REMARK    3  A    between atoms: C_10  and  C_11 
REMARK    4  A    between atoms: C_11  and  C_12 
REMARK    5  A    between atoms: C_12  and  C_13 
REMARK    6  A    between atoms: C_13  and  O_14 
REMARK    7  A    between atoms: O_14  and  C_15 
ROOT
HETATM    1  C   UNL     1      26.130  46.971  51.277  1.00  0.00     0.219 C 
ENDROOT
BRANCH   1   2
HETATM    2  N   UNL     1      25.689  47.097  52.644  1.00  0.00    -0.332 N 
HETATM    3  C   UNL     1      26.285  46.786  53.825  1.00  0.00     0.321 C 
HETATM    4  N   UNL     1      27.492  46.150  53.751  1.00  0.00    -0.309 N 
HETATM    5  O   UNL     1      25.695  47.115  54.849  1.00  0.00    -0.247 OA
HETATM    6  H   UNL     1      27.770  45.810  52.848  1.00  0.00     0.170 HD
HETATM    7  H   UNL     1      24.791  47.541  52.790  1.00  0.00     0.165 HD
BRANCH   4   8
HETATM    8  C   UNL     1      28.343  45.781  54.816  1.00  0.00     0.036 A 
HETATM    9  C   UNL     1      29.245  44.717  54.769  1.00  0.00     0.037 A 
HETATM   10  C   UNL     1      30.071  44.406  55.868  1.00  0.00    -0.054 A 
HETATM   11  C   UNL     1      29.996  45.189  57.035  1.00  0.00    -0.056 A 
HETATM   12  C   UNL     1      31.053  43.272  55.740  1.00  0.00     0.049 C 
HETATM   13  C   UNL     1      30.862  44.907  58.231  1.00  0.00     0.049 C 
HETATM   14  C   UNL     1      29.076  46.245  57.086  1.00  0.00     0.009 A 
HETATM   15  C   UNL     1      28.263  46.538  55.988  1.00  0.00     0.030 A 
ENDBRANCH   4   8
ENDBRANCH   1   2
BRANCH   1  16
HETATM   16  C   UNL     1      24.911  46.898  50.371  1.00  0.00    -0.085 C 
BRANCH  16  17
HETATM   17  C   UNL     1      23.865  46.836  49.595  1.00  0.00    -0.078 C 
BRANCH  17  18
HETATM   18  C   UNL     1      22.645  46.763  48.692  1.00  0.00     0.269 C 
BRANCH  18  19
HETATM   19  O   UNL     1      22.744  47.749  47.669  1.00  0.00    -0.339 OA
BRANCH  19  20
HETATM   20  C   UNL     1      22.060  48.915  47.892  1.00  0.00     0.072 A 
HETATM   21  C   UNL     1      20.668  48.789  47.916  1.00  0.00     0.069 A 
HETATM   22  C   UNL     1      19.832  49.877  48.136  1.00  0.00     0.069 A 
HETATM   23  C   UNL     1      20.423  51.138  48.360  1.00  0.00    -0.007 A 
HETATM   24  N   UNL     1      18.497  49.706  48.127  1.00  0.00    -0.260 NA
HETATM   25  C   UNL     1      21.820  51.271  48.357  1.00  0.00     0.016 A 
HETATM   26  C   UNL     1      19.581  52.233  48.586  1.00  0.00     0.015 A 
HETATM   27  C   UNL     1      22.635  50.163  48.121  1.00  0.00     0.038 A 
HETATM   28  C   UNL     1      18.204  52.057  48.577  1.00  0.00     0.020 A 
HETATM   29  C   UNL     1      17.716  50.786  48.344  1.00  0.00     0.117 A 
ENDBRANCH  19  20
ENDBRANCH  18  19
ENDBRANCH  17  18
ENDBRANCH  16  17
ENDBRANCH   1  16
TORSDOF 7
ENDMDL
MODEL 8
REMARK VINA RESULT:      -8.5      4.668      9.855
REMARK  7 active torsions:
REMARK  status: ('A' for Active; 'I' for Inactive)
REMARK    1  A    between atoms: C_6  and  N_7 
REMARK       I    between atoms: N_7  and  C_8 
REMARK       I    between atoms: C_8  and  N_9 
REMARK    2  A    between atoms: N_9  and  C_10 
REMARK    3  A    between atoms: C_10  and  C_11 
REMARK    4  A    between atoms: C_11  and  C_12 
REMARK    5  A    between atoms: C_12  and  C_13 
REMARK    6  A    between atoms: C_13  and  O_14 
REMARK    7  A    between atoms: O_14  and  C_15 
ROOT
HETATM    1  C   UNL     1      25.692  46.012  49.607  1.00  0.00     0.219 C 
ENDROOT
BRANCH   1   2
HETATM    2  N   UNL     1      24.975  44.819  49.230  1.00  0.00    -0.332 N 
HETATM    3  C   UNL     1      25.341  43.510  49.196  1.00  0.00     0.321 C 
HETATM    4  N   UNL     1      26.649  43.234  49.474  1.00  0.00    -0.309 N 
HETATM    5  O   UNL     1      24.464  42.694  48.930  1.00  0.00    -0.247 OA
HETATM    6  H   UNL     1      27.278  44.017  49.518  1.00  0.00     0.170 HD
HETATM    7  H   UNL     1      23.999  44.935  48.987  1.00  0.00     0.165 HD
BRANCH   4   8
HETATM    8  C   UNL     1      27.266  41.968  49.571  1.00  0.00     0.036 A 
HETATM    9  C   UNL     1      27.454  41.099  48.494  1.00  0.00     0.037 A 
HETATM   10  C   UNL     1      28.084  39.850  48.659  1.00  0.00    -0.054 A 
HETATM   11  C   UNL     1      28.544  39.469  49.933  1.00  0.00    -0.056 A 
HETATM   12  C   UNL     1      28.294  38.977  47.451  1.00  0.00     0.049 C 
HETATM   13  C   UNL     1      29.232  38.152  50.163  1.00  0.00     0.049 C 
HETATM   14  C   UNL     1      28.337  40.334  51.016  1.00  0.00     0.009 A 
HETATM   15  C   UNL     1      27.709  41.569  50.835  1.00  0.00     0.030 A 
ENDBRANCH   4   8
ENDBRANCH   1   2
BRANCH   1  16
HETATM   16  C   UNL     1      25.782  46.072  51.124  1.00  0.00    -0.085 C 
BRANCH  16  17
HETATM   17  C   UNL     1      25.860  46.124  52.424  1.00  0.00    -0.078 C 
BRANCH  17  18
HETATM   18  C   UNL     1      25.952  46.183  53.940  1.00  0.00     0.269 C 
BRANCH  18  19
HETATM   19  O   UNL     1      27.218  46.707  54.326  1.00  0.00    -0.339 OA
BRANCH  19  20
HETATM   20  C   UNL     1      28.167  45.784  54.680  1.00  0.00     0.072 A 
HETATM   21  C   UNL     1      28.842  46.057  55.874  1.00  0.00     0.069 A 
HETATM   22  C   UNL     1      29.828  45.216  56.373  1.00  0.00     0.069 A 
HETATM   23  C   UNL     1      30.132  44.043  55.652  1.00  0.00    -0.007 A 
HETATM   24  N   UNL     1      30.462  45.536  57.515  1.00  0.00    -0.260 NA
HETATM   25  C   UNL     1      29.448  43.750  54.463  1.00  0.00     0.016 A 
HETATM   26  C   UNL     1      31.123  43.192  56.157  1.00  0.00     0.015 A 
HETATM   27  C   UNL     1      28.469  44.620  53.977  1.00  0.00     0.038 A 
HETATM   28  C   UNL     1      31.778  43.523  57.336  1.00  0.00     0.020 A 
HETATM   29  C   UNL     1      31.417  44.695  57.971  1.00  0.00     0.117 A 
ENDBRANCH  19  20
ENDBRANCH  18  19
ENDBRANCH  17  18
ENDBRANCH  16  17
ENDBRANCH   1  16
TORSDOF 7
ENDMDL
MODEL 9
REMARK VINA RESULT:      -8.1      1.634      2.460
REMARK  7 active torsions:
REMARK  status: ('A' for Active; 'I' for Inactive)
REMARK    1  A    between atoms: C_6  and  N_7 
REMARK       I    between atoms: N_7  and  C_8 
REMARK       I    between atoms: C_8  and  N_9 
REMARK    2  A    between atoms: N_9  and  C_10 
REMARK    3  A    between atoms: C_10  and  C_11 
REMARK    4  A    between atoms: C_11  and  C_12 
REMARK    5  A    between atoms: C_12  and  C_13 
REMARK    6  A    between atoms: C_13  and  O_14 
REMARK    7  A    between atoms: O_14  and  C_15 
ROOT
HETATM    1  C   UNL     1      24.818  46.122  50.177  1.00  0.00     0.219 C 
ENDROOT
BRANCH   1   2
HETATM    2  N   UNL     1      24.915  46.659  51.512  1.00  0.00    -0.332 N 
HETATM    3  C   UNL     1      25.756  46.385  52.545  1.00  0.00     0.321 C 
HETATM    4  N   UNL     1      26.630  45.352  52.362  1.00  0.00    -0.309 N 
HETATM    5  O   UNL     1      25.663  47.096  53.541  1.00  0.00    -0.247 OA
HETATM    6  H   UNL     1      26.479  44.767  51.559  1.00  0.00     0.170 HD
HETATM    7  H   UNL     1      24.287  47.419  51.741  1.00  0.00     0.165 HD
BRANCH   4   8
HETATM    8  C   UNL     1      27.643  44.909  53.241  1.00  0.00     0.036 A 
HETATM    9  C   UNL     1      27.988  45.551  54.431  1.00  0.00     0.037 A 
HETATM   10  C   UNL     1      29.007  45.050  55.266  1.00  0.00    -0.054 A 
HETATM   11  C   UNL     1      29.686  43.873  54.902  1.00  0.00    -0.056 A 
HETATM   12  C   UNL     1      29.304  45.765  56.558  1.00  0.00     0.049 C 
HETATM   13  C   UNL     1      30.774  43.292  55.761  1.00  0.00     0.049 C 
HETATM   14  C   UNL     1      29.351  43.242  53.697  1.00  0.00     0.009 A 
HETATM   15  C   UNL     1      28.339  43.752  52.879  1.00  0.00     0.030 A 
ENDBRANCH   4   8
ENDBRANCH   1   2
BRANCH   1  16
HETATM   16  C   UNL     1      23.729  46.869  49.425  1.00  0.00    -0.085 C 
BRANCH  16  17
HETATM   17  C   UNL     1      22.795  47.511  48.780  1.00  0.00    -0.078 C 
BRANCH  17  18
HETATM   18  C   UNL     1      21.707  48.260  48.028  1.00  0.00     0.269 C 
BRANCH  18  19
HETATM   19  O   UNL     1      20.470  48.136  48.721  1.00  0.00    -0.339 OA
BRANCH  19  20
HETATM   20  C   UNL     1      19.828  49.310  49.019  1.00  0.00     0.072 A 
HETATM   21  C   UNL     1      18.465  49.334  48.710  1.00  0.00     0.069 A 
HETATM   22  C   UNL     1      17.673  50.448  48.957  1.00  0.00     0.069 A 
HETATM   23  C   UNL     1      18.273  51.575  49.556  1.00  0.00    -0.007 A 
HETATM   24  N   UNL     1      16.370  50.428  48.621  1.00  0.00    -0.260 NA
HETATM   25  C   UNL     1      19.636  51.554  49.886  1.00  0.00     0.016 A 
HETATM   26  C   UNL     1      17.474  52.696  49.808  1.00  0.00     0.015 A 
HETATM   27  C   UNL     1      20.412  50.425  49.616  1.00  0.00     0.038 A 
HETATM   28  C   UNL     1      16.129  52.676  49.462  1.00  0.00     0.020 A 
HETATM   29  C   UNL     1      15.630  51.530  48.875  1.00  0.00     0.117 A 
ENDBRANCH  19  20
ENDBRANCH  18  19
ENDBRANCH  17  18
ENDBRANCH  16  17
ENDBRANCH   1  16
TORSDOF 7
ENDMDL
MODEL 10
REMARK VINA RESULT:      -8.1      3.776      9.602
REMARK  7 active torsions:
REMARK  status: ('A' for Active; 'I' for Inactive)
REMARK    1  A    between atoms: C_6  and  N_7 
REMARK       I    between atoms: N_7  and  C_8 
REMARK       I    between atoms: C_8  and  N_9 
REMARK    2  A    between atoms: N_9  and  C_10 
REMARK    3  A    between atoms: C_10  and  C_11 
REMARK    4  A    between atoms: C_11  and  C_12 
REMARK    5  A    between atoms: C_12  and  C_13 
REMARK    6  A    between atoms: C_13  and  O_14 
REMARK    7  A    between atoms: O_14  and  C_15 
ROOT
HETATM    1  C   UNL     1      23.468  46.969  49.145  1.00  0.00     0.219 C 
ENDROOT
BRANCH   1   2
HETATM    2  N   UNL     1      22.631  45.799  49.250  1.00  0.00    -0.332 N 
HETATM    3  C   UNL     1      22.922  44.473  49.300  1.00  0.00     0.321 C 
HETATM    4  N   UNL     1      24.233  44.129  49.130  1.00  0.00    -0.309 N 
HETATM    5  O   UNL     1      21.987  43.705  49.504  1.00  0.00    -0.247 OA
HETATM    6  H   UNL     1      24.855  44.854  48.817  1.00  0.00     0.170 HD
HETATM    7  H   UNL     1      21.638  45.963  49.359  1.00  0.00     0.165 HD
BRANCH   4   8
HETATM    8  C   UNL     1      24.808  42.841  49.203  1.00  0.00     0.036 A 
HETATM    9  C   UNL     1      24.770  41.903  48.170  1.00  0.00     0.037 A 
HETATM   10  C   UNL     1      25.370  40.636  48.308  1.00  0.00    -0.054 A 
HETATM   11  C   UNL     1      26.031  40.308  49.506  1.00  0.00    -0.056 A 
HETATM   12  C   UNL     1      25.332  39.684  47.142  1.00  0.00     0.049 C 
HETATM   13  C   UNL     1      26.696  38.974  49.701  1.00  0.00     0.049 C 
HETATM   14  C   UNL     1      26.051  41.244  50.548  1.00  0.00     0.009 A 
HETATM   15  C   UNL     1      25.449  42.496  50.396  1.00  0.00     0.030 A 
ENDBRANCH   4   8
ENDBRANCH   1   2
BRANCH   1  16
HETATM   16  C   UNL     1      24.412  47.007  50.336  1.00  0.00    -0.085 C 
BRANCH  16  17
HETATM   17  C   UNL     1      25.221  47.040  51.358  1.00  0.00    -0.078 C 
BRANCH  17  18
HETATM   18  C   UNL     1      26.165  47.077  52.549  1.00  0.00     0.269 C 
BRANCH  18  19
HETATM   19  O   UNL     1      25.947  45.937  53.372  1.00  0.00    -0.339 OA
BRANCH  19  20
HETATM   20  C   UNL     1      27.065  45.224  53.718  1.00  0.00     0.072 A 
HETATM   21  C   UNL     1      27.754  45.710  54.834  1.00  0.00     0.069 A 
HETATM   22  C   UNL     1      28.903  45.096  55.315  1.00  0.00     0.069 A 
HETATM   23  C   UNL     1      29.366  43.936  54.659  1.00  0.00    -0.007 A 
HETATM   24  N   UNL     1      29.541  45.617  56.380  1.00  0.00    -0.260 NA
HETATM   25  C   UNL     1      28.671  43.431  53.550  1.00  0.00     0.016 A 
HETATM   26  C   UNL     1      30.522  43.315  55.147  1.00  0.00     0.015 A 
HETATM   27  C   UNL     1      27.525  44.074  53.080  1.00  0.00     0.038 A 
HETATM   28  C   UNL     1      31.181  43.852  56.246  1.00  0.00     0.020 A 
HETATM   29  C   UNL     1      30.657  44.993  56.820  1.00  0.00     0.117 A 
ENDBRANCH  19  20
ENDBRANCH  18  19
ENDBRANCH  17  18
ENDBRANCH  16  17
ENDBRANCH   1  16
TORSDOF 7
ENDMDL
