MODEL 1
REMARK VINA RESULT:      -8.0      0.000      0.000
REMARK  3 active torsions:
REMARK  status: ('A' for Active; 'I' for Inactive)
REMARK    1  A    between atoms: C_8  and  N_9 
REMARK       I    between atoms: N_9  and  C_10 
REMARK       I    between atoms: C_10  and  N_11 
REMARK    2  A    between atoms: N_11  and  C_12 
REMARK    3  A    between atoms: C_13  and  O_14 
ROOT
HETATM    1  N   UNL     1      28.698  40.919  50.820  1.00  0.00    -0.305 N 
HETATM    2  C   UNL     1      28.608  41.351  52.130  1.00  0.00     0.325 C 
HETATM    3  N   UNL     1      29.507  42.377  52.355  1.00  0.00    -0.306 N 
HETATM    4  O   UNL     1      27.838  40.902  52.969  1.00  0.00    -0.247 OA
HETATM    5  H   UNL     1      28.942  41.631  50.149  1.00  0.00     0.171 HD
HETATM    6  H   UNL     1      30.348  42.366  51.791  1.00  0.00     0.171 HD
ENDROOT
BRANCH   1   7
HETATM    7  C   UNL     1      28.105  39.773  50.319  1.00  0.00     0.086 A 
HETATM    8  C   UNL     1      26.798  39.735  49.872  1.00  0.00     0.052 A 
HETATM    9  C   UNL     1      25.721  40.749  49.824  1.00  0.00     0.072 C 
HETATM   10  N   UNL     1      26.592  38.452  49.448  1.00  0.00    -0.280 N 
HETATM   11  H   UNL     1      25.743  38.047  49.070  1.00  0.00     0.189 HD
HETATM   12  N   UNL     1      27.668  37.666  49.551  1.00  0.00    -0.177 NA
HETATM   13  C   UNL     1      28.608  38.461  50.083  1.00  0.00     0.079 A 
HETATM   14  C   UNL     1      29.977  37.917  50.275  1.00  0.00     0.075 C 
ENDBRANCH   1   7
BRANCH   3  15
HETATM   15  C   UNL     1      29.587  43.197  53.503  1.00  0.00     0.071 A 
HETATM   16  C   UNL     1      28.665  44.257  53.604  1.00  0.00     0.095 A 
HETATM   17  C   UNL     1      28.653  45.071  54.740  1.00  0.00     0.040 A 
HETATM   18  C   UNL     1      29.576  44.847  55.765  1.00  0.00     0.022 A 
HETATM   19  C   UNL     1      30.498  43.808  55.652  1.00  0.00     0.013 A 
HETATM   20 BR   UNL     1      31.732  43.505  57.054  1.00  0.00    -0.051 Br
HETATM   21  C   UNL     1      30.508  42.980  54.530  1.00  0.00     0.051 A 
BRANCH  16  22
HETATM   22  O   UNL     1      27.787  44.409  52.555  1.00  0.00    -0.354 OA
HETATM   23  C   UNL     1      26.413  44.312  52.924  1.00  0.00     0.210 C 
ENDBRANCH  16  22
ENDBRANCH   3  15
TORSDOF 3
ENDMDL
MODEL 2
REMARK VINA RESULT:      -7.2      2.024      2.570
REMARK  3 active torsions:
REMARK  status: ('A' for Active; 'I' for Inactive)
REMARK    1  A    between atoms: C_8  and  N_9 
REMARK       I    between atoms: N_9  and  C_10 
REMARK       I    between atoms: C_10  and  N_11 
REMARK    2  A    between atoms: N_11  and  C_12 
REMARK    3  A    between atoms: C_13  and  O_14 
ROOT
HETATM    1  N   UNL     1      27.222  42.541  51.833  1.00  0.00    -0.305 N 
HETATM    2  C   UNL     1      28.253  43.266  52.402  1.00  0.00     0.325 C 
HETATM    3  N   UNL     1      27.890  43.700  53.663  1.00  0.00    -0.306 N 
HETATM    4  O   UNL     1      29.336  43.484  51.874  1.00  0.00    -0.247 OA
HETATM    5  H   UNL     1      26.654  42.019  52.483  1.00  0.00     0.171 HD
HETATM    6  H   UNL     1      26.900  43.858  53.813  1.00  0.00     0.171 HD
ENDROOT
BRANCH   1   7
HETATM    7  C   UNL     1      27.164  42.151  50.507  1.00  0.00     0.086 A 
HETATM    8  C   UNL     1      26.611  42.937  49.514  1.00  0.00     0.052 A 
HETATM    9  C   UNL     1      25.946  44.259  49.530  1.00  0.00     0.072 C 
HETATM   10  N   UNL     1      26.755  42.223  48.357  1.00  0.00    -0.280 N 
HETATM   11  H   UNL     1      26.451  42.476  47.424  1.00  0.00     0.189 HD
HETATM   12  N   UNL     1      27.385  41.055  48.514  1.00  0.00    -0.177 NA
HETATM   13  C   UNL     1      27.645  40.994  49.828  1.00  0.00     0.079 A 
HETATM   14  C   UNL     1      28.413  39.834  50.350  1.00  0.00     0.075 C 
ENDBRANCH   1   7
BRANCH   3  15
HETATM   15  C   UNL     1      28.728  44.305  54.625  1.00  0.00     0.071 A 
HETATM   16  C   UNL     1      28.453  45.642  54.973  1.00  0.00     0.095 A 
HETATM   17  C   UNL     1      29.208  46.280  55.960  1.00  0.00     0.040 A 
HETATM   18  C   UNL     1      30.256  45.599  56.583  1.00  0.00     0.022 A 
HETATM   19  C   UNL     1      30.537  44.282  56.224  1.00  0.00     0.013 A 
HETATM   20 BR   UNL     1      31.948  43.364  57.086  1.00  0.00    -0.051 Br
HETATM   21  C   UNL     1      29.779  43.630  55.251  1.00  0.00     0.051 A 
BRANCH  16  22
HETATM   22  O   UNL     1      27.403  46.242  54.317  1.00  0.00    -0.354 OA
HETATM   23  C   UNL     1      27.103  47.559  54.775  1.00  0.00     0.210 C 
ENDBRANCH  16  22
ENDBRANCH   3  15
TORSDOF 3
ENDMDL
MODEL 3
REMARK VINA RESULT:      -7.1      1.560      1.789
REMARK  3 active torsions:
REMARK  status: ('A' for Active; 'I' for Inactive)
REMARK    1  A    between atoms: C_8  and  N_9 
REMARK       I    between atoms: N_9  and  C_10 
REMARK       I    between atoms: C_10  and  N_11 
REMARK    2  A    between atoms: N_11  and  C_12 
REMARK    3  A    between atoms: C_13  and  O_14 
ROOT
HETATM    1  N   UNL     1      26.525  40.531  51.387  1.00  0.00    -0.305 N 
HETATM    2  C   UNL     1      27.250  41.675  51.667  1.00  0.00     0.325 C 
HETATM    3  N   UNL     1      27.059  42.048  52.984  1.00  0.00    -0.306 N 
HETATM    4  O   UNL     1      27.967  42.267  50.871  1.00  0.00    -0.247 OA
HETATM    5  H   UNL     1      26.416  39.892  52.159  1.00  0.00     0.171 HD
HETATM    6  H   UNL     1      26.169  41.795  53.396  1.00  0.00     0.171 HD
ENDROOT
BRANCH   1   7
HETATM    7  C   UNL     1      26.314  40.015  50.121  1.00  0.00     0.086 A 
HETATM    8  C   UNL     1      25.426  40.568  49.219  1.00  0.00     0.052 A 
HETATM    9  C   UNL     1      24.492  41.714  49.301  1.00  0.00     0.072 C 
HETATM   10  N   UNL     1      25.513  39.796  48.095  1.00  0.00    -0.280 N 
HETATM   11  H   UNL     1      24.994  39.890  47.229  1.00  0.00     0.189 HD
HETATM   12  N   UNL     1      26.410  38.809  48.182  1.00  0.00    -0.177 NA
HETATM   13  C   UNL     1      26.913  38.929  49.419  1.00  0.00     0.079 A 
HETATM   14  C   UNL     1      28.007  38.013  49.835  1.00  0.00     0.075 C 
ENDBRANCH   1   7
BRANCH   3  15
HETATM   15  C   UNL     1      27.765  43.045  53.693  1.00  0.00     0.071 A 
HETATM   16  C   UNL     1      27.209  44.339  53.715  1.00  0.00     0.095 A 
HETATM   17  C   UNL     1      27.827  45.356  54.446  1.00  0.00     0.040 A 
HETATM   18  C   UNL     1      29.014  45.095  55.134  1.00  0.00     0.022 A 
HETATM   19  C   UNL     1      29.571  43.818  55.096  1.00  0.00     0.013 A 
HETATM   20 BR   UNL     1      31.170  43.472  56.046  1.00  0.00    -0.051 Br
HETATM   21  C   UNL     1      28.954  42.791  54.383  1.00  0.00     0.051 A 
BRANCH  16  22
HETATM   22  O   UNL     1      26.037  44.514  53.015  1.00  0.00    -0.354 OA
HETATM   23  C   UNL     1      26.153  45.384  51.891  1.00  0.00     0.210 C 
ENDBRANCH  16  22
ENDBRANCH   3  15
TORSDOF 3
ENDMDL
MODEL 4
REMARK VINA RESULT:      -7.0      5.212      7.431
REMARK  3 active torsions:
REMARK  status: ('A' for Active; 'I' for Inactive)
REMARK    1  A    between atoms: C_8  and  N_9 
REMARK       I    between atoms: N_9  and  C_10 
REMARK       I    between atoms: C_10  and  N_11 
REMARK    2  A    between atoms: N_11  and  C_12 
REMARK    3  A    between atoms: C_13  and  O_14 
ROOT
HETATM    1  N   UNL     1      25.509  47.377  50.163  1.00  0.00    -0.305 N 
HETATM    2  C   UNL     1      26.372  46.298  50.136  1.00  0.00     0.325 C 
HETATM    3  N   UNL     1      26.254  45.566  51.303  1.00  0.00    -0.306 N 
HETATM    4  O   UNL     1      27.126  46.020  49.212  1.00  0.00    -0.247 OA
HETATM    5  H   UNL     1      24.647  47.226  50.665  1.00  0.00     0.171 HD
HETATM    6  H   UNL     1      25.975  46.083  52.129  1.00  0.00     0.171 HD
ENDROOT
BRANCH   1   7
HETATM    7  C   UNL     1      25.525  48.429  49.263  1.00  0.00     0.086 A 
HETATM    8  C   UNL     1      24.386  48.916  48.653  1.00  0.00     0.052 A 
HETATM    9  C   UNL     1      22.963  48.510  48.708  1.00  0.00     0.072 C 
HETATM   10  N   UNL     1      24.804  49.947  47.860  1.00  0.00    -0.280 N 
HETATM   11  H   UNL     1      24.247  50.533  47.248  1.00  0.00     0.189 HD
HETATM   12  N   UNL     1      26.117  50.190  47.933  1.00  0.00    -0.177 NA
HETATM   13  C   UNL     1      26.576  49.268  48.791  1.00  0.00     0.079 A 
HETATM   14  C   UNL     1      28.015  49.292  49.162  1.00  0.00     0.075 C 
ENDBRANCH   1   7
BRANCH   3  15
HETATM   15  C   UNL     1      26.826  44.303  51.573  1.00  0.00     0.071 A 
HETATM   16  C   UNL     1      26.136  43.168  51.105  1.00  0.00     0.095 A 
HETATM   17  C   UNL     1      26.677  41.893  51.289  1.00  0.00     0.040 A 
HETATM   18  C   UNL     1      27.891  41.743  51.962  1.00  0.00     0.022 A 
HETATM   19  C   UNL     1      28.562  42.867  52.439  1.00  0.00     0.013 A 
HETATM   20 BR   UNL     1      30.214  42.653  53.336  1.00  0.00    -0.051 Br
HETATM   21  C   UNL     1      28.039  44.146  52.247  1.00  0.00     0.051 A 
BRANCH  16  22
HETATM   22  O   UNL     1      24.949  43.399  50.449  1.00  0.00    -0.354 OA
HETATM   23  C   UNL     1      24.943  42.980  49.086  1.00  0.00     0.210 C 
ENDBRANCH  16  22
ENDBRANCH   3  15
TORSDOF 3
ENDMDL
MODEL 5
REMARK VINA RESULT:      -6.9      2.113      3.305
REMARK  3 active torsions:
REMARK  status: ('A' for Active; 'I' for Inactive)
REMARK    1  A    between atoms: C_8  and  N_9 
REMARK       I    between atoms: N_9  and  C_10 
REMARK       I    between atoms: C_10  and  N_11 
REMARK    2  A    between atoms: N_11  and  C_12 
REMARK    3  A    between atoms: C_13  and  O_14 
ROOT
HETATM    1  N   UNL     1      25.714  41.875  51.450  1.00  0.00    -0.305 N 
HETATM    2  C   UNL     1      26.593  42.901  51.749  1.00  0.00     0.325 C 
HETATM    3  N   UNL     1      26.451  43.277  53.072  1.00  0.00    -0.306 N 
HETATM    4  O   UNL     1      27.389  43.398  50.964  1.00  0.00    -0.247 OA
HETATM    5  H   UNL     1      25.514  41.245  52.212  1.00  0.00     0.171 HD
HETATM    6  H   UNL     1      25.532  43.145  53.478  1.00  0.00     0.171 HD
ENDROOT
BRANCH   1   7
HETATM    7  C   UNL     1      25.438  41.413  50.175  1.00  0.00     0.086 A 
HETATM    8  C   UNL     1      26.173  40.419  49.559  1.00  0.00     0.052 A 
HETATM    9  C   UNL     1      27.366  39.646  49.972  1.00  0.00     0.072 C 
HETATM   10  N   UNL     1      25.591  40.235  48.336  1.00  0.00    -0.280 N 
HETATM   11  H   UNL     1      25.870  39.596  47.600  1.00  0.00     0.189 HD
HETATM   12  N   UNL     1      24.519  41.004  48.124  1.00  0.00    -0.177 NA
HETATM   13  C   UNL     1      24.409  41.734  49.243  1.00  0.00     0.079 A 
HETATM   14  C   UNL     1      23.260  42.666  49.377  1.00  0.00     0.075 C 
ENDBRANCH   1   7
BRANCH   3  15
HETATM   15  C   UNL     1      27.288  44.153  53.798  1.00  0.00     0.071 A 
HETATM   16  C   UNL     1      26.856  45.485  53.944  1.00  0.00     0.095 A 
HETATM   17  C   UNL     1      27.609  46.388  54.699  1.00  0.00     0.040 A 
HETATM   18  C   UNL     1      28.805  45.974  55.288  1.00  0.00     0.022 A 
HETATM   19  C   UNL     1      29.238  44.659  55.127  1.00  0.00     0.013 A 
HETATM   20 BR   UNL     1      30.853  44.105  55.942  1.00  0.00    -0.051 Br
HETATM   21  C   UNL     1      28.487  43.745  54.388  1.00  0.00     0.051 A 
BRANCH  16  22
HETATM   22  O   UNL     1      25.666  45.814  53.337  1.00  0.00    -0.354 OA
HETATM   23  C   UNL     1      25.786  46.795  52.309  1.00  0.00     0.210 C 
ENDBRANCH  16  22
ENDBRANCH   3  15
TORSDOF 3
ENDMDL
MODEL 6
REMARK VINA RESULT:      -6.9      5.536      7.666
REMARK  3 active torsions:
REMARK  status: ('A' for Active; 'I' for Inactive)
REMARK    1  A    between atoms: C_8  and  N_9 
REMARK       I    between atoms: N_9  and  C_10 
REMARK       I    between atoms: C_10  and  N_11 
REMARK    2  A    between atoms: N_11  and  C_12 
REMARK    3  A    between atoms: C_13  and  O_14 
ROOT
HETATM    1  N   UNL     1      25.274  47.661  50.240  1.00  0.00    -0.305 N 
HETATM    2  C   UNL     1      26.114  46.565  50.297  1.00  0.00     0.325 C 
HETATM    3  N   UNL     1      26.012  45.952  51.532  1.00  0.00    -0.306 N 
HETATM    4  O   UNL     1      26.836  46.181  49.386  1.00  0.00    -0.247 OA
HETATM    5  H   UNL     1      24.423  47.580  50.775  1.00  0.00     0.171 HD
HETATM    6  H   UNL     1      25.766  46.553  52.310  1.00  0.00     0.171 HD
ENDROOT
BRANCH   1   7
HETATM    7  C   UNL     1      25.287  48.620  49.242  1.00  0.00     0.086 A 
HETATM    8  C   UNL     1      24.142  49.075  48.618  1.00  0.00     0.052 A 
HETATM    9  C   UNL     1      22.712  48.712  48.750  1.00  0.00     0.072 C 
HETATM   10  N   UNL     1      24.560  50.014  47.718  1.00  0.00    -0.280 N 
HETATM   11  H   UNL     1      23.999  50.551  47.067  1.00  0.00     0.189 HD
HETATM   12  N   UNL     1      25.879  50.230  47.732  1.00  0.00    -0.177 NA
HETATM   13  C   UNL     1      26.343  49.383  48.663  1.00  0.00     0.079 A 
HETATM   14  C   UNL     1      27.791  49.408  48.991  1.00  0.00     0.075 C 
ENDBRANCH   1   7
BRANCH   3  15
HETATM   15  C   UNL     1      26.565  44.708  51.909  1.00  0.00     0.071 A 
HETATM   16  C   UNL     1      27.282  44.661  53.121  1.00  0.00     0.095 A 
HETATM   17  C   UNL     1      27.805  43.450  53.580  1.00  0.00     0.040 A 
HETATM   18  C   UNL     1      27.639  42.289  52.822  1.00  0.00     0.022 A 
HETATM   19  C   UNL     1      26.944  42.343  51.615  1.00  0.00     0.013 A 
HETATM   20 BR   UNL     1      26.712  40.761  50.604  1.00  0.00    -0.051 Br
HETATM   21  C   UNL     1      26.404  43.543  51.155  1.00  0.00     0.051 A 
BRANCH  16  22
HETATM   22  O   UNL     1      27.398  45.846  53.810  1.00  0.00    -0.354 OA
HETATM   23  C   UNL     1      27.884  45.701  55.143  1.00  0.00     0.210 C 
ENDBRANCH  16  22
ENDBRANCH   3  15
TORSDOF 3
ENDMDL
MODEL 7
REMARK VINA RESULT:      -6.9      1.930      3.100
REMARK  3 active torsions:
REMARK  status: ('A' for Active; 'I' for Inactive)
REMARK    1  A    between atoms: C_8  and  N_9 
REMARK       I    between atoms: N_9  and  C_10 
REMARK       I    between atoms: C_10  and  N_11 
REMARK    2  A    between atoms: N_11  and  C_12 
REMARK    3  A    between atoms: C_13  and  O_14 
ROOT
HETATM    1  N   UNL     1      27.391  43.265  51.589  1.00  0.00    -0.305 N 
HETATM    2  C   UNL     1      27.730  43.238  52.929  1.00  0.00     0.325 C 
HETATM    3  N   UNL     1      28.724  44.164  53.186  1.00  0.00    -0.306 N 
HETATM    4  O   UNL     1      27.220  42.511  53.771  1.00  0.00    -0.247 OA
HETATM    5  H   UNL     1      27.471  44.166  51.143  1.00  0.00     0.171 HD
HETATM    6  H   UNL     1      29.353  44.369  52.419  1.00  0.00     0.171 HD
ENDROOT
BRANCH   1   7
HETATM    7  C   UNL     1      26.597  42.327  50.952  1.00  0.00     0.086 A 
HETATM    8  C   UNL     1      27.040  41.059  50.629  1.00  0.00     0.052 A 
HETATM    9  C   UNL     1      28.345  40.378  50.790  1.00  0.00     0.072 C 
HETATM   10  N   UNL     1      25.978  40.438  50.035  1.00  0.00    -0.280 N 
HETATM   11  H   UNL     1      25.935  39.500  49.652  1.00  0.00     0.189 HD
HETATM   12  N   UNL     1      24.873  41.187  49.977  1.00  0.00    -0.177 NA
HETATM   13  C   UNL     1      25.234  42.351  50.537  1.00  0.00     0.079 A 
HETATM   14  C   UNL     1      24.207  43.413  50.701  1.00  0.00     0.075 C 
ENDBRANCH   1   7
BRANCH   3  15
HETATM   15  C   UNL     1      29.203  44.563  54.454  1.00  0.00     0.071 A 
HETATM   16  C   UNL     1      28.588  45.678  55.054  1.00  0.00     0.095 A 
HETATM   17  C   UNL     1      28.975  46.090  56.332  1.00  0.00     0.040 A 
HETATM   18  C   UNL     1      29.993  45.409  57.003  1.00  0.00     0.022 A 
HETATM   19  C   UNL     1      30.611  44.316  56.398  1.00  0.00     0.013 A 
HETATM   20 BR   UNL     1      31.978  43.391  57.323  1.00  0.00    -0.051 Br
HETATM   21  C   UNL     1      30.222  43.887  55.130  1.00  0.00     0.051 A 
BRANCH  16  22
HETATM   22  O   UNL     1      27.592  46.293  54.330  1.00  0.00    -0.354 OA
HETATM   23  C   UNL     1      27.104  47.498  54.915  1.00  0.00     0.210 C 
ENDBRANCH  16  22
ENDBRANCH   3  15
TORSDOF 3
ENDMDL
MODEL 8
REMARK VINA RESULT:      -6.8      3.138      6.750
REMARK  3 active torsions:
REMARK  status: ('A' for Active; 'I' for Inactive)
REMARK    1  A    between atoms: C_8  and  N_9 
REMARK       I    between atoms: N_9  and  C_10 
REMARK       I    between atoms: C_10  and  N_11 
REMARK    2  A    between atoms: N_11  and  C_12 
REMARK    3  A    between atoms: C_13  and  O_14 
ROOT
HETATM    1  N   UNL     1      27.657  43.490  54.031  1.00  0.00    -0.305 N 
HETATM    2  C   UNL     1      28.019  42.946  52.813  1.00  0.00     0.325 C 
HETATM    3  N   UNL     1      27.283  41.803  52.564  1.00  0.00    -0.306 N 
HETATM    4  O   UNL     1      28.861  43.412  52.056  1.00  0.00    -0.247 OA
HETATM    5  H   UNL     1      26.691  43.357  54.291  1.00  0.00     0.171 HD
HETATM    6  H   UNL     1      26.976  41.283  53.378  1.00  0.00     0.171 HD
ENDROOT
BRANCH   1   7
HETATM    7  C   UNL     1      28.340  44.501  54.684  1.00  0.00     0.086 A 
HETATM    8  C   UNL     1      27.812  45.762  54.880  1.00  0.00     0.052 A 
HETATM    9  C   UNL     1      26.535  46.393  54.476  1.00  0.00     0.072 C 
HETATM   10  N   UNL     1      28.767  46.459  55.565  1.00  0.00    -0.280 N 
HETATM   11  H   UNL     1      28.740  47.426  55.870  1.00  0.00     0.189 HD
HETATM   12  N   UNL     1      29.856  45.742  55.861  1.00  0.00    -0.177 NA
HETATM   13  C   UNL     1      29.611  44.535  55.328  1.00  0.00     0.079 A 
HETATM   14  C   UNL     1      30.605  43.451  55.532  1.00  0.00     0.075 C 
ENDBRANCH   1   7
BRANCH   3  15
HETATM   15  C   UNL     1      27.230  41.075  51.355  1.00  0.00     0.071 A 
HETATM   16  C   UNL     1      26.109  41.276  50.528  1.00  0.00     0.095 A 
HETATM   17  C   UNL     1      26.023  40.630  49.292  1.00  0.00     0.040 A 
HETATM   18  C   UNL     1      27.040  39.762  48.889  1.00  0.00     0.022 A 
HETATM   19  C   UNL     1      28.140  39.552  49.719  1.00  0.00     0.013 A 
HETATM   20 BR   UNL     1      29.520  38.385  49.157  1.00  0.00    -0.051 Br
HETATM   21  C   UNL     1      28.244  40.203  50.948  1.00  0.00     0.051 A 
BRANCH  16  22
HETATM   22  O   UNL     1      25.152  42.149  50.994  1.00  0.00    -0.354 OA
HETATM   23  C   UNL     1      24.999  43.325  50.202  1.00  0.00     0.210 C 
ENDBRANCH  16  22
ENDBRANCH   3  15
TORSDOF 3
ENDMDL
MODEL 9
REMARK VINA RESULT:      -6.8      3.166      7.003
REMARK  3 active torsions:
REMARK  status: ('A' for Active; 'I' for Inactive)
REMARK    1  A    between atoms: C_8  and  N_9 
REMARK       I    between atoms: N_9  and  C_10 
REMARK       I    between atoms: C_10  and  N_11 
REMARK    2  A    between atoms: N_11  and  C_12 
REMARK    3  A    between atoms: C_13  and  O_14 
ROOT
HETATM    1  N   UNL     1      27.541  43.566  54.076  1.00  0.00    -0.305 N 
HETATM    2  C   UNL     1      27.864  43.099  52.815  1.00  0.00     0.325 C 
HETATM    3  N   UNL     1      27.303  41.852  52.611  1.00  0.00    -0.306 N 
HETATM    4  O   UNL     1      28.539  43.703  51.991  1.00  0.00    -0.247 OA
HETATM    5  H   UNL     1      26.640  43.274  54.424  1.00  0.00     0.171 HD
HETATM    6  H   UNL     1      27.168  41.283  53.438  1.00  0.00     0.171 HD
ENDROOT
BRANCH   1   7
HETATM    7  C   UNL     1      28.111  44.670  54.684  1.00  0.00     0.086 A 
HETATM    8  C   UNL     1      29.377  44.656  55.236  1.00  0.00     0.052 A 
HETATM    9  C   UNL     1      30.398  43.594  55.386  1.00  0.00     0.072 C 
HETATM   10  N   UNL     1      29.583  45.919  55.716  1.00  0.00    -0.280 N 
HETATM   11  H   UNL     1      30.397  46.278  56.204  1.00  0.00     0.189 HD
HETATM   12  N   UNL     1      28.568  46.759  55.491  1.00  0.00    -0.177 NA
HETATM   13  C   UNL     1      27.655  46.010  54.856  1.00  0.00     0.079 A 
HETATM   14  C   UNL     1      26.403  46.657  54.388  1.00  0.00     0.075 C 
ENDBRANCH   1   7
BRANCH   3  15
HETATM   15  C   UNL     1      27.251  41.135  51.396  1.00  0.00     0.071 A 
HETATM   16  C   UNL     1      26.141  41.362  50.559  1.00  0.00     0.095 A 
HETATM   17  C   UNL     1      26.057  40.728  49.317  1.00  0.00     0.040 A 
HETATM   18  C   UNL     1      27.064  39.846  48.917  1.00  0.00     0.022 A 
HETATM   19  C   UNL     1      28.152  39.610  49.756  1.00  0.00     0.013 A 
HETATM   20 BR   UNL     1      29.518  38.426  49.197  1.00  0.00    -0.051 Br
HETATM   21  C   UNL     1      28.254  40.250  50.991  1.00  0.00     0.051 A 
BRANCH  16  22
HETATM   22  O   UNL     1      25.195  42.246  51.023  1.00  0.00    -0.354 OA
HETATM   23  C   UNL     1      25.092  43.446  50.258  1.00  0.00     0.210 C 
ENDBRANCH  16  22
ENDBRANCH   3  15
TORSDOF 3
ENDMDL
MODEL 10
REMARK VINA RESULT:      -6.8      4.500      7.096
REMARK  3 active torsions:
REMARK  status: ('A' for Active; 'I' for Inactive)
REMARK    1  A    between atoms: C_8  and  N_9 
REMARK       I    between atoms: N_9  and  C_10 
REMARK       I    between atoms: C_10  and  N_11 
REMARK    2  A    between atoms: N_11  and  C_12 
REMARK    3  A    between atoms: C_13  and  O_14 
ROOT
HETATM    1  N   UNL     1      27.003  44.612  53.871  1.00  0.00    -0.305 N 
HETATM    2  C   UNL     1      26.676  44.759  52.536  1.00  0.00     0.325 C 
HETATM    3  N   UNL     1      25.329  45.039  52.405  1.00  0.00    -0.306 N 
HETATM    4  O   UNL     1      27.463  44.667  51.603  1.00  0.00    -0.247 OA
HETATM    5  H   UNL     1      26.466  45.178  54.510  1.00  0.00     0.171 HD
HETATM    6  H   UNL     1      24.723  44.667  53.127  1.00  0.00     0.171 HD
ENDROOT
BRANCH   1   7
HETATM    7  C   UNL     1      28.206  44.116  54.343  1.00  0.00     0.086 A 
HETATM    8  C   UNL     1      29.077  44.861  55.115  1.00  0.00     0.052 A 
HETATM    9  C   UNL     1      29.049  46.261  55.596  1.00  0.00     0.072 C 
HETATM   10  N   UNL     1      30.126  44.031  55.392  1.00  0.00    -0.280 N 
HETATM   11  H   UNL     1      30.966  44.238  55.922  1.00  0.00     0.189 HD
HETATM   12  N   UNL     1      29.991  42.799  54.892  1.00  0.00    -0.177 NA
HETATM   13  C   UNL     1      28.816  42.832  54.246  1.00  0.00     0.079 A 
HETATM   14  C   UNL     1      28.313  41.584  53.617  1.00  0.00     0.075 C 
ENDBRANCH   1   7
BRANCH   3  15
HETATM   15  C   UNL     1      24.655  45.435  51.228  1.00  0.00     0.071 A 
HETATM   16  C   UNL     1      23.907  44.453  50.551  1.00  0.00     0.095 A 
HETATM   17  C   UNL     1      23.171  44.792  49.413  1.00  0.00     0.040 A 
HETATM   18  C   UNL     1      23.200  46.102  48.931  1.00  0.00     0.022 A 
HETATM   19  C   UNL     1      23.957  47.068  49.594  1.00  0.00     0.013 A 
HETATM   20 BR   UNL     1      23.976  48.844  48.942  1.00  0.00    -0.051 Br
HETATM   21  C   UNL     1      24.682  46.744  50.740  1.00  0.00     0.051 A 
BRANCH  16  22
HETATM   22  O   UNL     1      23.927  43.187  51.090  1.00  0.00    -0.354 OA
HETATM   23  C   UNL     1      24.717  42.252  50.358  1.00  0.00     0.210 C 
ENDBRANCH  16  22
ENDBRANCH   3  15
TORSDOF 3
ENDMDL
