MODEL 1
REMARK VINA RESULT:      -9.4      0.000      0.000
REMARK  8 active torsions:
REMARK  status: ('A' for Active; 'I' for Inactive)
REMARK    1  A    between atoms: O_2  and  C_3 
REMARK    2  A    between atoms: C_6  and  N_7 
REMARK    3  A    between atoms: N_7  and  C_8 
REMARK    4  A    between atoms: C_11  and  C_12 
REMARK    5  A    between atoms: C_15  and  C_16 
REMARK       I    between atoms: C_16  and  N_17 
REMARK    6  A    between atoms: N_17  and  C_18 
REMARK    7  A    between atoms: C_18  and  C_19 
REMARK    8  A    between atoms: C_19  and  O_20 
ROOT
HETATM    1  C   UNL     1      23.654  47.995  48.936  1.00  0.00     0.161 A 
HETATM    2  N   UNL     1      23.283  46.886  49.610  1.00  0.00    -0.131 NA
HETATM    3  N   UNL     1      24.178  46.190  50.369  1.00  0.00    -0.147 NA
HETATM    4  C   UNL     1      25.460  46.607  50.464  1.00  0.00     0.100 A 
HETATM    5  C   UNL     1      25.919  47.753  49.789  1.00  0.00     0.009 A 
HETATM    6  C   UNL     1      24.983  48.473  49.009  1.00  0.00     0.024 A 
HETATM    7  C   UNL     1      27.259  48.216  49.841  1.00  0.00     0.015 A 
HETATM    8  C   UNL     1      27.662  49.370  49.170  1.00  0.00     0.001 A 
HETATM    9  C   UNL     1      26.740  50.092  48.428  1.00  0.00     0.001 A 
HETATM   10  C   UNL     1      25.419  49.649  48.348  1.00  0.00     0.016 A 
ENDROOT
BRANCH   4  11
HETATM   11  C   UNL     1      26.287  45.752  51.329  1.00  0.00    -0.005 A 
HETATM   12  C   UNL     1      26.361  46.002  52.710  1.00  0.00     0.015 A 
HETATM   13  C   UNL     1      27.175  45.227  53.543  1.00  0.00     0.018 A 
HETATM   14  C   UNL     1      27.943  44.192  53.001  1.00  0.00     0.032 A 
HETATM   15  C   UNL     1      27.866  43.920  51.630  1.00  0.00     0.018 A 
HETATM   16  C   UNL     1      27.053  44.700  50.801  1.00  0.00     0.015 A 
BRANCH  14  17
HETATM   17  C   UNL     1      28.847  43.356  53.837  1.00  0.00     0.251 C 
HETATM   18  N   UNL     1      29.667  44.030  54.716  1.00  0.00    -0.355 N 
HETATM   19  H   UNL     1      29.736  45.038  54.677  1.00  0.00     0.162 HD
HETATM   20  O   UNL     1      28.871  42.139  53.696  1.00  0.00    -0.268 OA
BRANCH  18  21
HETATM   21  C   UNL     1      30.636  43.325  55.541  1.00  0.00     0.148 C 
BRANCH  21  22
HETATM   22  C   UNL     1      31.058  44.139  56.764  1.00  0.00     0.183 C 
BRANCH  22  23
HETATM   23  O   UNL     1      32.134  43.487  57.439  1.00  0.00    -0.399 OA
HETATM   24  H   UNL     1      32.895  43.535  56.831  1.00  0.00     0.209 HD
ENDBRANCH  22  23
ENDBRANCH  21  22
ENDBRANCH  18  21
ENDBRANCH  14  17
ENDBRANCH   4  11
BRANCH   1  25
HETATM   25  N   UNL     1      22.711  48.673  48.116  1.00  0.00    -0.339 N 
HETATM   26  H   UNL     1      22.448  48.059  47.352  1.00  0.00     0.167 HD
BRANCH  25  27
HETATM   27  C   UNL     1      21.632  49.478  48.543  1.00  0.00     0.033 A 
HETATM   28  C   UNL     1      20.630  48.997  49.394  1.00  0.00     0.032 A 
HETATM   29  C   UNL     1      19.614  49.835  49.872  1.00  0.00     0.039 A 
HETATM   30  C   UNL     1      19.596  51.183  49.520  1.00  0.00     0.068 A 
HETATM   31  C   UNL     1      20.601  51.678  48.689  1.00  0.00     0.039 A 
HETATM   32  C   UNL     1      21.617  50.840  48.218  1.00  0.00     0.032 A 
BRANCH  30  33
HETATM   33  O   UNL     1      18.672  52.108  49.920  1.00  0.00    -0.356 OA
HETATM   34  C   UNL     1      17.306  51.724  49.828  1.00  0.00     0.210 C 
ENDBRANCH  30  33
ENDBRANCH  25  27
ENDBRANCH   1  25
TORSDOF 8
ENDMDL
MODEL 2
REMARK VINA RESULT:      -9.0      1.673      2.753
REMARK  8 active torsions:
REMARK  status: ('A' for Active; 'I' for Inactive)
REMARK    1  A    between atoms: O_2  and  C_3 
REMARK    2  A    between atoms: C_6  and  N_7 
REMARK    3  A    between atoms: N_7  and  C_8 
REMARK    4  A    between atoms: C_11  and  C_12 
REMARK    5  A    between atoms: C_15  and  C_16 
REMARK       I    between atoms: C_16  and  N_17 
REMARK    6  A    between atoms: N_17  and  C_18 
REMARK    7  A    between atoms: C_18  and  C_19 
REMARK    8  A    between atoms: C_19  and  O_20 
ROOT
HETATM    1  C   UNL     1      23.577  47.674  49.252  1.00  0.00     0.161 A 
HETATM    2  N   UNL     1      24.541  48.325  49.937  1.00  0.00    -0.131 NA
HETATM    3  N   UNL     1      25.344  47.666  50.822  1.00  0.00    -0.147 NA
HETATM    4  C   UNL     1      25.190  46.339  51.025  1.00  0.00     0.100 A 
HETATM    5  C   UNL     1      24.205  45.595  50.348  1.00  0.00     0.009 A 
HETATM    6  C   UNL     1      23.381  46.284  49.427  1.00  0.00     0.024 A 
HETATM    7  C   UNL     1      23.991  44.207  50.545  1.00  0.00     0.015 A 
HETATM    8  C   UNL     1      23.015  43.507  49.835  1.00  0.00     0.001 A 
HETATM    9  C   UNL     1      22.226  44.176  48.912  1.00  0.00     0.001 A 
HETATM   10  C   UNL     1      22.405  45.545  48.712  1.00  0.00     0.016 A 
ENDROOT
BRANCH   4  11
HETATM   11  C   UNL     1      26.141  45.785  51.999  1.00  0.00    -0.005 A 
HETATM   12  C   UNL     1      26.276  46.373  53.269  1.00  0.00     0.015 A 
HETATM   13  C   UNL     1      27.206  45.887  54.196  1.00  0.00     0.018 A 
HETATM   14  C   UNL     1      28.030  44.810  53.857  1.00  0.00     0.032 A 
HETATM   15  C   UNL     1      27.896  44.205  52.602  1.00  0.00     0.018 A 
HETATM   16  C   UNL     1      26.966  44.695  51.679  1.00  0.00     0.015 A 
BRANCH  14  17
HETATM   17  C   UNL     1      29.055  44.274  54.794  1.00  0.00     0.251 C 
HETATM   18  N   UNL     1      29.610  45.175  55.678  1.00  0.00    -0.355 N 
HETATM   19  H   UNL     1      29.420  46.163  55.583  1.00  0.00     0.162 HD
HETATM   20  O   UNL     1      29.401  43.100  54.727  1.00  0.00    -0.268 OA
BRANCH  18  21
HETATM   21  C   UNL     1      30.665  44.782  56.599  1.00  0.00     0.148 C 
BRANCH  21  22
HETATM   22  C   UNL     1      30.598  45.548  57.920  1.00  0.00     0.183 C 
BRANCH  22  23
HETATM   23  O   UNL     1      31.449  44.933  58.887  1.00  0.00    -0.399 OA
HETATM   24  H   UNL     1      32.093  44.409  58.377  1.00  0.00     0.209 HD
ENDBRANCH  22  23
ENDBRANCH  21  22
ENDBRANCH  18  21
ENDBRANCH  14  17
ENDBRANCH   4  11
BRANCH   1  25
HETATM   25  N   UNL     1      22.725  48.395  48.372  1.00  0.00    -0.339 N 
HETATM   26  H   UNL     1      22.389  47.760  47.655  1.00  0.00     0.167 HD
BRANCH  25  27
HETATM   27  C   UNL     1      21.755  49.359  48.723  1.00  0.00     0.033 A 
HETATM   28  C   UNL     1      21.843  50.694  48.313  1.00  0.00     0.032 A 
HETATM   29  C   UNL     1      20.828  51.615  48.602  1.00  0.00     0.039 A 
HETATM   30  C   UNL     1      19.689  51.207  49.293  1.00  0.00     0.068 A 
HETATM   31  C   UNL     1      19.580  49.874  49.689  1.00  0.00     0.039 A 
HETATM   32  C   UNL     1      20.594  48.955  49.394  1.00  0.00     0.032 A 
BRANCH  30  33
HETATM   33  O   UNL     1      18.626  51.997  49.632  1.00  0.00    -0.356 OA
HETATM   34  C   UNL     1      17.376  51.343  49.809  1.00  0.00     0.210 C 
ENDBRANCH  30  33
ENDBRANCH  25  27
ENDBRANCH   1  25
TORSDOF 8
ENDMDL
MODEL 3
REMARK VINA RESULT:      -8.6      2.797     11.030
REMARK  8 active torsions:
REMARK  status: ('A' for Active; 'I' for Inactive)
REMARK    1  A    between atoms: O_2  and  C_3 
REMARK    2  A    between atoms: C_6  and  N_7 
REMARK    3  A    between atoms: N_7  and  C_8 
REMARK    4  A    between atoms: C_11  and  C_12 
REMARK    5  A    between atoms: C_15  and  C_16 
REMARK       I    between atoms: C_16  and  N_17 
REMARK    6  A    between atoms: N_17  and  C_18 
REMARK    7  A    between atoms: C_18  and  C_19 
REMARK    8  A    between atoms: C_19  and  O_20 
ROOT
HETATM    1  C   UNL     1      23.931  48.464  49.294  1.00  0.00     0.161 A 
HETATM    2  N   UNL     1      23.803  49.772  49.599  1.00  0.00    -0.131 NA
HETATM    3  N   UNL     1      22.584  50.384  49.584  1.00  0.00    -0.147 NA
HETATM    4  C   UNL     1      21.473  49.682  49.267  1.00  0.00     0.100 A 
HETATM    5  C   UNL     1      21.530  48.315  48.936  1.00  0.00     0.009 A 
HETATM    6  C   UNL     1      22.798  47.687  48.960  1.00  0.00     0.024 A 
HETATM    7  C   UNL     1      20.396  47.544  48.574  1.00  0.00     0.015 A 
HETATM    8  C   UNL     1      20.499  46.186  48.274  1.00  0.00     0.001 A 
HETATM    9  C   UNL     1      21.736  45.563  48.324  1.00  0.00     0.001 A 
HETATM   10  C   UNL     1      22.869  46.303  48.661  1.00  0.00     0.016 A 
ENDROOT
BRANCH   4  11
HETATM   11  C   UNL     1      20.244  50.488  49.310  1.00  0.00    -0.005 A 
HETATM   12  C   UNL     1      19.173  50.102  50.134  1.00  0.00     0.015 A 
HETATM   13  C   UNL     1      17.979  50.832  50.158  1.00  0.00     0.018 A 
HETATM   14  C   UNL     1      17.833  51.956  49.340  1.00  0.00     0.032 A 
HETATM   15  C   UNL     1      18.897  52.362  48.526  1.00  0.00     0.018 A 
HETATM   16  C   UNL     1      20.088  51.627  48.505  1.00  0.00     0.015 A 
BRANCH  14  17
HETATM   17  C   UNL     1      16.574  52.749  49.305  1.00  0.00     0.251 C 
HETATM   18  N   UNL     1      16.227  53.402  50.468  1.00  0.00    -0.355 N 
HETATM   19  H   UNL     1      16.736  53.224  51.323  1.00  0.00     0.162 HD
HETATM   20  O   UNL     1      15.881  52.765  48.295  1.00  0.00    -0.268 OA
BRANCH  18  21
HETATM   21  C   UNL     1      14.988  54.158  50.573  1.00  0.00     0.148 C 
BRANCH  21  22
HETATM   22  C   UNL     1      14.928  55.001  51.846  1.00  0.00     0.183 C 
BRANCH  22  23
HETATM   23  O   UNL     1      13.770  54.657  52.607  1.00  0.00    -0.399 OA
HETATM   24  H   UNL     1      14.101  54.341  53.467  1.00  0.00     0.209 HD
ENDBRANCH  22  23
ENDBRANCH  21  22
ENDBRANCH  18  21
ENDBRANCH  14  17
ENDBRANCH   4  11
BRANCH   1  25
HETATM   25  N   UNL     1      25.221  47.866  49.272  1.00  0.00    -0.339 N 
HETATM   26  H   UNL     1      25.899  48.571  49.002  1.00  0.00     0.167 HD
BRANCH  25  27
HETATM   27  C   UNL     1      25.752  46.949  50.205  1.00  0.00     0.033 A 
HETATM   28  C   UNL     1      25.472  47.029  51.574  1.00  0.00     0.032 A 
HETATM   29  C   UNL     1      25.942  46.061  52.472  1.00  0.00     0.039 A 
HETATM   30  C   UNL     1      26.686  44.980  52.009  1.00  0.00     0.068 A 
HETATM   31  C   UNL     1      26.955  44.879  50.644  1.00  0.00     0.039 A 
HETATM   32  C   UNL     1      26.479  45.844  49.748  1.00  0.00     0.032 A 
BRANCH  30  33
HETATM   33  O   UNL     1      27.196  43.966  52.772  1.00  0.00    -0.356 OA
HETATM   34  C   UNL     1      26.639  43.803  54.070  1.00  0.00     0.210 C 
ENDBRANCH  30  33
ENDBRANCH  25  27
ENDBRANCH   1  25
TORSDOF 8
ENDMDL
MODEL 4
REMARK VINA RESULT:      -8.6      2.087      3.297
REMARK  8 active torsions:
REMARK  status: ('A' for Active; 'I' for Inactive)
REMARK    1  A    between atoms: O_2  and  C_3 
REMARK    2  A    between atoms: C_6  and  N_7 
REMARK    3  A    between atoms: N_7  and  C_8 
REMARK    4  A    between atoms: C_11  and  C_12 
REMARK    5  A    between atoms: C_15  and  C_16 
REMARK       I    between atoms: C_16  and  N_17 
REMARK    6  A    between atoms: N_17  and  C_18 
REMARK    7  A    between atoms: C_18  and  C_19 
REMARK    8  A    between atoms: C_19  and  O_20 
ROOT
HETATM    1  C   UNL     1      23.986  47.066  49.572  1.00  0.00     0.161 A 
HETATM    2  N   UNL     1      24.650  48.040  50.229  1.00  0.00    -0.131 NA
HETATM    3  N   UNL     1      25.408  47.760  51.329  1.00  0.00    -0.147 NA
HETATM    4  C   UNL     1      25.511  46.490  51.779  1.00  0.00     0.100 A 
HETATM    5  C   UNL     1      24.846  45.423  51.147  1.00  0.00     0.009 A 
HETATM    6  C   UNL     1      24.068  45.721  50.003  1.00  0.00     0.024 A 
HETATM    7  C   UNL     1      24.906  44.079  51.597  1.00  0.00     0.015 A 
HETATM    8  C   UNL     1      24.246  43.051  50.924  1.00  0.00     0.001 A 
HETATM    9  C   UNL     1      23.506  43.337  49.788  1.00  0.00     0.001 A 
HETATM   10  C   UNL     1      23.417  44.654  49.334  1.00  0.00     0.016 A 
ENDROOT
BRANCH   4  11
HETATM   11  C   UNL     1      26.373  46.362  52.964  1.00  0.00    -0.005 A 
HETATM   12  C   UNL     1      27.143  45.202  53.157  1.00  0.00     0.015 A 
HETATM   13  C   UNL     1      27.937  45.043  54.298  1.00  0.00     0.018 A 
HETATM   14  C   UNL     1      27.959  46.041  55.277  1.00  0.00     0.032 A 
HETATM   15  C   UNL     1      27.209  47.208  55.091  1.00  0.00     0.018 A 
HETATM   16  C   UNL     1      26.416  47.362  53.948  1.00  0.00     0.015 A 
BRANCH  14  17
HETATM   17  C   UNL     1      28.762  45.909  56.523  1.00  0.00     0.251 C 
HETATM   18  N   UNL     1      29.985  45.284  56.402  1.00  0.00    -0.355 N 
HETATM   19  H   UNL     1      30.238  44.825  55.538  1.00  0.00     0.162 HD
HETATM   20  O   UNL     1      28.313  46.303  57.593  1.00  0.00    -0.268 OA
BRANCH  18  21
HETATM   21  C   UNL     1      30.831  45.042  57.561  1.00  0.00     0.148 C 
BRANCH  21  22
HETATM   22  C   UNL     1      31.518  43.678  57.503  1.00  0.00     0.183 C 
BRANCH  22  23
HETATM   23  O   UNL     1      31.304  43.075  56.226  1.00  0.00    -0.399 OA
HETATM   24  H   UNL     1      31.650  42.167  56.301  1.00  0.00     0.209 HD
ENDBRANCH  22  23
ENDBRANCH  21  22
ENDBRANCH  18  21
ENDBRANCH  14  17
ENDBRANCH   4  11
BRANCH   1  25
HETATM   25  N   UNL     1      23.168  47.395  48.458  1.00  0.00    -0.339 N 
HETATM   26  H   UNL     1      23.021  46.556  47.906  1.00  0.00     0.167 HD
BRANCH  25  27
HETATM   27  C   UNL     1      22.035  48.238  48.451  1.00  0.00     0.033 A 
HETATM   28  C   UNL     1      20.765  47.788  48.831  1.00  0.00     0.032 A 
HETATM   29  C   UNL     1      19.672  48.661  48.896  1.00  0.00     0.039 A 
HETATM   30  C   UNL     1      19.836  50.012  48.601  1.00  0.00     0.068 A 
HETATM   31  C   UNL     1      21.101  50.476  48.240  1.00  0.00     0.039 A 
HETATM   32  C   UNL     1      22.192  49.603  48.181  1.00  0.00     0.032 A 
BRANCH  30  33
HETATM   33  O   UNL     1      18.859  50.968  48.632  1.00  0.00    -0.356 OA
HETATM   34  C   UNL     1      19.281  52.317  48.473  1.00  0.00     0.210 C 
ENDBRANCH  30  33
ENDBRANCH  25  27
ENDBRANCH   1  25
TORSDOF 8
ENDMDL
MODEL 5
REMARK VINA RESULT:      -8.5      1.978     10.319
REMARK  8 active torsions:
REMARK  status: ('A' for Active; 'I' for Inactive)
REMARK    1  A    between atoms: O_2  and  C_3 
REMARK    2  A    between atoms: C_6  and  N_7 
REMARK    3  A    between atoms: N_7  and  C_8 
REMARK    4  A    between atoms: C_11  and  C_12 
REMARK    5  A    between atoms: C_15  and  C_16 
REMARK       I    between atoms: C_16  and  N_17 
REMARK    6  A    between atoms: N_17  and  C_18 
REMARK    7  A    between atoms: C_18  and  C_19 
REMARK    8  A    between atoms: C_19  and  O_20 
ROOT
HETATM    1  C   UNL     1      25.359  46.318  49.949  1.00  0.00     0.161 A 
HETATM    2  N   UNL     1      24.031  46.084  49.994  1.00  0.00    -0.131 NA
HETATM    3  N   UNL     1      23.133  47.038  49.611  1.00  0.00    -0.147 NA
HETATM    4  C   UNL     1      23.564  48.241  49.172  1.00  0.00     0.100 A 
HETATM    5  C   UNL     1      24.933  48.557  49.100  1.00  0.00     0.009 A 
HETATM    6  C   UNL     1      25.858  47.560  49.493  1.00  0.00     0.024 A 
HETATM    7  C   UNL     1      25.431  49.813  48.668  1.00  0.00     0.015 A 
HETATM    8  C   UNL     1      26.799  50.074  48.594  1.00  0.00     0.001 A 
HETATM    9  C   UNL     1      27.706  49.089  48.952  1.00  0.00     0.001 A 
HETATM   10  C   UNL     1      27.242  47.850  49.396  1.00  0.00     0.016 A 
ENDROOT
BRANCH   4  11
HETATM   11  C   UNL     1      22.470  49.146  48.789  1.00  0.00    -0.005 A 
HETATM   12  C   UNL     1      22.231  50.319  49.525  1.00  0.00     0.015 A 
HETATM   13  C   UNL     1      21.169  51.172  49.203  1.00  0.00     0.018 A 
HETATM   14  C   UNL     1      20.315  50.852  48.144  1.00  0.00     0.032 A 
HETATM   15  C   UNL     1      20.550  49.695  47.392  1.00  0.00     0.018 A 
HETATM   16  C   UNL     1      21.612  48.845  47.719  1.00  0.00     0.015 A 
BRANCH  14  17
HETATM   17  C   UNL     1      19.154  51.708  47.779  1.00  0.00     0.251 C 
HETATM   18  N   UNL     1      18.375  51.271  46.729  1.00  0.00    -0.355 N 
HETATM   19  H   UNL     1      18.675  50.489  46.164  1.00  0.00     0.162 HD
HETATM   20  O   UNL     1      18.953  52.763  48.369  1.00  0.00    -0.268 OA
BRANCH  18  21
HETATM   21  C   UNL     1      17.249  52.055  46.243  1.00  0.00     0.148 C 
BRANCH  21  22
HETATM   22  C   UNL     1      16.000  51.872  47.104  1.00  0.00     0.183 C 
BRANCH  22  23
HETATM   23  O   UNL     1      15.863  52.969  48.007  1.00  0.00    -0.399 OA
HETATM   24  H   UNL     1      16.737  53.081  48.422  1.00  0.00     0.209 HD
ENDBRANCH  22  23
ENDBRANCH  21  22
ENDBRANCH  18  21
ENDBRANCH  14  17
ENDBRANCH   4  11
BRANCH   1  25
HETATM   25  N   UNL     1      26.269  45.322  50.399  1.00  0.00    -0.339 N 
HETATM   26  H   UNL     1      27.001  45.216  49.704  1.00  0.00     0.167 HD
BRANCH  25  27
HETATM   27  C   UNL     1      26.755  45.141  51.712  1.00  0.00     0.033 A 
HETATM   28  C   UNL     1      27.702  44.161  52.031  1.00  0.00     0.032 A 
HETATM   29  C   UNL     1      28.232  44.052  53.323  1.00  0.00     0.039 A 
HETATM   30  C   UNL     1      27.836  44.941  54.319  1.00  0.00     0.068 A 
HETATM   31  C   UNL     1      26.908  45.934  54.009  1.00  0.00     0.039 A 
HETATM   32  C   UNL     1      26.384  46.044  52.716  1.00  0.00     0.032 A 
BRANCH  30  33
HETATM   33  O   UNL     1      28.279  44.951  55.613  1.00  0.00    -0.356 OA
HETATM   34  C   UNL     1      28.587  46.221  56.172  1.00  0.00     0.210 C 
ENDBRANCH  30  33
ENDBRANCH  25  27
ENDBRANCH   1  25
TORSDOF 8
ENDMDL
MODEL 6
REMARK VINA RESULT:      -8.4      4.378     10.549
REMARK  8 active torsions:
REMARK  status: ('A' for Active; 'I' for Inactive)
REMARK    1  A    between atoms: O_2  and  C_3 
REMARK    2  A    between atoms: C_6  and  N_7 
REMARK    3  A    between atoms: N_7  and  C_8 
REMARK    4  A    between atoms: C_11  and  C_12 
REMARK    5  A    between atoms: C_15  and  C_16 
REMARK       I    between atoms: C_16  and  N_17 
REMARK    6  A    between atoms: N_17  and  C_18 
REMARK    7  A    between atoms: C_18  and  C_19 
REMARK    8  A    between atoms: C_19  and  O_20 
ROOT
HETATM    1  C   UNL     1      27.710  41.766  50.398  1.00  0.00     0.161 A 
HETATM    2  N   UNL     1      27.322  42.268  49.207  1.00  0.00    -0.131 NA
HETATM    3  N   UNL     1      26.694  43.477  49.123  1.00  0.00    -0.147 NA
HETATM    4  C   UNL     1      26.454  44.199  50.239  1.00  0.00     0.100 A 
HETATM    5  C   UNL     1      26.829  43.739  51.515  1.00  0.00     0.009 A 
HETATM    6  C   UNL     1      27.485  42.487  51.594  1.00  0.00     0.024 A 
HETATM    7  C   UNL     1      26.577  44.451  52.716  1.00  0.00     0.015 A 
HETATM    8  C   UNL     1      26.986  43.963  53.957  1.00  0.00     0.001 A 
HETATM    9  C   UNL     1      27.654  42.751  54.033  1.00  0.00     0.001 A 
HETATM   10  C   UNL     1      27.899  42.023  52.868  1.00  0.00     0.016 A 
ENDROOT
BRANCH   4  11
HETATM   11  C   UNL     1      25.782  45.479  49.970  1.00  0.00    -0.005 A 
HETATM   12  C   UNL     1      26.520  46.675  49.940  1.00  0.00     0.015 A 
HETATM   13  C   UNL     1      25.893  47.907  49.727  1.00  0.00     0.018 A 
HETATM   14  C   UNL     1      24.506  47.964  49.555  1.00  0.00     0.032 A 
HETATM   15  C   UNL     1      23.760  46.779  49.566  1.00  0.00     0.018 A 
HETATM   16  C   UNL     1      24.392  45.550  49.781  1.00  0.00     0.015 A 
BRANCH  14  17
HETATM   17  C   UNL     1      23.787  49.251  49.355  1.00  0.00     0.251 C 
HETATM   18  N   UNL     1      22.417  49.218  49.504  1.00  0.00    -0.355 N 
HETATM   19  H   UNL     1      21.937  48.333  49.603  1.00  0.00     0.162 HD
HETATM   20  O   UNL     1      24.402  50.260  49.031  1.00  0.00    -0.268 OA
BRANCH  18  21
HETATM   21  C   UNL     1      21.600  50.399  49.273  1.00  0.00     0.148 C 
BRANCH  21  22
HETATM   22  C   UNL     1      20.991  50.945  50.564  1.00  0.00     0.183 C 
BRANCH  22  23
HETATM   23  O   UNL     1      22.021  51.208  51.518  1.00  0.00    -0.399 OA
HETATM   24  H   UNL     1      22.470  52.014  51.207  1.00  0.00     0.209 HD
ENDBRANCH  22  23
ENDBRANCH  21  22
ENDBRANCH  18  21
ENDBRANCH  14  17
ENDBRANCH   4  11
BRANCH   1  25
HETATM   25  N   UNL     1      28.320  40.483  50.460  1.00  0.00    -0.339 N 
HETATM   26  H   UNL     1      28.346  40.184  51.430  1.00  0.00     0.167 HD
BRANCH  25  27
HETATM   27  C   UNL     1      28.119  39.400  49.577  1.00  0.00     0.033 A 
HETATM   28  C   UNL     1      29.145  38.887  48.776  1.00  0.00     0.032 A 
HETATM   29  C   UNL     1      28.946  37.759  47.969  1.00  0.00     0.039 A 
HETATM   30  C   UNL     1      27.715  37.109  47.966  1.00  0.00     0.068 A 
HETATM   31  C   UNL     1      26.690  37.599  48.776  1.00  0.00     0.039 A 
HETATM   32  C   UNL     1      26.894  38.722  49.585  1.00  0.00     0.032 A 
BRANCH  30  33
HETATM   33  O   UNL     1      27.391  36.000  47.235  1.00  0.00    -0.356 OA
HETATM   34  C   UNL     1      27.917  35.930  45.916  1.00  0.00     0.210 C 
ENDBRANCH  30  33
ENDBRANCH  25  27
ENDBRANCH   1  25
TORSDOF 8
ENDMDL
MODEL 7
REMARK VINA RESULT:      -8.0      4.097      8.313
REMARK  8 active torsions:
REMARK  status: ('A' for Active; 'I' for Inactive)
REMARK    1  A    between atoms: O_2  and  C_3 
REMARK    2  A    between atoms: C_6  and  N_7 
REMARK    3  A    between atoms: N_7  and  C_8 
REMARK    4  A    between atoms: C_11  and  C_12 
REMARK    5  A    between atoms: C_15  and  C_16 
REMARK       I    between atoms: C_16  and  N_17 
REMARK    6  A    between atoms: N_17  and  C_18 
REMARK    7  A    between atoms: C_18  and  C_19 
REMARK    8  A    between atoms: C_19  and  O_20 
ROOT
HETATM    1  C   UNL     1      16.638  51.629  49.175  1.00  0.00     0.161 A 
HETATM    2  N   UNL     1      17.440  51.465  50.248  1.00  0.00    -0.131 NA
HETATM    3  N   UNL     1      18.734  51.057  50.106  1.00  0.00    -0.147 NA
HETATM    4  C   UNL     1      19.241  50.814  48.876  1.00  0.00     0.100 A 
HETATM    5  C   UNL     1      18.464  50.962  47.712  1.00  0.00     0.009 A 
HETATM    6  C   UNL     1      17.124  51.392  47.868  1.00  0.00     0.024 A 
HETATM    7  C   UNL     1      18.945  50.697  46.404  1.00  0.00     0.015 A 
HETATM    8  C   UNL     1      18.143  50.878  45.278  1.00  0.00     0.001 A 
HETATM    9  C   UNL     1      16.839  51.325  45.427  1.00  0.00     0.001 A 
HETATM   10  C   UNL     1      16.337  51.577  46.704  1.00  0.00     0.016 A 
ENDROOT
BRANCH   4  11
HETATM   11  C   UNL     1      20.650  50.395  48.901  1.00  0.00    -0.005 A 
HETATM   12  C   UNL     1      21.674  51.341  48.720  1.00  0.00     0.015 A 
HETATM   13  C   UNL     1      23.019  50.956  48.698  1.00  0.00     0.018 A 
HETATM   14  C   UNL     1      23.361  49.608  48.842  1.00  0.00     0.032 A 
HETATM   15  C   UNL     1      22.353  48.657  49.039  1.00  0.00     0.018 A 
HETATM   16  C   UNL     1      21.010  49.047  49.058  1.00  0.00     0.015 A 
BRANCH  14  17
HETATM   17  C   UNL     1      24.773  49.142  48.796  1.00  0.00     0.251 C 
HETATM   18  N   UNL     1      25.077  48.027  49.547  1.00  0.00    -0.355 N 
HETATM   19  H   UNL     1      24.398  47.649  50.193  1.00  0.00     0.162 HD
HETATM   20  O   UNL     1      25.610  49.765  48.153  1.00  0.00    -0.268 OA
BRANCH  18  21
HETATM   21  C   UNL     1      26.436  47.515  49.629  1.00  0.00     0.148 C 
BRANCH  21  22
HETATM   22  C   UNL     1      26.475  46.018  49.934  1.00  0.00     0.183 C 
BRANCH  22  23
HETATM   23  O   UNL     1      27.735  45.471  49.546  1.00  0.00    -0.399 OA
HETATM   24  H   UNL     1      27.533  44.776  48.894  1.00  0.00     0.209 HD
ENDBRANCH  22  23
ENDBRANCH  21  22
ENDBRANCH  18  21
ENDBRANCH  14  17
ENDBRANCH   4  11
BRANCH   1  25
HETATM   25  N   UNL     1      15.281  52.010  49.358  1.00  0.00    -0.339 N 
HETATM   26  H   UNL     1      14.808  51.279  49.879  1.00  0.00     0.167 HD
BRANCH  25  27
HETATM   27  C   UNL     1      14.791  53.293  49.683  1.00  0.00     0.033 A 
HETATM   28  C   UNL     1      14.828  53.799  50.988  1.00  0.00     0.032 A 
HETATM   29  C   UNL     1      14.414  55.106  51.275  1.00  0.00     0.039 A 
HETATM   30  C   UNL     1      13.972  55.941  50.252  1.00  0.00     0.068 A 
HETATM   31  C   UNL     1      13.949  55.455  48.945  1.00  0.00     0.039 A 
HETATM   32  C   UNL     1      14.370  54.151  48.660  1.00  0.00     0.032 A 
BRANCH  30  33
HETATM   33  O   UNL     1      13.549  57.234  50.393  1.00  0.00    -0.356 OA
HETATM   34  C   UNL     1      14.460  58.250  49.994  1.00  0.00     0.210 C 
ENDBRANCH  30  33
ENDBRANCH  25  27
ENDBRANCH   1  25
TORSDOF 8
ENDMDL
MODEL 8
REMARK VINA RESULT:      -8.0     11.413     12.781
REMARK  8 active torsions:
REMARK  status: ('A' for Active; 'I' for Inactive)
REMARK    1  A    between atoms: O_2  and  C_3 
REMARK    2  A    between atoms: C_6  and  N_7 
REMARK    3  A    between atoms: N_7  and  C_8 
REMARK    4  A    between atoms: C_11  and  C_12 
REMARK    5  A    between atoms: C_15  and  C_16 
REMARK       I    between atoms: C_16  and  N_17 
REMARK    6  A    between atoms: N_17  and  C_18 
REMARK    7  A    between atoms: C_18  and  C_19 
REMARK    8  A    between atoms: C_19  and  O_20 
ROOT
HETATM    1  C   UNL     1      28.981  49.296  41.840  1.00  0.00     0.161 A 
HETATM    2  N   UNL     1      29.958  48.633  42.494  1.00  0.00    -0.131 NA
HETATM    3  N   UNL     1      31.154  49.231  42.770  1.00  0.00    -0.147 NA
HETATM    4  C   UNL     1      31.379  50.509  42.394  1.00  0.00     0.100 A 
HETATM    5  C   UNL     1      30.408  51.262  41.707  1.00  0.00     0.009 A 
HETATM    6  C   UNL     1      29.168  50.637  41.431  1.00  0.00     0.024 A 
HETATM    7  C   UNL     1      30.607  52.597  41.272  1.00  0.00     0.015 A 
HETATM    8  C   UNL     1      29.607  53.310  40.612  1.00  0.00     0.001 A 
HETATM    9  C   UNL     1      28.383  52.709  40.366  1.00  0.00     0.001 A 
HETATM   10  C   UNL     1      28.167  51.391  40.768  1.00  0.00     0.016 A 
ENDROOT
BRANCH   4  11
HETATM   11  C   UNL     1      32.710  51.002  42.777  1.00  0.00    -0.005 A 
HETATM   12  C   UNL     1      32.894  51.663  44.003  1.00  0.00     0.015 A 
HETATM   13  C   UNL     1      34.144  52.176  44.368  1.00  0.00     0.018 A 
HETATM   14  C   UNL     1      35.231  52.048  43.498  1.00  0.00     0.032 A 
HETATM   15  C   UNL     1      35.066  51.377  42.281  1.00  0.00     0.018 A 
HETATM   16  C   UNL     1      33.814  50.868  41.920  1.00  0.00     0.015 A 
BRANCH  14  17
HETATM   17  C   UNL     1      36.574  52.602  43.824  1.00  0.00     0.251 C 
HETATM   18  N   UNL     1      37.177  52.118  44.965  1.00  0.00    -0.355 N 
HETATM   19  H   UNL     1      36.660  51.528  45.603  1.00  0.00     0.162 HD
HETATM   20  O   UNL     1      37.070  53.474  43.121  1.00  0.00    -0.268 OA
BRANCH  18  21
HETATM   21  C   UNL     1      38.462  52.628  45.418  1.00  0.00     0.148 C 
BRANCH  21  22
HETATM   22  C   UNL     1      38.322  53.581  46.605  1.00  0.00     0.183 C 
BRANCH  22  23
HETATM   23  O   UNL     1      38.442  52.858  47.830  1.00  0.00    -0.399 OA
HETATM   24  H   UNL     1      38.071  51.974  47.653  1.00  0.00     0.209 HD
ENDBRANCH  22  23
ENDBRANCH  21  22
ENDBRANCH  18  21
ENDBRANCH  14  17
ENDBRANCH   4  11
BRANCH   1  25
HETATM   25  N   UNL     1      27.764  48.632  41.526  1.00  0.00    -0.339 N 
HETATM   26  H   UNL     1      27.006  49.304  41.583  1.00  0.00     0.167 HD
BRANCH  25  27
HETATM   27  C   UNL     1      27.551  47.678  40.508  1.00  0.00     0.033 A 
HETATM   28  C   UNL     1      27.796  47.957  39.158  1.00  0.00     0.032 A 
HETATM   29  C   UNL     1      27.657  46.971  38.173  1.00  0.00     0.039 A 
HETATM   30  C   UNL     1      27.289  45.675  38.527  1.00  0.00     0.068 A 
HETATM   31  C   UNL     1      27.061  45.380  39.871  1.00  0.00     0.039 A 
HETATM   32  C   UNL     1      27.206  46.366  40.853  1.00  0.00     0.032 A 
BRANCH  30  33
HETATM   33  O   UNL     1      27.126  44.621  37.670  1.00  0.00    -0.356 OA
HETATM   34  C   UNL     1      27.082  44.929  36.282  1.00  0.00     0.210 C 
ENDBRANCH  30  33
ENDBRANCH  25  27
ENDBRANCH   1  25
TORSDOF 8
ENDMDL
MODEL 9
REMARK VINA RESULT:      -7.6      6.480     10.760
REMARK  8 active torsions:
REMARK  status: ('A' for Active; 'I' for Inactive)
REMARK    1  A    between atoms: O_2  and  C_3 
REMARK    2  A    between atoms: C_6  and  N_7 
REMARK    3  A    between atoms: N_7  and  C_8 
REMARK    4  A    between atoms: C_11  and  C_12 
REMARK    5  A    between atoms: C_15  and  C_16 
REMARK       I    between atoms: C_16  and  N_17 
REMARK    6  A    between atoms: N_17  and  C_18 
REMARK    7  A    between atoms: C_18  and  C_19 
REMARK    8  A    between atoms: C_19  and  O_20 
ROOT
HETATM    1  C   UNL     1      27.173  41.665  51.553  1.00  0.00     0.161 A 
HETATM    2  N   UNL     1      28.254  40.979  51.124  1.00  0.00    -0.131 NA
HETATM    3  N   UNL     1      28.354  40.560  49.829  1.00  0.00    -0.147 NA
HETATM    4  C   UNL     1      27.367  40.832  48.947  1.00  0.00     0.100 A 
HETATM    5  C   UNL     1      26.211  41.541  49.323  1.00  0.00     0.009 A 
HETATM    6  C   UNL     1      26.118  41.978  50.666  1.00  0.00     0.024 A 
HETATM    7  C   UNL     1      25.140  41.830  48.439  1.00  0.00     0.015 A 
HETATM    8  C   UNL     1      24.022  42.554  48.853  1.00  0.00     0.001 A 
HETATM    9  C   UNL     1      23.942  43.006  50.161  1.00  0.00     0.001 A 
HETATM   10  C   UNL     1      24.975  42.721  51.055  1.00  0.00     0.016 A 
ENDROOT
BRANCH   4  11
HETATM   11  C   UNL     1      27.638  40.320  47.595  1.00  0.00    -0.005 A 
HETATM   12  C   UNL     1      27.419  38.965  47.294  1.00  0.00     0.015 A 
HETATM   13  C   UNL     1      27.711  38.449  46.027  1.00  0.00     0.018 A 
HETATM   14  C   UNL     1      28.244  39.284  45.040  1.00  0.00     0.032 A 
HETATM   15  C   UNL     1      28.452  40.639  45.320  1.00  0.00     0.018 A 
HETATM   16  C   UNL     1      28.160  41.150  46.590  1.00  0.00     0.015 A 
BRANCH  14  17
HETATM   17  C   UNL     1      28.599  38.779  43.686  1.00  0.00     0.251 C 
HETATM   18  N   UNL     1      29.504  39.532  42.968  1.00  0.00    -0.355 N 
HETATM   19  H   UNL     1      29.788  40.442  43.304  1.00  0.00     0.162 HD
HETATM   20  O   UNL     1      28.064  37.771  43.241  1.00  0.00    -0.268 OA
BRANCH  18  21
HETATM   21  C   UNL     1      29.882  39.172  41.610  1.00  0.00     0.148 C 
BRANCH  21  22
HETATM   22  C   UNL     1      31.299  38.604  41.533  1.00  0.00     0.183 C 
BRANCH  22  23
HETATM   23  O   UNL     1      32.250  39.667  41.482  1.00  0.00    -0.399 OA
HETATM   24  H   UNL     1      33.016  39.362  42.003  1.00  0.00     0.209 HD
ENDBRANCH  22  23
ENDBRANCH  21  22
ENDBRANCH  18  21
ENDBRANCH  14  17
ENDBRANCH   4  11
BRANCH   1  25
HETATM   25  N   UNL     1      27.076  42.048  52.919  1.00  0.00    -0.339 N 
HETATM   26  H   UNL     1      26.745  41.252  53.455  1.00  0.00     0.167 HD
BRANCH  25  27
HETATM   27  C   UNL     1      27.990  42.836  53.651  1.00  0.00     0.033 A 
HETATM   28  C   UNL     1      27.677  44.125  54.098  1.00  0.00     0.032 A 
HETATM   29  C   UNL     1      28.567  44.857  54.894  1.00  0.00     0.039 A 
HETATM   30  C   UNL     1      29.785  44.300  55.276  1.00  0.00     0.068 A 
HETATM   31  C   UNL     1      30.100  43.009  54.853  1.00  0.00     0.039 A 
HETATM   32  C   UNL     1      29.206  42.277  54.063  1.00  0.00     0.032 A 
BRANCH  30  33
HETATM   33  O   UNL     1      30.737  44.900  56.053  1.00  0.00    -0.356 OA
HETATM   34  C   UNL     1      31.328  44.101  57.070  1.00  0.00     0.210 C 
ENDBRANCH  30  33
ENDBRANCH  25  27
ENDBRANCH   1  25
TORSDOF 8
ENDMDL
MODEL 10
REMARK VINA RESULT:      -7.6     11.999     16.151
REMARK  8 active torsions:
REMARK  status: ('A' for Active; 'I' for Inactive)
REMARK    1  A    between atoms: O_2  and  C_3 
REMARK    2  A    between atoms: C_6  and  N_7 
REMARK    3  A    between atoms: N_7  and  C_8 
REMARK    4  A    between atoms: C_11  and  C_12 
REMARK    5  A    between atoms: C_15  and  C_16 
REMARK       I    between atoms: C_16  and  N_17 
REMARK    6  A    between atoms: N_17  and  C_18 
REMARK    7  A    between atoms: C_18  and  C_19 
REMARK    8  A    between atoms: C_19  and  O_20 
ROOT
HETATM    1  C   UNL     1      36.490  52.350  43.419  1.00  0.00     0.161 A 
HETATM    2  N   UNL     1      35.412  52.461  44.223  1.00  0.00    -0.131 NA
HETATM    3  N   UNL     1      34.174  52.073  43.801  1.00  0.00    -0.147 NA
HETATM    4  C   UNL     1      34.006  51.561  42.561  1.00  0.00     0.100 A 
HETATM    5  C   UNL     1      35.083  51.418  41.667  1.00  0.00     0.009 A 
HETATM    6  C   UNL     1      36.365  51.816  42.115  1.00  0.00     0.024 A 
HETATM    7  C   UNL     1      34.951  50.908  40.350  1.00  0.00     0.015 A 
HETATM    8  C   UNL     1      36.053  50.765  39.506  1.00  0.00     0.001 A 
HETATM    9  C   UNL     1      37.313  51.129  39.953  1.00  0.00     0.001 A 
HETATM   10  C   UNL     1      37.467  51.648  41.239  1.00  0.00     0.016 A 
ENDROOT
BRANCH   4  11
HETATM   11  C   UNL     1      32.615  51.184  42.271  1.00  0.00    -0.005 A 
HETATM   12  C   UNL     1      32.122  49.931  42.673  1.00  0.00     0.015 A 
HETATM   13  C   UNL     1      30.814  49.537  42.371  1.00  0.00     0.018 A 
HETATM   14  C   UNL     1      29.979  50.390  41.642  1.00  0.00     0.032 A 
HETATM   15  C   UNL     1      30.451  51.648  41.249  1.00  0.00     0.018 A 
HETATM   16  C   UNL     1      31.760  52.037  41.553  1.00  0.00     0.015 A 
BRANCH  14  17
HETATM   17  C   UNL     1      28.591  50.008  41.268  1.00  0.00     0.251 C 
HETATM   18  N   UNL     1      28.392  49.616  39.961  1.00  0.00    -0.355 N 
HETATM   19  H   UNL     1      29.131  49.726  39.280  1.00  0.00     0.162 HD
HETATM   20  O   UNL     1      27.684  50.091  42.088  1.00  0.00    -0.268 OA
BRANCH  18  21
HETATM   21  C   UNL     1      27.068  49.279  39.464  1.00  0.00     0.148 C 
BRANCH  21  22
HETATM   22  C   UNL     1      26.913  49.582  37.974  1.00  0.00     0.183 C 
BRANCH  22  23
HETATM   23  O   UNL     1      26.473  50.928  37.791  1.00  0.00    -0.399 OA
HETATM   24  H   UNL     1      26.705  51.160  36.873  1.00  0.00     0.209 HD
ENDBRANCH  22  23
ENDBRANCH  21  22
ENDBRANCH  18  21
ENDBRANCH  14  17
ENDBRANCH   4  11
BRANCH   1  25
HETATM   25  N   UNL     1      37.758  52.806  43.869  1.00  0.00    -0.339 N 
HETATM   26  H   UNL     1      38.459  52.540  43.185  1.00  0.00     0.167 HD
BRANCH  25  27
HETATM   27  C   UNL     1      38.053  54.047  44.473  1.00  0.00     0.033 A 
HETATM   28  C   UNL     1      38.477  54.150  45.803  1.00  0.00     0.032 A 
HETATM   29  C   UNL     1      38.844  55.383  46.359  1.00  0.00     0.039 A 
HETATM   30  C   UNL     1      38.813  56.538  45.581  1.00  0.00     0.068 A 
HETATM   31  C   UNL     1      38.412  56.445  44.248  1.00  0.00     0.039 A 
HETATM   32  C   UNL     1      38.051  55.211  43.695  1.00  0.00     0.032 A 
BRANCH  30  33
HETATM   33  O   UNL     1      39.151  57.797  45.994  1.00  0.00    -0.356 OA
HETATM   34  C   UNL     1      39.954  58.565  45.107  1.00  0.00     0.210 C 
ENDBRANCH  30  33
ENDBRANCH  25  27
ENDBRANCH   1  25
TORSDOF 8
ENDMDL
