MODEL 1
REMARK VINA RESULT:      -8.8      0.000      0.000
REMARK  9 active torsions:
REMARK  status: ('A' for Active; 'I' for Inactive)
REMARK    1  A    between atoms: C_2  and  O_3 
REMARK    2  A    between atoms: O_3  and  C_4 
REMARK    3  A    between atoms: C_5  and  O_6 
REMARK    4  A    between atoms: O_6  and  C_7 
REMARK    5  A    between atoms: C_7  and  C_8 
REMARK       I    between atoms: C_8  and  N_9 
REMARK    6  A    between atoms: N_9  and  C_10 
REMARK    7  A    between atoms: C_17  and  C_18 
REMARK    8  A    between atoms: C_18  and  N_19 
REMARK    9  A    between atoms: N_19  and  C_20 
ROOT
HETATM    1  C   UNL     1      26.209  45.962  49.960  1.00  0.00     0.102 A 
HETATM    2  C   UNL     1      24.807  45.926  50.011  1.00  0.00     0.102 A 
HETATM    3  C   UNL     1      24.190  44.965  50.818  1.00  0.00     0.040 A 
HETATM    4  C   UNL     1      24.956  44.040  51.535  1.00  0.00     0.012 A 
HETATM    5  C   UNL     1      26.354  44.046  51.451  1.00  0.00    -0.038 A 
HETATM    6  C   UNL     1      26.972  45.013  50.651  1.00  0.00     0.048 A 
ENDROOT
BRANCH   5   7
HETATM    7  C   UNL     1      27.171  43.004  52.181  1.00  0.00     0.158 C 
BRANCH   7   8
HETATM    8  N   UNL     1      28.553  43.457  52.261  1.00  0.00    -0.386 N 
HETATM    9  H   UNL     1      28.793  44.104  51.514  1.00  0.00     0.160 HD
BRANCH   8  10
HETATM   10  C   UNL     1      29.096  43.846  53.489  1.00  0.00     0.031 A 
HETATM   11  C   UNL     1      28.554  44.854  54.295  1.00  0.00     0.068 A 
HETATM   12  C   UNL     1      29.098  45.139  55.551  1.00  0.00     0.104 A 
HETATM   13  C   UNL     1      30.195  44.418  56.024  1.00  0.00     0.102 A 
HETATM   14  O   UNL     1      28.500  46.149  56.265  1.00  0.00    -0.346 OA
HETATM   15  O   UNL     1      30.797  44.664  57.231  1.00  0.00    -0.346 OA
HETATM   16  C   UNL     1      30.712  43.377  55.264  1.00  0.00     0.042 A 
HETATM   17  C   UNL     1      30.401  45.933  57.761  1.00  0.00     0.202 C 
HETATM   18  C   UNL     1      28.898  46.121  57.640  1.00  0.00     0.202 C 
HETATM   19  C   UNL     1      30.157  43.090  54.014  1.00  0.00     0.032 A 
ENDBRANCH   8  10
ENDBRANCH   7   8
ENDBRANCH   5   7
BRANCH   1  20
HETATM   20  O   UNL     1      26.937  46.825  49.180  1.00  0.00    -0.349 OA
BRANCH  20  21
HETATM   21  C   UNL     1      27.213  48.104  49.764  1.00  0.00     0.171 C 
HETATM   22  C   UNL     1      27.038  49.254  48.785  1.00  0.00     0.034 C 
ENDBRANCH  20  21
ENDBRANCH   1  20
BRANCH   2  23
HETATM   23  O   UNL     1      24.140  46.798  49.193  1.00  0.00    -0.339 OA
BRANCH  23  24
HETATM   24  C   UNL     1      23.615  48.003  49.731  1.00  0.00     0.278 C 
BRANCH  24  25
HETATM   25  C   UNL     1      22.528  48.690  48.892  1.00  0.00     0.242 C 
HETATM   26  N   UNL     1      21.555  49.323  49.633  1.00  0.00    -0.351 N 
HETATM   27  H   UNL     1      21.598  49.165  50.637  1.00  0.00     0.163 HD
HETATM   28  O   UNL     1      22.549  48.649  47.665  1.00  0.00    -0.271 OA
BRANCH  26  29
HETATM   29  C   UNL     1      20.364  49.994  49.099  1.00  0.00     0.022 C 
HETATM   30  C   UNL     1      19.663  49.092  48.074  1.00  0.00     0.037 C 
HETATM   31  C   UNL     1      19.402  50.254  50.273  1.00  0.00     0.037 C 
HETATM   32  C   UNL     1      20.717  51.347  48.461  1.00  0.00     0.037 C 
ENDBRANCH  26  29
ENDBRANCH  24  25
ENDBRANCH  23  24
ENDBRANCH   2  23
TORSDOF 9
ENDMDL
MODEL 2
REMARK VINA RESULT:      -8.7      1.257      1.780
REMARK  9 active torsions:
REMARK  status: ('A' for Active; 'I' for Inactive)
REMARK    1  A    between atoms: C_2  and  O_3 
REMARK    2  A    between atoms: O_3  and  C_4 
REMARK    3  A    between atoms: C_5  and  O_6 
REMARK    4  A    between atoms: O_6  and  C_7 
REMARK    5  A    between atoms: C_7  and  C_8 
REMARK       I    between atoms: C_8  and  N_9 
REMARK    6  A    between atoms: N_9  and  C_10 
REMARK    7  A    between atoms: C_17  and  C_18 
REMARK    8  A    between atoms: C_18  and  N_19 
REMARK    9  A    between atoms: N_19  and  C_20 
ROOT
HETATM    1  C   UNL     1      25.467  46.973  50.723  1.00  0.00     0.102 A 
HETATM    2  C   UNL     1      24.347  46.521  50.007  1.00  0.00     0.102 A 
HETATM    3  C   UNL     1      23.874  45.228  50.248  1.00  0.00     0.040 A 
HETATM    4  C   UNL     1      24.524  44.392  51.163  1.00  0.00     0.012 A 
HETATM    5  C   UNL     1      25.667  44.826  51.847  1.00  0.00    -0.038 A 
HETATM    6  C   UNL     1      26.134  46.122  51.612  1.00  0.00     0.048 A 
ENDROOT
BRANCH   5   7
HETATM    7  C   UNL     1      26.397  43.894  52.788  1.00  0.00     0.158 C 
BRANCH   7   8
HETATM    8  N   UNL     1      27.818  44.217  52.764  1.00  0.00    -0.386 N 
HETATM    9  H   UNL     1      28.051  44.886  52.035  1.00  0.00     0.160 HD
BRANCH   8  10
HETATM   10  C   UNL     1      28.499  44.477  53.955  1.00  0.00     0.031 A 
HETATM   11  C   UNL     1      29.448  43.614  54.515  1.00  0.00     0.068 A 
HETATM   12  C   UNL     1      30.154  43.972  55.667  1.00  0.00     0.104 A 
HETATM   13  C   UNL     1      29.924  45.204  56.280  1.00  0.00     0.102 A 
HETATM   14  O   UNL     1      31.060  43.055  56.143  1.00  0.00    -0.346 OA
HETATM   15  O   UNL     1      30.558  45.607  57.428  1.00  0.00    -0.346 OA
HETATM   16  C   UNL     1      29.028  46.098  55.710  1.00  0.00     0.042 A 
HETATM   17  C   UNL     1      31.191  44.505  58.087  1.00  0.00     0.202 C 
HETATM   18  C   UNL     1      31.955  43.650  57.090  1.00  0.00     0.202 C 
HETATM   19  C   UNL     1      28.333  45.739  54.552  1.00  0.00     0.032 A 
ENDBRANCH   8  10
ENDBRANCH   7   8
ENDBRANCH   5   7
BRANCH   1  20
HETATM   20  O   UNL     1      26.054  48.202  50.553  1.00  0.00    -0.349 OA
BRANCH  20  21
HETATM   21  C   UNL     1      27.019  48.285  49.498  1.00  0.00     0.171 C 
HETATM   22  C   UNL     1      26.802  49.485  48.589  1.00  0.00     0.034 C 
ENDBRANCH  20  21
ENDBRANCH   1  20
BRANCH   2  23
HETATM   23  O   UNL     1      23.844  47.367  49.055  1.00  0.00    -0.339 OA
BRANCH  23  24
HETATM   24  C   UNL     1      22.528  47.164  48.562  1.00  0.00     0.278 C 
BRANCH  24  25
HETATM   25  C   UNL     1      21.613  48.397  48.580  1.00  0.00     0.242 C 
HETATM   26  N   UNL     1      20.681  48.397  49.594  1.00  0.00    -0.351 N 
HETATM   27  H   UNL     1      20.623  47.538  50.135  1.00  0.00     0.163 HD
HETATM   28  O   UNL     1      21.723  49.285  47.740  1.00  0.00    -0.271 OA
BRANCH  26  29
HETATM   29  C   UNL     1      19.638  49.407  49.807  1.00  0.00     0.022 C 
HETATM   30  C   UNL     1      18.725  49.494  48.576  1.00  0.00     0.037 C 
HETATM   31  C   UNL     1      18.796  48.968  51.019  1.00  0.00     0.037 C 
HETATM   32  C   UNL     1      20.241  50.786  50.118  1.00  0.00     0.037 C 
ENDBRANCH  26  29
ENDBRANCH  24  25
ENDBRANCH  23  24
ENDBRANCH   2  23
TORSDOF 9
ENDMDL
MODEL 3
REMARK VINA RESULT:      -8.3      1.327      2.167
REMARK  9 active torsions:
REMARK  status: ('A' for Active; 'I' for Inactive)
REMARK    1  A    between atoms: C_2  and  O_3 
REMARK    2  A    between atoms: O_3  and  C_4 
REMARK    3  A    between atoms: C_5  and  O_6 
REMARK    4  A    between atoms: O_6  and  C_7 
REMARK    5  A    between atoms: C_7  and  C_8 
REMARK       I    between atoms: C_8  and  N_9 
REMARK    6  A    between atoms: N_9  and  C_10 
REMARK    7  A    between atoms: C_17  and  C_18 
REMARK    8  A    between atoms: C_18  and  N_19 
REMARK    9  A    between atoms: N_19  and  C_20 
ROOT
HETATM    1  C   UNL     1      24.699  45.132  49.694  1.00  0.00     0.102 A 
HETATM    2  C   UNL     1      24.576  46.463  50.122  1.00  0.00     0.102 A 
HETATM    3  C   UNL     1      25.189  46.843  51.319  1.00  0.00     0.040 A 
HETATM    4  C   UNL     1      25.886  45.905  52.090  1.00  0.00     0.012 A 
HETATM    5  C   UNL     1      25.973  44.567  51.687  1.00  0.00    -0.038 A 
HETATM    6  C   UNL     1      25.367  44.189  50.485  1.00  0.00     0.048 A 
ENDROOT
BRANCH   5   7
HETATM    7  C   UNL     1      26.675  43.548  52.557  1.00  0.00     0.158 C 
BRANCH   7   8
HETATM    8  N   UNL     1      28.110  43.796  52.512  1.00  0.00    -0.386 N 
HETATM    9  H   UNL     1      28.374  44.409  51.744  1.00  0.00     0.160 HD
BRANCH   8  10
HETATM   10  C   UNL     1      28.809  44.092  53.685  1.00  0.00     0.031 A 
HETATM   11  C   UNL     1      28.390  45.041  54.623  1.00  0.00     0.068 A 
HETATM   12  C   UNL     1      29.093  45.231  55.817  1.00  0.00     0.104 A 
HETATM   13  C   UNL     1      30.231  44.470  56.093  1.00  0.00     0.102 A 
HETATM   14  O   UNL     1      28.607  46.190  56.672  1.00  0.00    -0.346 OA
HETATM   15  O   UNL     1      30.985  44.624  57.228  1.00  0.00    -0.346 OA
HETATM   16  C   UNL     1      30.631  43.485  55.201  1.00  0.00     0.042 A 
HETATM   17  C   UNL     1      30.679  45.854  57.893  1.00  0.00     0.202 C 
HETATM   18  C   UNL     1      29.175  46.059  57.979  1.00  0.00     0.202 C 
HETATM   19  C   UNL     1      29.917  43.293  54.015  1.00  0.00     0.032 A 
ENDBRANCH   8  10
ENDBRANCH   7   8
ENDBRANCH   5   7
BRANCH   1  20
HETATM   20  O   UNL     1      24.115  44.621  48.562  1.00  0.00    -0.349 OA
BRANCH  20  21
HETATM   21  C   UNL     1      22.948  43.818  48.777  1.00  0.00     0.171 C 
HETATM   22  C   UNL     1      21.653  44.570  48.513  1.00  0.00     0.034 C 
ENDBRANCH  20  21
ENDBRANCH   1  20
BRANCH   2  23
HETATM   23  O   UNL     1      23.786  47.282  49.360  1.00  0.00    -0.339 OA
BRANCH  23  24
HETATM   24  C   UNL     1      24.190  48.623  49.121  1.00  0.00     0.278 C 
BRANCH  24  25
HETATM   25  C   UNL     1      23.098  49.689  49.294  1.00  0.00     0.242 C 
HETATM   26  N   UNL     1      21.815  49.188  49.313  1.00  0.00    -0.351 N 
HETATM   27  H   UNL     1      21.728  48.200  49.091  1.00  0.00     0.163 HD
HETATM   28  O   UNL     1      23.380  50.879  49.395  1.00  0.00    -0.271 OA
BRANCH  26  29
HETATM   29  C   UNL     1      20.582  49.980  49.391  1.00  0.00     0.022 C 
HETATM   30  C   UNL     1      20.266  50.607  48.026  1.00  0.00     0.037 C 
HETATM   31  C   UNL     1      19.434  49.029  49.778  1.00  0.00     0.037 C 
HETATM   32  C   UNL     1      20.680  51.073  50.467  1.00  0.00     0.037 C 
ENDBRANCH  26  29
ENDBRANCH  24  25
ENDBRANCH  23  24
ENDBRANCH   2  23
TORSDOF 9
ENDMDL
MODEL 4
REMARK VINA RESULT:      -8.2      1.541      2.612
REMARK  9 active torsions:
REMARK  status: ('A' for Active; 'I' for Inactive)
REMARK    1  A    between atoms: C_2  and  O_3 
REMARK    2  A    between atoms: O_3  and  C_4 
REMARK    3  A    between atoms: C_5  and  O_6 
REMARK    4  A    between atoms: O_6  and  C_7 
REMARK    5  A    between atoms: C_7  and  C_8 
REMARK       I    between atoms: C_8  and  N_9 
REMARK    6  A    between atoms: N_9  and  C_10 
REMARK    7  A    between atoms: C_17  and  C_18 
REMARK    8  A    between atoms: C_18  and  N_19 
REMARK    9  A    between atoms: N_19  and  C_20 
ROOT
HETATM    1  C   UNL     1      24.693  45.183  49.774  1.00  0.00     0.102 A 
HETATM    2  C   UNL     1      24.527  46.526  50.147  1.00  0.00     0.102 A 
HETATM    3  C   UNL     1      25.080  46.959  51.356  1.00  0.00     0.040 A 
HETATM    4  C   UNL     1      25.758  46.063  52.190  1.00  0.00     0.012 A 
HETATM    5  C   UNL     1      25.887  44.713  51.840  1.00  0.00    -0.038 A 
HETATM    6  C   UNL     1      25.342  44.281  50.626  1.00  0.00     0.048 A 
ENDROOT
BRANCH   5   7
HETATM    7  C   UNL     1      26.568  43.739  52.776  1.00  0.00     0.158 C 
BRANCH   7   8
HETATM    8  N   UNL     1      27.998  44.015  52.786  1.00  0.00    -0.386 N 
HETATM    9  H   UNL     1      28.281  44.630  52.027  1.00  0.00     0.160 HD
BRANCH   8  10
HETATM   10  C   UNL     1      28.645  44.328  53.984  1.00  0.00     0.031 A 
HETATM   11  C   UNL     1      29.604  43.508  54.589  1.00  0.00     0.068 A 
HETATM   12  C   UNL     1      30.274  43.918  55.746  1.00  0.00     0.104 A 
HETATM   13  C   UNL     1      29.996  45.161  56.318  1.00  0.00     0.102 A 
HETATM   14  O   UNL     1      31.194  43.042  56.267  1.00  0.00    -0.346 OA
HETATM   15  O   UNL     1      30.592  45.614  57.466  1.00  0.00    -0.346 OA
HETATM   16  C   UNL     1      29.089  46.013  55.702  1.00  0.00     0.042 A 
HETATM   17  C   UNL     1      31.240  44.549  58.171  1.00  0.00     0.202 C 
HETATM   18  C   UNL     1      32.050  43.688  57.216  1.00  0.00     0.202 C 
HETATM   19  C   UNL     1      28.431  45.601  54.540  1.00  0.00     0.032 A 
ENDBRANCH   8  10
ENDBRANCH   7   8
ENDBRANCH   5   7
BRANCH   1  20
HETATM   20  O   UNL     1      24.169  44.621  48.637  1.00  0.00    -0.349 OA
BRANCH  20  21
HETATM   21  C   UNL     1      23.013  43.797  48.830  1.00  0.00     0.171 C 
HETATM   22  C   UNL     1      21.714  44.504  48.478  1.00  0.00     0.034 C 
ENDBRANCH  20  21
ENDBRANCH   1  20
BRANCH   2  23
HETATM   23  O   UNL     1      23.758  47.302  49.323  1.00  0.00    -0.339 OA
BRANCH  23  24
HETATM   24  C   UNL     1      24.137  48.648  49.071  1.00  0.00     0.278 C 
BRANCH  24  25
HETATM   25  C   UNL     1      23.037  49.699  49.278  1.00  0.00     0.242 C 
HETATM   26  N   UNL     1      21.757  49.189  49.279  1.00  0.00    -0.351 N 
HETATM   27  H   UNL     1      21.678  48.208  49.026  1.00  0.00     0.163 HD
HETATM   28  O   UNL     1      23.310  50.888  49.417  1.00  0.00    -0.271 OA
BRANCH  26  29
HETATM   29  C   UNL     1      20.519  49.969  49.383  1.00  0.00     0.022 C 
HETATM   30  C   UNL     1      20.193  50.629  48.036  1.00  0.00     0.037 C 
HETATM   31  C   UNL     1      19.380  48.999  49.748  1.00  0.00     0.037 C 
HETATM   32  C   UNL     1      20.612  51.034  50.487  1.00  0.00     0.037 C 
ENDBRANCH  26  29
ENDBRANCH  24  25
ENDBRANCH  23  24
ENDBRANCH   2  23
TORSDOF 9
ENDMDL
MODEL 5
REMARK VINA RESULT:      -8.1      1.467      2.113
REMARK  9 active torsions:
REMARK  status: ('A' for Active; 'I' for Inactive)
REMARK    1  A    between atoms: C_2  and  O_3 
REMARK    2  A    between atoms: O_3  and  C_4 
REMARK    3  A    between atoms: C_5  and  O_6 
REMARK    4  A    between atoms: O_6  and  C_7 
REMARK    5  A    between atoms: C_7  and  C_8 
REMARK       I    between atoms: C_8  and  N_9 
REMARK    6  A    between atoms: N_9  and  C_10 
REMARK    7  A    between atoms: C_17  and  C_18 
REMARK    8  A    between atoms: C_18  and  N_19 
REMARK    9  A    between atoms: N_19  and  C_20 
ROOT
HETATM    1  C   UNL     1      24.250  47.364  49.804  1.00  0.00     0.102 A 
HETATM    2  C   UNL     1      23.283  46.889  48.903  1.00  0.00     0.102 A 
HETATM    3  C   UNL     1      22.869  45.557  49.004  1.00  0.00     0.040 A 
HETATM    4  C   UNL     1      23.432  44.708  49.964  1.00  0.00     0.012 A 
HETATM    5  C   UNL     1      24.428  45.169  50.834  1.00  0.00    -0.038 A 
HETATM    6  C   UNL     1      24.835  46.503  50.740  1.00  0.00     0.048 A 
ENDROOT
BRANCH   5   7
HETATM    7  C   UNL     1      25.074  44.228  51.827  1.00  0.00     0.158 C 
BRANCH   7   8
HETATM    8  N   UNL     1      26.510  44.194  51.581  1.00  0.00    -0.386 N 
HETATM    9  H   UNL     1      26.776  44.738  50.765  1.00  0.00     0.160 HD
BRANCH   8  10
HETATM   10  C   UNL     1      27.407  44.359  52.639  1.00  0.00     0.031 A 
HETATM   11  C   UNL     1      27.254  45.316  53.649  1.00  0.00     0.068 A 
HETATM   12  C   UNL     1      28.146  45.374  54.725  1.00  0.00     0.104 A 
HETATM   13  C   UNL     1      29.208  44.472  54.809  1.00  0.00     0.102 A 
HETATM   14  O   UNL     1      27.915  46.351  55.662  1.00  0.00    -0.346 OA
HETATM   15  O   UNL     1      30.136  44.491  55.819  1.00  0.00    -0.346 OA
HETATM   16  C   UNL     1      29.344  43.480  53.848  1.00  0.00     0.042 A 
HETATM   17  C   UNL     1      30.088  45.723  56.546  1.00  0.00     0.202 C 
HETATM   18  C   UNL     1      28.652  46.104  56.865  1.00  0.00     0.202 C 
HETATM   19  C   UNL     1      28.444  43.420  52.781  1.00  0.00     0.032 A 
ENDBRANCH   8  10
ENDBRANCH   7   8
ENDBRANCH   5   7
BRANCH   1  20
HETATM   20  O   UNL     1      24.769  48.634  49.788  1.00  0.00    -0.349 OA
BRANCH  20  21
HETATM   21  C   UNL     1      26.080  48.759  49.224  1.00  0.00     0.171 C 
HETATM   22  C   UNL     1      26.169  49.845  48.163  1.00  0.00     0.034 C 
ENDBRANCH  20  21
ENDBRANCH   1  20
BRANCH   2  23
HETATM   23  O   UNL     1      22.869  47.759  47.930  1.00  0.00    -0.339 OA
BRANCH  23  24
HETATM   24  C   UNL     1      21.481  47.996  47.745  1.00  0.00     0.278 C 
BRANCH  24  25
HETATM   25  C   UNL     1      20.888  49.155  48.559  1.00  0.00     0.242 C 
HETATM   26  N   UNL     1      19.672  49.608  48.099  1.00  0.00    -0.351 N 
HETATM   27  H   UNL     1      19.365  49.212  47.214  1.00  0.00     0.163 HD
HETATM   28  O   UNL     1      21.481  49.622  49.528  1.00  0.00    -0.271 OA
BRANCH  26  29
HETATM   29  C   UNL     1      18.916  50.745  48.636  1.00  0.00     0.022 C 
HETATM   30  C   UNL     1      18.572  50.503  50.112  1.00  0.00     0.037 C 
HETATM   31  C   UNL     1      19.806  51.996  48.532  1.00  0.00     0.037 C 
HETATM   32  C   UNL     1      17.633  51.003  47.829  1.00  0.00     0.037 C 
ENDBRANCH  26  29
ENDBRANCH  24  25
ENDBRANCH  23  24
ENDBRANCH   2  23
TORSDOF 9
ENDMDL
MODEL 6
REMARK VINA RESULT:      -7.9      1.771      2.547
REMARK  9 active torsions:
REMARK  status: ('A' for Active; 'I' for Inactive)
REMARK    1  A    between atoms: C_2  and  O_3 
REMARK    2  A    between atoms: O_3  and  C_4 
REMARK    3  A    between atoms: C_5  and  O_6 
REMARK    4  A    between atoms: O_6  and  C_7 
REMARK    5  A    between atoms: C_7  and  C_8 
REMARK       I    between atoms: C_8  and  N_9 
REMARK    6  A    between atoms: N_9  and  C_10 
REMARK    7  A    between atoms: C_17  and  C_18 
REMARK    8  A    between atoms: C_18  and  N_19 
REMARK    9  A    between atoms: N_19  and  C_20 
ROOT
HETATM    1  C   UNL     1      25.350  44.553  52.256  1.00  0.00     0.102 A 
HETATM    2  C   UNL     1      24.844  44.217  50.990  1.00  0.00     0.102 A 
HETATM    3  C   UNL     1      25.443  43.169  50.285  1.00  0.00     0.040 A 
HETATM    4  C   UNL     1      26.544  42.491  50.819  1.00  0.00     0.012 A 
HETATM    5  C   UNL     1      27.078  42.853  52.062  1.00  0.00    -0.038 A 
HETATM    6  C   UNL     1      26.474  43.896  52.771  1.00  0.00     0.048 A 
ENDROOT
BRANCH   5   7
HETATM    7  C   UNL     1      28.306  42.155  52.602  1.00  0.00     0.158 C 
BRANCH   7   8
HETATM    8  N   UNL     1      29.388  43.124  52.717  1.00  0.00    -0.386 N 
HETATM    9  H   UNL     1      29.324  43.862  52.021  1.00  0.00     0.160 HD
BRANCH   8  10
HETATM   10  C   UNL     1      29.762  43.614  53.971  1.00  0.00     0.031 A 
HETATM   11  C   UNL     1      29.128  44.686  54.609  1.00  0.00     0.068 A 
HETATM   12  C   UNL     1      29.499  45.075  55.900  1.00  0.00     0.104 A 
HETATM   13  C   UNL     1      30.512  44.395  56.577  1.00  0.00     0.102 A 
HETATM   14  O   UNL     1      28.821  46.141  56.439  1.00  0.00    -0.346 OA
HETATM   15  O   UNL     1      30.947  44.741  57.831  1.00  0.00    -0.346 OA
HETATM   16  C   UNL     1      31.116  43.294  55.983  1.00  0.00     0.042 A 
HETATM   17  C   UNL     1      30.498  46.050  58.194  1.00  0.00     0.202 C 
HETATM   18  C   UNL     1      29.027  46.228  57.854  1.00  0.00     0.202 C 
HETATM   19  C   UNL     1      30.733  42.904  54.697  1.00  0.00     0.032 A 
ENDBRANCH   8  10
ENDBRANCH   7   8
ENDBRANCH   5   7
BRANCH   1  20
HETATM   20  O   UNL     1      24.881  45.583  53.032  1.00  0.00    -0.349 OA
BRANCH  20  21
HETATM   21  C   UNL     1      25.762  46.023  54.074  1.00  0.00     0.171 C 
HETATM   22  C   UNL     1      25.985  47.527  54.066  1.00  0.00     0.034 C 
ENDBRANCH  20  21
ENDBRANCH   1  20
BRANCH   2  23
HETATM   23  O   UNL     1      23.836  45.005  50.503  1.00  0.00    -0.339 OA
BRANCH  23  24
HETATM   24  C   UNL     1      24.059  45.791  49.341  1.00  0.00     0.278 C 
BRANCH  24  25
HETATM   25  C   UNL     1      23.909  47.308  49.523  1.00  0.00     0.242 C 
HETATM   26  N   UNL     1      23.073  47.909  48.608  1.00  0.00    -0.351 N 
HETATM   27  H   UNL     1      22.750  47.311  47.852  1.00  0.00     0.163 HD
HETATM   28  O   UNL     1      24.507  47.905  50.414  1.00  0.00    -0.271 OA
BRANCH  26  29
HETATM   29  C   UNL     1      22.804  49.348  48.501  1.00  0.00     0.022 C 
HETATM   30  C   UNL     1      24.058  50.087  48.015  1.00  0.00     0.037 C 
HETATM   31  C   UNL     1      21.681  49.543  47.467  1.00  0.00     0.037 C 
HETATM   32  C   UNL     1      22.329  49.935  49.840  1.00  0.00     0.037 C 
ENDBRANCH  26  29
ENDBRANCH  24  25
ENDBRANCH  23  24
ENDBRANCH   2  23
TORSDOF 9
ENDMDL
MODEL 7
REMARK VINA RESULT:      -7.9      2.854     10.367
REMARK  9 active torsions:
REMARK  status: ('A' for Active; 'I' for Inactive)
REMARK    1  A    between atoms: C_2  and  O_3 
REMARK    2  A    between atoms: O_3  and  C_4 
REMARK    3  A    between atoms: C_5  and  O_6 
REMARK    4  A    between atoms: O_6  and  C_7 
REMARK    5  A    between atoms: C_7  and  C_8 
REMARK       I    between atoms: C_8  and  N_9 
REMARK    6  A    between atoms: N_9  and  C_10 
REMARK    7  A    between atoms: C_17  and  C_18 
REMARK    8  A    between atoms: C_18  and  N_19 
REMARK    9  A    between atoms: N_19  and  C_20 
ROOT
HETATM    1  C   UNL     1      24.984  45.665  51.089  1.00  0.00     0.102 A 
HETATM    2  C   UNL     1      24.188  44.636  50.561  1.00  0.00     0.102 A 
HETATM    3  C   UNL     1      23.290  44.943  49.534  1.00  0.00     0.040 A 
HETATM    4  C   UNL     1      23.166  46.255  49.066  1.00  0.00     0.012 A 
HETATM    5  C   UNL     1      23.929  47.291  49.622  1.00  0.00    -0.038 A 
HETATM    6  C   UNL     1      24.834  46.983  50.642  1.00  0.00     0.048 A 
ENDROOT
BRANCH   5   7
HETATM    7  C   UNL     1      23.744  48.717  49.151  1.00  0.00     0.158 C 
BRANCH   7   8
HETATM    8  N   UNL     1      22.547  49.268  49.773  1.00  0.00    -0.386 N 
HETATM    9  H   UNL     1      22.762  49.861  50.570  1.00  0.00     0.160 HD
BRANCH   8  10
HETATM   10  C   UNL     1      21.526  49.799  48.982  1.00  0.00     0.031 A 
HETATM   11  C   UNL     1      20.720  49.033  48.132  1.00  0.00     0.068 A 
HETATM   12  C   UNL     1      19.660  49.615  47.429  1.00  0.00     0.104 A 
HETATM   13  C   UNL     1      19.388  50.977  47.566  1.00  0.00     0.102 A 
HETATM   14  O   UNL     1      18.931  48.782  46.616  1.00  0.00    -0.346 OA
HETATM   15  O   UNL     1      18.385  51.618  46.884  1.00  0.00    -0.346 OA
HETATM   16  C   UNL     1      20.139  51.742  48.446  1.00  0.00     0.042 A 
HETATM   17  C   UNL     1      17.907  50.825  45.793  1.00  0.00     0.202 C 
HETATM   18  C   UNL     1      17.691  49.385  46.230  1.00  0.00     0.202 C 
HETATM   19  C   UNL     1      21.190  51.153  49.155  1.00  0.00     0.032 A 
ENDBRANCH   8  10
ENDBRANCH   7   8
ENDBRANCH   5   7
BRANCH   1  20
HETATM   20  O   UNL     1      25.874  45.506  52.122  1.00  0.00    -0.349 OA
BRANCH  20  21
HETATM   21  C   UNL     1      25.527  46.169  53.344  1.00  0.00     0.171 C 
HETATM   22  C   UNL     1      26.722  46.812  54.031  1.00  0.00     0.034 C 
ENDBRANCH  20  21
ENDBRANCH   1  20
BRANCH   2  23
HETATM   23  O   UNL     1      24.299  43.407  51.154  1.00  0.00    -0.339 OA
BRANCH  23  24
HETATM   24  C   UNL     1      25.064  42.390  50.524  1.00  0.00     0.278 C 
BRANCH  24  25
HETATM   25  C   UNL     1      26.477  42.173  51.086  1.00  0.00     0.242 C 
HETATM   26  N   UNL     1      26.654  42.643  52.369  1.00  0.00    -0.351 N 
HETATM   27  H   UNL     1      25.879  43.180  52.749  1.00  0.00     0.163 HD
HETATM   28  O   UNL     1      27.353  41.633  50.418  1.00  0.00    -0.271 OA
BRANCH  26  29
HETATM   29  C   UNL     1      27.913  42.635  53.123  1.00  0.00     0.022 C 
HETATM   30  C   UNL     1      28.970  43.482  52.400  1.00  0.00     0.037 C 
HETATM   31  C   UNL     1      27.640  43.257  54.505  1.00  0.00     0.037 C 
HETATM   32  C   UNL     1      28.435  41.206  53.337  1.00  0.00     0.037 C 
ENDBRANCH  26  29
ENDBRANCH  24  25
ENDBRANCH  23  24
ENDBRANCH   2  23
TORSDOF 9
ENDMDL
MODEL 8
REMARK VINA RESULT:      -7.8      2.552     10.498
REMARK  9 active torsions:
REMARK  status: ('A' for Active; 'I' for Inactive)
REMARK    1  A    between atoms: C_2  and  O_3 
REMARK    2  A    between atoms: O_3  and  C_4 
REMARK    3  A    between atoms: C_5  and  O_6 
REMARK    4  A    between atoms: O_6  and  C_7 
REMARK    5  A    between atoms: C_7  and  C_8 
REMARK       I    between atoms: C_8  and  N_9 
REMARK    6  A    between atoms: N_9  and  C_10 
REMARK    7  A    between atoms: C_17  and  C_18 
REMARK    8  A    between atoms: C_18  and  N_19 
REMARK    9  A    between atoms: N_19  and  C_20 
ROOT
HETATM    1  C   UNL     1      25.023  47.326  49.747  1.00  0.00     0.102 A 
HETATM    2  C   UNL     1      25.167  45.930  49.753  1.00  0.00     0.102 A 
HETATM    3  C   UNL     1      24.125  45.146  49.251  1.00  0.00     0.040 A 
HETATM    4  C   UNL     1      22.949  45.742  48.781  1.00  0.00     0.012 A 
HETATM    5  C   UNL     1      22.786  47.132  48.814  1.00  0.00    -0.038 A 
HETATM    6  C   UNL     1      23.832  47.917  49.308  1.00  0.00     0.048 A 
ENDROOT
BRANCH   5   7
HETATM    7  C   UNL     1      21.488  47.763  48.361  1.00  0.00     0.158 C 
BRANCH   7   8
HETATM    8  N   UNL     1      20.767  48.251  49.529  1.00  0.00    -0.386 N 
HETATM    9  H   UNL     1      21.359  48.314  50.353  1.00  0.00     0.160 HD
BRANCH   8  10
HETATM   10  C   UNL     1      19.905  49.345  49.416  1.00  0.00     0.031 A 
HETATM   11  C   UNL     1      18.574  49.248  48.995  1.00  0.00     0.068 A 
HETATM   12  C   UNL     1      17.740  50.371  48.982  1.00  0.00     0.104 A 
HETATM   13  C   UNL     1      18.226  51.613  49.394  1.00  0.00     0.102 A 
HETATM   14  O   UNL     1      16.452  50.176  48.547  1.00  0.00    -0.346 OA
HETATM   15  O   UNL     1      17.474  52.760  49.379  1.00  0.00    -0.346 OA
HETATM   16  C   UNL     1      19.526  51.719  49.868  1.00  0.00     0.042 A 
HETATM   17  C   UNL     1      16.295  52.599  48.584  1.00  0.00     0.202 C 
HETATM   18  C   UNL     1      15.611  51.279  48.900  1.00  0.00     0.202 C 
HETATM   19  C   UNL     1      20.351  50.591  49.889  1.00  0.00     0.032 A 
ENDBRANCH   8  10
ENDBRANCH   7   8
ENDBRANCH   5   7
BRANCH   1  20
HETATM   20  O   UNL     1      25.951  48.206  50.245  1.00  0.00    -0.349 OA
BRANCH  20  21
HETATM   21  C   UNL     1      27.062  48.486  49.385  1.00  0.00     0.171 C 
HETATM   22  C   UNL     1      26.900  49.783  48.609  1.00  0.00     0.034 C 
ENDBRANCH  20  21
ENDBRANCH   1  20
BRANCH   2  23
HETATM   23  O   UNL     1      26.304  45.432  50.331  1.00  0.00    -0.339 OA
BRANCH  23  24
HETATM   24  C   UNL     1      26.793  44.158  49.936  1.00  0.00     0.278 C 
BRANCH  24  25
HETATM   25  C   UNL     1      27.489  43.342  51.035  1.00  0.00     0.242 C 
HETATM   26  N   UNL     1      27.805  44.064  52.164  1.00  0.00    -0.351 N 
HETATM   27  H   UNL     1      27.654  45.068  52.098  1.00  0.00     0.163 HD
HETATM   28  O   UNL     1      27.737  42.150  50.882  1.00  0.00    -0.271 OA
BRANCH  26  29
HETATM   29  C   UNL     1      28.534  43.561  53.334  1.00  0.00     0.022 C 
HETATM   30  C   UNL     1      28.737  44.686  54.357  1.00  0.00     0.037 C 
HETATM   31  C   UNL     1      27.684  42.450  53.978  1.00  0.00     0.037 C 
HETATM   32  C   UNL     1      29.889  42.955  52.936  1.00  0.00     0.037 C 
ENDBRANCH  26  29
ENDBRANCH  24  25
ENDBRANCH  23  24
ENDBRANCH   2  23
TORSDOF 9
ENDMDL
MODEL 9
REMARK VINA RESULT:      -7.6      1.862      2.906
REMARK  9 active torsions:
REMARK  status: ('A' for Active; 'I' for Inactive)
REMARK    1  A    between atoms: C_2  and  O_3 
REMARK    2  A    between atoms: O_3  and  C_4 
REMARK    3  A    between atoms: C_5  and  O_6 
REMARK    4  A    between atoms: O_6  and  C_7 
REMARK    5  A    between atoms: C_7  and  C_8 
REMARK       I    between atoms: C_8  and  N_9 
REMARK    6  A    between atoms: N_9  and  C_10 
REMARK    7  A    between atoms: C_17  and  C_18 
REMARK    8  A    between atoms: C_18  and  N_19 
REMARK    9  A    between atoms: N_19  and  C_20 
ROOT
HETATM    1  C   UNL     1      24.959  43.613  49.351  1.00  0.00     0.102 A 
HETATM    2  C   UNL     1      25.527  44.897  49.353  1.00  0.00     0.102 A 
HETATM    3  C   UNL     1      26.758  45.084  49.988  1.00  0.00     0.040 A 
HETATM    4  C   UNL     1      27.395  44.019  50.635  1.00  0.00     0.012 A 
HETATM    5  C   UNL     1      26.809  42.747  50.671  1.00  0.00    -0.038 A 
HETATM    6  C   UNL     1      25.581  42.558  50.029  1.00  0.00     0.048 A 
ENDROOT
BRANCH   5   7
HETATM    7  C   UNL     1      27.474  41.618  51.425  1.00  0.00     0.158 C 
BRANCH   7   8
HETATM    8  N   UNL     1      27.237  41.797  52.851  1.00  0.00    -0.386 N 
HETATM    9  H   UNL     1      27.049  40.918  53.327  1.00  0.00     0.160 HD
BRANCH   8  10
HETATM   10  C   UNL     1      28.067  42.633  53.602  1.00  0.00     0.031 A 
HETATM   11  C   UNL     1      27.610  43.744  54.319  1.00  0.00     0.068 A 
HETATM   12  C   UNL     1      28.481  44.493  55.117  1.00  0.00     0.104 A 
HETATM   13  C   UNL     1      29.828  44.140  55.212  1.00  0.00     0.102 A 
HETATM   14  O   UNL     1      27.938  45.568  55.778  1.00  0.00    -0.346 OA
HETATM   15  O   UNL     1      30.742  44.845  55.951  1.00  0.00    -0.346 OA
HETATM   16  C   UNL     1      30.289  43.009  54.554  1.00  0.00     0.042 A 
HETATM   17  C   UNL     1      30.240  46.138  56.306  1.00  0.00     0.202 C 
HETATM   18  C   UNL     1      28.810  46.038  56.812  1.00  0.00     0.202 C 
HETATM   19  C   UNL     1      29.412  42.258  53.766  1.00  0.00     0.032 A 
ENDBRANCH   8  10
ENDBRANCH   7   8
ENDBRANCH   5   7
BRANCH   1  20
HETATM   20  O   UNL     1      23.741  43.303  48.800  1.00  0.00    -0.349 OA
BRANCH  20  21
HETATM   21  C   UNL     1      23.313  41.946  48.971  1.00  0.00     0.171 C 
HETATM   22  C   UNL     1      22.990  41.256  47.655  1.00  0.00     0.034 C 
ENDBRANCH  20  21
ENDBRANCH   1  20
BRANCH   2  23
HETATM   23  O   UNL     1      24.782  45.899  48.791  1.00  0.00    -0.339 OA
BRANCH  23  24
HETATM   24  C   UNL     1      23.865  46.627  49.596  1.00  0.00     0.278 C 
BRANCH  24  25
HETATM   25  C   UNL     1      22.954  47.608  48.845  1.00  0.00     0.242 C 
HETATM   26  N   UNL     1      22.559  48.698  49.589  1.00  0.00    -0.351 N 
HETATM   27  H   UNL     1      22.812  48.670  50.574  1.00  0.00     0.163 HD
HETATM   28  O   UNL     1      22.616  47.403  47.683  1.00  0.00    -0.271 OA
BRANCH  26  29
HETATM   29  C   UNL     1      21.635  49.751  49.153  1.00  0.00     0.022 C 
HETATM   30  C   UNL     1      21.566  50.866  50.206  1.00  0.00     0.037 C 
HETATM   31  C   UNL     1      22.179  50.342  47.840  1.00  0.00     0.037 C 
HETATM   32  C   UNL     1      20.230  49.192  48.879  1.00  0.00     0.037 C 
ENDBRANCH  26  29
ENDBRANCH  24  25
ENDBRANCH  23  24
ENDBRANCH   2  23
TORSDOF 9
ENDMDL
MODEL 10
REMARK VINA RESULT:      -7.5      5.458      9.694
REMARK  9 active torsions:
REMARK  status: ('A' for Active; 'I' for Inactive)
REMARK    1  A    between atoms: C_2  and  O_3 
REMARK    2  A    between atoms: O_3  and  C_4 
REMARK    3  A    between atoms: C_5  and  O_6 
REMARK    4  A    between atoms: O_6  and  C_7 
REMARK    5  A    between atoms: C_7  and  C_8 
REMARK       I    between atoms: C_8  and  N_9 
REMARK    6  A    between atoms: N_9  and  C_10 
REMARK    7  A    between atoms: C_17  and  C_18 
REMARK    8  A    between atoms: C_18  and  N_19 
REMARK    9  A    between atoms: N_19  and  C_20 
ROOT
HETATM    1  C   UNL     1      17.703  51.199  47.645  1.00  0.00     0.102 A 
HETATM    2  C   UNL     1      17.589  51.861  48.878  1.00  0.00     0.102 A 
HETATM    3  C   UNL     1      18.408  51.454  49.935  1.00  0.00     0.040 A 
HETATM    4  C   UNL     1      19.299  50.388  49.775  1.00  0.00     0.012 A 
HETATM    5  C   UNL     1      19.383  49.697  48.559  1.00  0.00    -0.038 A 
HETATM    6  C   UNL     1      18.571  50.110  47.499  1.00  0.00     0.048 A 
ENDROOT
BRANCH   5   7
HETATM    7  C   UNL     1      20.305  48.507  48.415  1.00  0.00     0.158 C 
BRANCH   7   8
HETATM    8  N   UNL     1      21.312  48.559  49.466  1.00  0.00    -0.386 N 
HETATM    9  H   UNL     1      21.284  47.742  50.070  1.00  0.00     0.160 HD
BRANCH   8  10
HETATM   10  C   UNL     1      22.620  48.949  49.168  1.00  0.00     0.031 A 
HETATM   11  C   UNL     1      23.757  48.306  49.668  1.00  0.00     0.068 A 
HETATM   12  C   UNL     1      25.039  48.695  49.266  1.00  0.00     0.104 A 
HETATM   13  C   UNL     1      25.203  49.737  48.351  1.00  0.00     0.102 A 
HETATM   14  O   UNL     1      26.092  48.007  49.816  1.00  0.00    -0.346 OA
HETATM   15  O   UNL     1      26.429  50.190  47.936  1.00  0.00    -0.346 OA
HETATM   16  C   UNL     1      24.086  50.350  47.801  1.00  0.00     0.042 A 
HETATM   17  C   UNL     1      27.475  49.721  48.793  1.00  0.00     0.202 C 
HETATM   18  C   UNL     1      27.304  48.241  49.090  1.00  0.00     0.202 C 
HETATM   19  C   UNL     1      22.808  49.949  48.199  1.00  0.00     0.032 A 
ENDBRANCH   8  10
ENDBRANCH   7   8
ENDBRANCH   5   7
BRANCH   1  20
HETATM   20  O   UNL     1      16.933  51.473  46.542  1.00  0.00    -0.349 OA
BRANCH  20  21
HETATM   21  C   UNL     1      16.847  50.422  45.572  1.00  0.00     0.171 C 
HETATM   22  C   UNL     1      17.209  50.880  44.167  1.00  0.00     0.034 C 
ENDBRANCH  20  21
ENDBRANCH   1  20
BRANCH   2  23
HETATM   23  O   UNL     1      16.615  52.819  48.973  1.00  0.00    -0.339 OA
BRANCH  23  24
HETATM   24  C   UNL     1      15.306  52.449  49.383  1.00  0.00     0.278 C 
BRANCH  24  25
HETATM   25  C   UNL     1      14.592  53.443  50.310  1.00  0.00     0.242 C 
HETATM   26  N   UNL     1      15.031  54.744  50.192  1.00  0.00    -0.351 N 
HETATM   27  H   UNL     1      15.848  54.878  49.601  1.00  0.00     0.163 HD
HETATM   28  O   UNL     1      13.716  53.074  51.087  1.00  0.00    -0.271 OA
BRANCH  26  29
HETATM   29  C   UNL     1      14.580  55.882  51.000  1.00  0.00     0.022 C 
HETATM   30  C   UNL     1      13.062  56.064  50.861  1.00  0.00     0.037 C 
HETATM   31  C   UNL     1      14.911  55.576  52.472  1.00  0.00     0.037 C 
HETATM   32  C   UNL     1      15.307  57.178  50.606  1.00  0.00     0.037 C 
ENDBRANCH  26  29
ENDBRANCH  24  25
ENDBRANCH  23  24
ENDBRANCH   2  23
TORSDOF 9
ENDMDL
