MODEL 1
REMARK VINA RESULT:      -9.1      0.000      0.000
REMARK  11 active torsions:
REMARK  status: ('A' for Active; 'I' for Inactive)
REMARK    1  A    between atoms: N_13  and  C_14 
REMARK    2  A    between atoms: C_14  and  C_15 
REMARK    3  A    between atoms: N_20  and  C_21 
REMARK    4  A    between atoms: C_21  and  C_22 
REMARK    5  A    between atoms: C_22  and  O_23 
REMARK    6  A    between atoms: C_22  and  C_24 
REMARK    7  A    between atoms: C_24  and  N_25 
REMARK    8  A    between atoms: N_25  and  C_27 
REMARK    9  A    between atoms: N_25  and  C_34 
REMARK   10  A    between atoms: C_27  and  C_28 
REMARK   11  A    between atoms: C_34  and  C_35 
ROOT
HETATM    1  C   UNL     1      30.570  43.318  55.438  1.00  0.00     0.163 C 
HETATM    2  N   UNL     1      29.485  44.115  54.887  1.00  0.00    -0.285 N 
HETATM    3  C   UNL     1      29.117  45.320  55.489  1.00  0.00     0.332 A 
HETATM    4  O   UNL     1      29.683  45.740  56.501  1.00  0.00    -0.246 OA
HETATM    5  N   UNL     1      28.066  46.041  54.884  1.00  0.00    -0.269 N 
HETATM    6  C   UNL     1      27.664  47.298  55.489  1.00  0.00     0.164 C 
HETATM    7  C   UNL     1      27.371  45.650  53.739  1.00  0.00     0.282 A 
HETATM    8  O   UNL     1      26.476  46.306  53.211  1.00  0.00    -0.265 OA
HETATM    9  C   UNL     1      27.812  44.411  53.204  1.00  0.00     0.166 A 
HETATM   10  C   UNL     1      28.818  43.688  53.765  1.00  0.00     0.186 A 
HETATM   11  N   UNL     1      29.065  42.548  53.070  1.00  0.00    -0.044 NA
HETATM   12  C   UNL     1      28.201  42.547  52.079  1.00  0.00     0.705 A 
HETATM   13  N   UNL     1      28.061  41.605  51.130  1.00  0.00    -0.218 N 
HETATM   14  N   UNL     1      27.435  43.698  52.094  1.00  0.00    -0.170 N 
HETATM   15  H   UNL     1      27.202  41.488  50.601  1.00  0.00     0.178 HD
ENDROOT
BRANCH  14  16
HETATM   16  C   UNL     1      26.482  44.129  51.080  1.00  0.00     0.181 C 
BRANCH  16  17
HETATM   17  C   UNL     1      25.058  43.629  51.366  1.00  0.00     0.163 C 
BRANCH  17  18
HETATM   18  O   UNL     1      24.786  43.675  52.775  1.00  0.00    -0.392 OA
HETATM   19  H   UNL     1      24.600  42.777  53.115  1.00  0.00     0.210 HD
ENDBRANCH  17  18
BRANCH  17  20
HETATM   20  C   UNL     1      23.949  44.490  50.717  1.00  0.00     0.268 C 
BRANCH  20  21
HETATM   21  N   UNL     1      24.375  45.539  49.711  1.00  0.00    -0.061 N 
HETATM   22  H   UNL     1      25.383  45.436  49.563  1.00  0.00     0.280 HD
BRANCH  21  23
HETATM   23  C   UNL     1      23.734  45.430  48.338  1.00  0.00     0.273 C 
BRANCH  23  24
HETATM   24  C   UNL     1      22.286  45.829  48.238  1.00  0.00    -0.033 A 
HETATM   25  C   UNL     1      21.920  47.064  47.678  1.00  0.00     0.009 A 
HETATM   26  C   UNL     1      20.577  47.440  47.602  1.00  0.00     0.001 A 
HETATM   27  C   UNL     1      19.586  46.586  48.074  1.00  0.00     0.000 A 
HETATM   28  C   UNL     1      19.931  45.350  48.611  1.00  0.00     0.001 A 
HETATM   29  C   UNL     1      21.272  44.970  48.689  1.00  0.00     0.009 A 
ENDBRANCH  23  24
ENDBRANCH  21  23
BRANCH  21  30
HETATM   30  C   UNL     1      24.217  46.945  50.277  1.00  0.00     0.273 C 
BRANCH  30  31
HETATM   31  C   UNL     1      25.138  47.959  49.652  1.00  0.00    -0.033 A 
HETATM   32  C   UNL     1      24.635  49.005  48.862  1.00  0.00     0.009 A 
HETATM   33  C   UNL     1      25.506  49.921  48.270  1.00  0.00     0.001 A 
HETATM   34  C   UNL     1      26.881  49.806  48.461  1.00  0.00     0.000 A 
HETATM   35  C   UNL     1      27.391  48.778  49.249  1.00  0.00     0.001 A 
HETATM   36  C   UNL     1      26.526  47.860  49.843  1.00  0.00     0.009 A 
ENDBRANCH  30  31
ENDBRANCH  21  30
ENDBRANCH  20  21
ENDBRANCH  17  20
ENDBRANCH  16  17
ENDBRANCH  14  16
BRANCH  13  37
HETATM   37  C   UNL     1      28.689  40.302  51.354  1.00  0.00     0.203 C 
BRANCH  37  38
HETATM   38  C   UNL     1      28.683  39.426  50.141  1.00  0.00     0.070 A 
HETATM   39  O   UNL     1      28.449  40.032  48.935  1.00  0.00    -0.325 OA
HETATM   40  C   UNL     1      28.471  39.055  47.991  1.00  0.00     0.142 A 
HETATM   41  C   UNL     1      28.707  37.831  48.570  1.00  0.00     0.027 A 
HETATM   42  C   UNL     1      28.844  38.068  49.959  1.00  0.00     0.036 A 
ENDBRANCH  37  38
ENDBRANCH  13  37
TORSDOF 11
ENDMDL
MODEL 2
REMARK VINA RESULT:      -9.1      2.626      8.280
REMARK  11 active torsions:
REMARK  status: ('A' for Active; 'I' for Inactive)
REMARK    1  A    between atoms: N_13  and  C_14 
REMARK    2  A    between atoms: C_14  and  C_15 
REMARK    3  A    between atoms: N_20  and  C_21 
REMARK    4  A    between atoms: C_21  and  C_22 
REMARK    5  A    between atoms: C_22  and  O_23 
REMARK    6  A    between atoms: C_22  and  C_24 
REMARK    7  A    between atoms: C_24  and  N_25 
REMARK    8  A    between atoms: N_25  and  C_27 
REMARK    9  A    between atoms: N_25  and  C_34 
REMARK   10  A    between atoms: C_27  and  C_28 
REMARK   11  A    between atoms: C_34  and  C_35 
ROOT
HETATM    1  C   UNL     1      21.179  47.331  47.800  1.00  0.00     0.163 C 
HETATM    2  N   UNL     1      22.515  47.588  48.315  1.00  0.00    -0.285 N 
HETATM    3  C   UNL     1      23.121  48.831  48.116  1.00  0.00     0.332 A 
HETATM    4  O   UNL     1      22.558  49.737  47.497  1.00  0.00    -0.246 OA
HETATM    5  N   UNL     1      24.411  49.006  48.661  1.00  0.00    -0.269 N 
HETATM    6  C   UNL     1      25.063  50.288  48.471  1.00  0.00     0.164 C 
HETATM    7  C   UNL     1      25.123  48.044  49.379  1.00  0.00     0.282 A 
HETATM    8  O   UNL     1      26.236  48.226  49.869  1.00  0.00    -0.265 OA
HETATM    9  C   UNL     1      24.428  46.815  49.522  1.00  0.00     0.166 A 
HETATM   10  C   UNL     1      23.187  46.610  49.006  1.00  0.00     0.186 A 
HETATM   11  N   UNL     1      22.727  45.363  49.281  1.00  0.00    -0.044 NA
HETATM   12  C   UNL     1      23.689  44.776  49.959  1.00  0.00     0.705 A 
HETATM   13  N   UNL     1      23.690  43.520  50.438  1.00  0.00    -0.218 N 
HETATM   14  N   UNL     1      24.742  45.647  50.171  1.00  0.00    -0.170 N 
HETATM   15  H   UNL     1      24.547  43.022  50.660  1.00  0.00     0.178 HD
ENDROOT
BRANCH  14  16
HETATM   16  C   UNL     1      25.915  45.416  51.003  1.00  0.00     0.181 C 
BRANCH  16  17
HETATM   17  C   UNL     1      27.041  44.700  50.242  1.00  0.00     0.163 C 
BRANCH  17  18
HETATM   18  O   UNL     1      27.638  45.587  49.284  1.00  0.00    -0.392 OA
HETATM   19  H   UNL     1      28.562  45.322  49.104  1.00  0.00     0.210 HD
ENDBRANCH  17  18
BRANCH  17  20
HETATM   20  C   UNL     1      28.211  44.237  51.141  1.00  0.00     0.268 C 
BRANCH  20  21
HETATM   21  N   UNL     1      28.103  42.869  51.782  1.00  0.00    -0.061 N 
HETATM   22  H   UNL     1      29.032  42.439  51.751  1.00  0.00     0.280 HD
BRANCH  21  23
HETATM   23  C   UNL     1      27.683  42.860  53.242  1.00  0.00     0.273 C 
BRANCH  23  24
HETATM   24  C   UNL     1      28.632  43.501  54.219  1.00  0.00    -0.033 A 
HETATM   25  C   UNL     1      29.838  42.870  54.565  1.00  0.00     0.009 A 
HETATM   26  C   UNL     1      30.710  43.458  55.484  1.00  0.00     0.001 A 
HETATM   27  C   UNL     1      30.393  44.684  56.060  1.00  0.00     0.000 A 
HETATM   28  C   UNL     1      29.213  45.332  55.711  1.00  0.00     0.001 A 
HETATM   29  C   UNL     1      28.339  44.748  54.792  1.00  0.00     0.009 A 
ENDBRANCH  23  24
ENDBRANCH  21  23
BRANCH  21  30
HETATM   30  C   UNL     1      27.226  41.938  50.956  1.00  0.00     0.273 C 
BRANCH  30  31
HETATM   31  C   UNL     1      27.955  40.738  50.413  1.00  0.00    -0.033 A 
HETATM   32  C   UNL     1      28.721  39.914  51.253  1.00  0.00     0.009 A 
HETATM   33  C   UNL     1      29.410  38.820  50.727  1.00  0.00     0.001 A 
HETATM   34  C   UNL     1      29.342  38.537  49.365  1.00  0.00     0.000 A 
HETATM   35  C   UNL     1      28.581  39.342  48.523  1.00  0.00     0.001 A 
HETATM   36  C   UNL     1      27.889  40.436  49.042  1.00  0.00     0.009 A 
ENDBRANCH  30  31
ENDBRANCH  21  30
ENDBRANCH  20  21
ENDBRANCH  17  20
ENDBRANCH  16  17
ENDBRANCH  14  16
BRANCH  13  37
HETATM   37  C   UNL     1      22.690  42.585  49.922  1.00  0.00     0.203 C 
BRANCH  37  38
HETATM   38  C   UNL     1      23.197  41.734  48.801  1.00  0.00     0.070 A 
HETATM   39  O   UNL     1      22.268  41.030  48.082  1.00  0.00    -0.325 OA
HETATM   40  C   UNL     1      22.947  40.324  47.141  1.00  0.00     0.142 A 
HETATM   41  C   UNL     1      24.298  40.555  47.248  1.00  0.00     0.027 A 
HETATM   42  C   UNL     1      24.462  41.466  48.319  1.00  0.00     0.036 A 
ENDBRANCH  37  38
ENDBRANCH  13  37
TORSDOF 11
ENDMDL
MODEL 3
REMARK VINA RESULT:      -8.9      2.531      7.762
REMARK  11 active torsions:
REMARK  status: ('A' for Active; 'I' for Inactive)
REMARK    1  A    between atoms: N_13  and  C_14 
REMARK    2  A    between atoms: C_14  and  C_15 
REMARK    3  A    between atoms: N_20  and  C_21 
REMARK    4  A    between atoms: C_21  and  C_22 
REMARK    5  A    between atoms: C_22  and  O_23 
REMARK    6  A    between atoms: C_22  and  C_24 
REMARK    7  A    between atoms: C_24  and  N_25 
REMARK    8  A    between atoms: N_25  and  C_27 
REMARK    9  A    between atoms: N_25  and  C_34 
REMARK   10  A    between atoms: C_27  and  C_28 
REMARK   11  A    between atoms: C_34  and  C_35 
ROOT
HETATM    1  C   UNL     1      22.061  48.258  47.695  1.00  0.00     0.163 C 
HETATM    2  N   UNL     1      23.384  48.281  48.299  1.00  0.00    -0.285 N 
HETATM    3  C   UNL     1      24.226  49.379  48.114  1.00  0.00     0.332 A 
HETATM    4  O   UNL     1      23.887  50.350  47.432  1.00  0.00    -0.246 OA
HETATM    5  N   UNL     1      25.486  49.332  48.747  1.00  0.00    -0.269 N 
HETATM    6  C   UNL     1      26.381  50.461  48.572  1.00  0.00     0.164 C 
HETATM    7  C   UNL     1      25.954  48.283  49.539  1.00  0.00     0.282 A 
HETATM    8  O   UNL     1      27.045  48.272  50.105  1.00  0.00    -0.265 OA
HETATM    9  C   UNL     1      25.031  47.211  49.663  1.00  0.00     0.166 A 
HETATM   10  C   UNL     1      23.811  47.222  49.062  1.00  0.00     0.186 A 
HETATM   11  N   UNL     1      23.106  46.095  49.335  1.00  0.00    -0.044 NA
HETATM   12  C   UNL     1      23.892  45.365  50.096  1.00  0.00     0.705 A 
HETATM   13  N   UNL     1      23.623  44.151  50.606  1.00  0.00    -0.218 N 
HETATM   14  N   UNL     1      25.074  46.031  50.362  1.00  0.00    -0.170 N 
HETATM   15  H   UNL     1      24.353  43.510  50.903  1.00  0.00     0.178 HD
ENDROOT
BRANCH  14  16
HETATM   16  C   UNL     1      26.123  45.618  51.284  1.00  0.00     0.181 C 
BRANCH  16  17
HETATM   17  C   UNL     1      27.097  44.614  50.649  1.00  0.00     0.163 C 
BRANCH  17  18
HETATM   18  O   UNL     1      27.901  45.261  49.650  1.00  0.00    -0.392 OA
HETATM   19  H   UNL     1      27.573  46.167  49.484  1.00  0.00     0.210 HD
ENDBRANCH  17  18
BRANCH  17  20
HETATM   20  C   UNL     1      28.112  44.007  51.646  1.00  0.00     0.268 C 
BRANCH  20  21
HETATM   21  N   UNL     1      27.743  42.699  52.312  1.00  0.00    -0.061 N 
HETATM   22  H   UNL     1      26.855  42.385  51.910  1.00  0.00     0.280 HD
BRANCH  21  23
HETATM   23  C   UNL     1      28.725  41.558  52.106  1.00  0.00     0.273 C 
BRANCH  23  24
HETATM   24  C   UNL     1      28.293  40.460  51.171  1.00  0.00    -0.033 A 
HETATM   25  C   UNL     1      29.181  39.434  50.810  1.00  0.00     0.009 A 
HETATM   26  C   UNL     1      28.783  38.427  49.929  1.00  0.00     0.001 A 
HETATM   27  C   UNL     1      27.494  38.425  49.407  1.00  0.00     0.000 A 
HETATM   28  C   UNL     1      26.595  39.422  49.772  1.00  0.00     0.001 A 
HETATM   29  C   UNL     1      26.989  40.431  50.653  1.00  0.00     0.009 A 
ENDBRANCH  23  24
ENDBRANCH  21  23
BRANCH  21  30
HETATM   30  C   UNL     1      27.440  42.897  53.792  1.00  0.00     0.273 C 
BRANCH  30  31
HETATM   31  C   UNL     1      28.513  43.645  54.538  1.00  0.00    -0.033 A 
HETATM   32  C   UNL     1      29.744  43.041  54.836  1.00  0.00     0.009 A 
HETATM   33  C   UNL     1      30.717  43.742  55.550  1.00  0.00     0.001 A 
HETATM   34  C   UNL     1      30.474  45.047  55.971  1.00  0.00     0.000 A 
HETATM   35  C   UNL     1      29.260  45.660  55.676  1.00  0.00     0.001 A 
HETATM   36  C   UNL     1      28.284  44.965  54.961  1.00  0.00     0.009 A 
ENDBRANCH  30  31
ENDBRANCH  21  30
ENDBRANCH  20  21
ENDBRANCH  17  20
ENDBRANCH  16  17
ENDBRANCH  14  16
BRANCH  13  37
HETATM   37  C   UNL     1      22.501  43.400  50.043  1.00  0.00     0.203 C 
BRANCH  37  38
HETATM   38  C   UNL     1      22.919  42.379  49.032  1.00  0.00     0.070 A 
HETATM   39  O   UNL     1      21.986  42.002  48.102  1.00  0.00    -0.325 OA
HETATM   40  C   UNL     1      22.573  41.067  47.311  1.00  0.00     0.142 A 
HETATM   41  C   UNL     1      23.863  40.828  47.721  1.00  0.00     0.027 A 
HETATM   42  C   UNL     1      24.089  41.675  48.832  1.00  0.00     0.036 A 
ENDBRANCH  37  38
ENDBRANCH  13  37
TORSDOF 11
ENDMDL
MODEL 4
REMARK VINA RESULT:      -8.8      2.701      6.707
REMARK  11 active torsions:
REMARK  status: ('A' for Active; 'I' for Inactive)
REMARK    1  A    between atoms: N_13  and  C_14 
REMARK    2  A    between atoms: C_14  and  C_15 
REMARK    3  A    between atoms: N_20  and  C_21 
REMARK    4  A    between atoms: C_21  and  C_22 
REMARK    5  A    between atoms: C_22  and  O_23 
REMARK    6  A    between atoms: C_22  and  C_24 
REMARK    7  A    between atoms: C_24  and  N_25 
REMARK    8  A    between atoms: N_25  and  C_27 
REMARK    9  A    between atoms: N_25  and  C_34 
REMARK   10  A    between atoms: C_27  and  C_28 
REMARK   11  A    between atoms: C_34  and  C_35 
ROOT
HETATM    1  C   UNL     1      23.509  43.283  44.257  1.00  0.00     0.163 C 
HETATM    2  N   UNL     1      23.143  43.830  45.554  1.00  0.00    -0.285 N 
HETATM    3  C   UNL     1      22.442  45.035  45.640  1.00  0.00     0.332 A 
HETATM    4  O   UNL     1      22.121  45.673  44.635  1.00  0.00    -0.246 OA
HETATM    5  N   UNL     1      22.110  45.489  46.934  1.00  0.00    -0.269 N 
HETATM    6  C   UNL     1      21.380  46.738  47.053  1.00  0.00     0.164 C 
HETATM    7  C   UNL     1      22.423  44.834  48.126  1.00  0.00     0.282 A 
HETATM    8  O   UNL     1      22.102  45.233  49.244  1.00  0.00    -0.265 OA
HETATM    9  C   UNL     1      23.141  43.624  47.936  1.00  0.00     0.166 A 
HETATM   10  C   UNL     1      23.481  43.160  46.704  1.00  0.00     0.186 A 
HETATM   11  N   UNL     1      24.153  41.983  46.778  1.00  0.00    -0.044 NA
HETATM   12  C   UNL     1      24.250  41.714  48.062  1.00  0.00     0.705 A 
HETATM   13  N   UNL     1      24.849  40.649  48.621  1.00  0.00    -0.218 N 
HETATM   14  N   UNL     1      23.602  42.676  48.815  1.00  0.00    -0.170 N 
HETATM   15  H   UNL     1      25.173  40.649  49.584  1.00  0.00     0.178 HD
ENDROOT
BRANCH  14  16
HETATM   16  C   UNL     1      23.361  42.647  50.251  1.00  0.00     0.181 C 
BRANCH  16  17
HETATM   17  C   UNL     1      24.571  43.144  51.057  1.00  0.00     0.163 C 
BRANCH  17  18
HETATM   18  O   UNL     1      25.539  42.094  51.203  1.00  0.00    -0.392 OA
HETATM   19  H   UNL     1      26.408  42.382  50.859  1.00  0.00     0.210 HD
ENDBRANCH  17  18
BRANCH  17  20
HETATM   20  C   UNL     1      25.339  44.305  50.384  1.00  0.00     0.268 C 
BRANCH  20  21
HETATM   21  N   UNL     1      25.471  45.600  51.157  1.00  0.00    -0.061 N 
HETATM   22  H   UNL     1      26.449  45.897  51.099  1.00  0.00     0.280 HD
BRANCH  21  23
HETATM   23  C   UNL     1      24.646  46.764  50.634  1.00  0.00     0.273 C 
BRANCH  23  24
HETATM   24  C   UNL     1      25.391  47.829  49.876  1.00  0.00    -0.033 A 
HETATM   25  C   UNL     1      24.700  48.780  49.108  1.00  0.00     0.009 A 
HETATM   26  C   UNL     1      25.394  49.756  48.392  1.00  0.00     0.001 A 
HETATM   27  C   UNL     1      26.783  49.802  48.441  1.00  0.00     0.000 A 
HETATM   28  C   UNL     1      27.482  48.881  49.215  1.00  0.00     0.001 A 
HETATM   29  C   UNL     1      26.791  47.903  49.933  1.00  0.00     0.009 A 
ENDBRANCH  23  24
ENDBRANCH  21  23
BRANCH  21  30
HETATM   30  C   UNL     1      25.228  45.384  52.645  1.00  0.00     0.273 C 
BRANCH  30  31
HETATM   31  C   UNL     1      26.366  45.838  53.520  1.00  0.00    -0.033 A 
HETATM   32  C   UNL     1      26.486  47.180  53.914  1.00  0.00     0.009 A 
HETATM   33  C   UNL     1      27.562  47.587  54.704  1.00  0.00     0.001 A 
HETATM   34  C   UNL     1      28.523  46.665  55.111  1.00  0.00     0.000 A 
HETATM   35  C   UNL     1      28.411  45.330  54.734  1.00  0.00     0.001 A 
HETATM   36  C   UNL     1      27.338  44.916  53.944  1.00  0.00     0.009 A 
ENDBRANCH  30  31
ENDBRANCH  21  30
ENDBRANCH  20  21
ENDBRANCH  17  20
ENDBRANCH  16  17
ENDBRANCH  14  16
BRANCH  13  37
HETATM   37  C   UNL     1      25.754  39.852  47.792  1.00  0.00     0.203 C 
BRANCH  37  38
HETATM   38  C   UNL     1      26.742  39.058  48.587  1.00  0.00     0.070 A 
HETATM   39  O   UNL     1      27.898  39.693  48.959  1.00  0.00    -0.325 OA
HETATM   40  C   UNL     1      28.642  38.788  49.646  1.00  0.00     0.142 A 
HETATM   41  C   UNL     1      27.989  37.580  49.716  1.00  0.00     0.027 A 
HETATM   42  C   UNL     1      26.762  37.753  49.033  1.00  0.00     0.036 A 
ENDBRANCH  37  38
ENDBRANCH  13  37
TORSDOF 11
ENDMDL
MODEL 5
REMARK VINA RESULT:      -8.8      3.126      9.226
REMARK  11 active torsions:
REMARK  status: ('A' for Active; 'I' for Inactive)
REMARK    1  A    between atoms: N_13  and  C_14 
REMARK    2  A    between atoms: C_14  and  C_15 
REMARK    3  A    between atoms: N_20  and  C_21 
REMARK    4  A    between atoms: C_21  and  C_22 
REMARK    5  A    between atoms: C_22  and  O_23 
REMARK    6  A    between atoms: C_22  and  C_24 
REMARK    7  A    between atoms: C_24  and  N_25 
REMARK    8  A    between atoms: N_25  and  C_27 
REMARK    9  A    between atoms: N_25  and  C_34 
REMARK   10  A    between atoms: C_27  and  C_28 
REMARK   11  A    between atoms: C_34  and  C_35 
ROOT
HETATM    1  C   UNL     1      19.312  48.936  48.127  1.00  0.00     0.163 C 
HETATM    2  N   UNL     1      19.497  47.527  47.820  1.00  0.00    -0.285 N 
HETATM    3  C   UNL     1      18.451  46.778  47.278  1.00  0.00     0.332 A 
HETATM    4  O   UNL     1      17.345  47.275  47.053  1.00  0.00    -0.246 OA
HETATM    5  N   UNL     1      18.716  45.422  46.994  1.00  0.00    -0.269 N 
HETATM    6  C   UNL     1      17.646  44.621  46.428  1.00  0.00     0.164 C 
HETATM    7  C   UNL     1      19.933  44.773  47.208  1.00  0.00     0.282 A 
HETATM    8  O   UNL     1      20.153  43.597  46.928  1.00  0.00    -0.265 OA
HETATM    9  C   UNL     1      20.932  45.614  47.767  1.00  0.00     0.166 A 
HETATM   10  C   UNL     1      20.708  46.923  48.058  1.00  0.00     0.186 A 
HETATM   11  N   UNL     1      21.813  47.520  48.572  1.00  0.00    -0.044 NA
HETATM   12  C   UNL     1      22.730  46.578  48.620  1.00  0.00     0.705 A 
HETATM   13  N   UNL     1      23.991  46.700  49.073  1.00  0.00    -0.218 N 
HETATM   14  N   UNL     1      22.246  45.395  48.093  1.00  0.00    -0.170 N 
HETATM   15  H   UNL     1      24.537  45.902  49.383  1.00  0.00     0.178 HD
ENDROOT
BRANCH  14  16
HETATM   16  C   UNL     1      23.004  44.178  47.835  1.00  0.00     0.181 C 
BRANCH  16  17
HETATM   17  C   UNL     1      23.125  43.289  49.083  1.00  0.00     0.163 C 
BRANCH  17  18
HETATM   18  O   UNL     1      22.254  42.153  48.973  1.00  0.00    -0.392 OA
HETATM   19  H   UNL     1      22.657  41.372  49.402  1.00  0.00     0.210 HD
ENDBRANCH  17  18
BRANCH  17  20
HETATM   20  C   UNL     1      24.535  42.692  49.293  1.00  0.00     0.268 C 
BRANCH  20  21
HETATM   21  N   UNL     1      25.298  43.116  50.531  1.00  0.00    -0.061 N 
HETATM   22  H   UNL     1      25.196  42.372  51.227  1.00  0.00     0.280 HD
BRANCH  21  23
HETATM   23  C   UNL     1      26.792  43.317  50.345  1.00  0.00     0.273 C 
BRANCH  23  24
HETATM   24  C   UNL     1      27.679  42.839  51.463  1.00  0.00    -0.033 A 
HETATM   25  C   UNL     1      27.481  41.578  52.047  1.00  0.00     0.009 A 
HETATM   26  C   UNL     1      28.294  41.144  53.096  1.00  0.00     0.001 A 
HETATM   27  C   UNL     1      29.319  41.959  53.567  1.00  0.00     0.000 A 
HETATM   28  C   UNL     1      29.542  43.202  52.984  1.00  0.00     0.001 A 
HETATM   29  C   UNL     1      28.732  43.639  51.935  1.00  0.00     0.009 A 
ENDBRANCH  23  24
ENDBRANCH  21  23
BRANCH  21  30
HETATM   30  C   UNL     1      24.660  44.335  51.184  1.00  0.00     0.273 C 
BRANCH  30  31
HETATM   31  C   UNL     1      25.379  44.810  52.419  1.00  0.00    -0.033 A 
HETATM   32  C   UNL     1      25.424  44.021  53.580  1.00  0.00     0.009 A 
HETATM   33  C   UNL     1      26.073  44.489  54.723  1.00  0.00     0.001 A 
HETATM   34  C   UNL     1      26.684  45.741  54.721  1.00  0.00     0.000 A 
HETATM   35  C   UNL     1      26.653  46.529  53.574  1.00  0.00     0.001 A 
HETATM   36  C   UNL     1      26.006  46.067  52.428  1.00  0.00     0.009 A 
ENDBRANCH  30  31
ENDBRANCH  21  30
ENDBRANCH  20  21
ENDBRANCH  17  20
ENDBRANCH  16  17
ENDBRANCH  14  16
BRANCH  13  37
HETATM   37  C   UNL     1      24.324  47.876  49.876  1.00  0.00     0.203 C 
BRANCH  37  38
HETATM   38  C   UNL     1      25.485  48.651  49.338  1.00  0.00     0.070 A 
HETATM   39  O   UNL     1      26.736  48.258  49.735  1.00  0.00    -0.325 OA
HETATM   40  C   UNL     1      27.622  49.103  49.146  1.00  0.00     0.142 A 
HETATM   41  C   UNL     1      26.962  50.038  48.384  1.00  0.00     0.027 A 
HETATM   42  C   UNL     1      25.582  49.748  48.506  1.00  0.00     0.036 A 
ENDBRANCH  37  38
ENDBRANCH  13  37
TORSDOF 11
ENDMDL
MODEL 6
REMARK VINA RESULT:      -8.8      3.456      9.259
REMARK  11 active torsions:
REMARK  status: ('A' for Active; 'I' for Inactive)
REMARK    1  A    between atoms: N_13  and  C_14 
REMARK    2  A    between atoms: C_14  and  C_15 
REMARK    3  A    between atoms: N_20  and  C_21 
REMARK    4  A    between atoms: C_21  and  C_22 
REMARK    5  A    between atoms: C_22  and  O_23 
REMARK    6  A    between atoms: C_22  and  C_24 
REMARK    7  A    between atoms: C_24  and  N_25 
REMARK    8  A    between atoms: N_25  and  C_27 
REMARK    9  A    between atoms: N_25  and  C_34 
REMARK   10  A    between atoms: C_27  and  C_28 
REMARK   11  A    between atoms: C_34  and  C_35 
ROOT
HETATM    1  C   UNL     1      19.240  51.488  48.770  1.00  0.00     0.163 C 
HETATM    2  N   UNL     1      19.127  50.040  48.688  1.00  0.00    -0.285 N 
HETATM    3  C   UNL     1      17.880  49.421  48.795  1.00  0.00     0.332 A 
HETATM    4  O   UNL     1      16.846  50.070  48.970  1.00  0.00    -0.246 OA
HETATM    5  N   UNL     1      17.854  48.014  48.688  1.00  0.00    -0.269 N 
HETATM    6  C   UNL     1      16.571  47.345  48.794  1.00  0.00     0.164 C 
HETATM    7  C   UNL     1      18.968  47.198  48.485  1.00  0.00     0.282 A 
HETATM    8  O   UNL     1      18.921  45.975  48.367  1.00  0.00    -0.265 OA
HETATM    9  C   UNL     1      20.188  47.917  48.396  1.00  0.00     0.166 A 
HETATM   10  C   UNL     1      20.250  49.272  48.499  1.00  0.00     0.186 A 
HETATM   11  N   UNL     1      21.521  49.729  48.372  1.00  0.00    -0.044 NA
HETATM   12  C   UNL     1      22.265  48.656  48.204  1.00  0.00     0.705 A 
HETATM   13  N   UNL     1      23.599  48.614  48.046  1.00  0.00    -0.218 N 
HETATM   14  N   UNL     1      21.481  47.518  48.168  1.00  0.00    -0.170 N 
HETATM   15  H   UNL     1      24.145  47.780  48.241  1.00  0.00     0.178 HD
ENDROOT
BRANCH  14  16
HETATM   16  C   UNL     1      21.918  46.165  47.850  1.00  0.00     0.181 C 
BRANCH  16  17
HETATM   17  C   UNL     1      22.435  45.412  49.085  1.00  0.00     0.163 C 
BRANCH  17  18
HETATM   18  O   UNL     1      21.522  44.367  49.452  1.00  0.00    -0.392 OA
HETATM   19  H   UNL     1      20.756  44.738  49.934  1.00  0.00     0.210 HD
ENDBRANCH  17  18
BRANCH  17  20
HETATM   20  C   UNL     1      23.789  44.698  48.863  1.00  0.00     0.268 C 
BRANCH  20  21
HETATM   21  N   UNL     1      24.758  44.655  50.026  1.00  0.00    -0.061 N 
HETATM   22  H   UNL     1      24.508  43.850  50.607  1.00  0.00     0.280 HD
BRANCH  21  23
HETATM   23  C   UNL     1      26.220  44.470  49.656  1.00  0.00     0.273 C 
BRANCH  23  24
HETATM   24  C   UNL     1      26.927  43.296  50.277  1.00  0.00    -0.033 A 
HETATM   25  C   UNL     1      27.775  43.472  51.383  1.00  0.00     0.009 A 
HETATM   26  C   UNL     1      28.443  42.383  51.946  1.00  0.00     0.001 A 
HETATM   27  C   UNL     1      28.266  41.107  51.422  1.00  0.00     0.000 A 
HETATM   28  C   UNL     1      27.412  40.913  50.341  1.00  0.00     0.001 A 
HETATM   29  C   UNL     1      26.741  41.999  49.775  1.00  0.00     0.009 A 
ENDBRANCH  23  24
ENDBRANCH  21  23
BRANCH  21  30
HETATM   30  C   UNL     1      24.574  45.857  50.944  1.00  0.00     0.273 C 
BRANCH  30  31
HETATM   31  C   UNL     1      25.288  45.729  52.264  1.00  0.00    -0.033 A 
HETATM   32  C   UNL     1      26.233  46.685  52.672  1.00  0.00     0.009 A 
HETATM   33  C   UNL     1      26.903  46.536  53.887  1.00  0.00     0.001 A 
HETATM   34  C   UNL     1      26.638  45.440  54.705  1.00  0.00     0.000 A 
HETATM   35  C   UNL     1      25.699  44.490  54.315  1.00  0.00     0.001 A 
HETATM   36  C   UNL     1      25.025  44.633  53.102  1.00  0.00     0.009 A 
ENDBRANCH  30  31
ENDBRANCH  21  30
ENDBRANCH  20  21
ENDBRANCH  17  20
ENDBRANCH  16  17
ENDBRANCH  14  16
BRANCH  13  37
HETATM   37  C   UNL     1      24.372  49.807  48.393  1.00  0.00     0.203 C 
BRANCH  37  38
HETATM   38  C   UNL     1      25.801  49.512  48.724  1.00  0.00     0.070 A 
HETATM   39  O   UNL     1      26.063  48.318  49.345  1.00  0.00    -0.325 OA
HETATM   40  C   UNL     1      27.403  48.273  49.562  1.00  0.00     0.142 A 
HETATM   41  C   UNL     1      28.006  49.419  49.101  1.00  0.00     0.027 A 
HETATM   42  C   UNL     1      26.973  50.220  48.559  1.00  0.00     0.036 A 
ENDBRANCH  37  38
ENDBRANCH  13  37
TORSDOF 11
ENDMDL
MODEL 7
REMARK VINA RESULT:      -8.6      2.451      6.539
REMARK  11 active torsions:
REMARK  status: ('A' for Active; 'I' for Inactive)
REMARK    1  A    between atoms: N_13  and  C_14 
REMARK    2  A    between atoms: C_14  and  C_15 
REMARK    3  A    between atoms: N_20  and  C_21 
REMARK    4  A    between atoms: C_21  and  C_22 
REMARK    5  A    between atoms: C_22  and  O_23 
REMARK    6  A    between atoms: C_22  and  C_24 
REMARK    7  A    between atoms: C_24  and  N_25 
REMARK    8  A    between atoms: N_25  and  C_27 
REMARK    9  A    between atoms: N_25  and  C_34 
REMARK   10  A    between atoms: C_27  and  C_28 
REMARK   11  A    between atoms: C_34  and  C_35 
ROOT
HETATM    1  C   UNL     1      28.316  46.797  57.479  1.00  0.00     0.163 C 
HETATM    2  N   UNL     1      29.051  45.768  56.760  1.00  0.00    -0.285 N 
HETATM    3  C   UNL     1      30.187  45.186  57.325  1.00  0.00     0.332 A 
HETATM    4  O   UNL     1      30.609  45.526  58.434  1.00  0.00    -0.246 OA
HETATM    5  N   UNL     1      30.833  44.183  56.571  1.00  0.00    -0.269 N 
HETATM    6  C   UNL     1      32.016  43.560  57.136  1.00  0.00     0.164 C 
HETATM    7  C   UNL     1      30.429  43.729  55.315  1.00  0.00     0.282 A 
HETATM    8  O   UNL     1      30.990  42.835  54.685  1.00  0.00    -0.265 OA
HETATM    9  C   UNL     1      29.270  44.385  54.822  1.00  0.00     0.166 A 
HETATM   10  C   UNL     1      28.626  45.358  55.520  1.00  0.00     0.186 A 
HETATM   11  N   UNL     1      27.542  45.825  54.850  1.00  0.00    -0.044 NA
HETATM   12  C   UNL     1      27.514  45.154  53.718  1.00  0.00     0.705 A 
HETATM   13  N   UNL     1      26.619  45.285  52.723  1.00  0.00    -0.218 N 
HETATM   14  N   UNL     1      28.535  44.223  53.675  1.00  0.00    -0.170 N 
HETATM   15  H   UNL     1      26.818  44.993  51.771  1.00  0.00     0.178 HD
ENDROOT
BRANCH  14  16
HETATM   16  C   UNL     1      28.741  43.196  52.662  1.00  0.00     0.181 C 
BRANCH  16  17
HETATM   17  C   UNL     1      28.523  41.779  53.214  1.00  0.00     0.163 C 
BRANCH  17  18
HETATM   18  O   UNL     1      27.154  41.601  53.607  1.00  0.00    -0.392 OA
HETATM   19  H   UNL     1      26.977  40.662  53.813  1.00  0.00     0.210 HD
ENDBRANCH  17  18
BRANCH  17  20
HETATM   20  C   UNL     1      28.791  40.656  52.185  1.00  0.00     0.268 C 
BRANCH  20  21
HETATM   21  N   UNL     1      28.230  40.836  50.790  1.00  0.00    -0.061 N 
HETATM   22  H   UNL     1      28.421  41.799  50.500  1.00  0.00     0.280 HD
BRANCH  21  23
HETATM   23  C   UNL     1      28.838  39.946  49.719  1.00  0.00     0.273 C 
BRANCH  23  24
HETATM   24  C   UNL     1      28.136  39.921  48.388  1.00  0.00    -0.033 A 
HETATM   25  C   UNL     1      27.228  38.896  48.075  1.00  0.00     0.009 A 
HETATM   26  C   UNL     1      26.591  38.865  46.833  1.00  0.00     0.001 A 
HETATM   27  C   UNL     1      26.844  39.859  45.894  1.00  0.00     0.000 A 
HETATM   28  C   UNL     1      27.724  40.893  46.197  1.00  0.00     0.001 A 
HETATM   29  C   UNL     1      28.363  40.928  47.438  1.00  0.00     0.009 A 
ENDBRANCH  23  24
ENDBRANCH  21  23
BRANCH  21  30
HETATM   30  C   UNL     1      26.711  40.733  50.787  1.00  0.00     0.273 C 
BRANCH  30  31
HETATM   31  C   UNL     1      26.016  41.997  50.354  1.00  0.00    -0.033 A 
HETATM   32  C   UNL     1      24.638  42.174  50.560  1.00  0.00     0.009 A 
HETATM   33  C   UNL     1      24.007  43.342  50.129  1.00  0.00     0.001 A 
HETATM   34  C   UNL     1      24.740  44.342  49.494  1.00  0.00     0.000 A 
HETATM   35  C   UNL     1      26.108  44.182  49.292  1.00  0.00     0.001 A 
HETATM   36  C   UNL     1      26.744  43.018  49.720  1.00  0.00     0.009 A 
ENDBRANCH  30  31
ENDBRANCH  21  30
ENDBRANCH  20  21
ENDBRANCH  17  20
ENDBRANCH  16  17
ENDBRANCH  14  16
BRANCH  13  37
HETATM   37  C   UNL     1      25.769  46.475  52.713  1.00  0.00     0.203 C 
BRANCH  37  38
HETATM   38  C   UNL     1      25.779  47.199  51.404  1.00  0.00     0.070 A 
HETATM   39  O   UNL     1      24.564  47.532  50.865  1.00  0.00    -0.325 OA
HETATM   40  C   UNL     1      24.813  48.156  49.685  1.00  0.00     0.142 A 
HETATM   41  C   UNL     1      26.165  48.223  49.450  1.00  0.00     0.027 A 
HETATM   42  C   UNL     1      26.792  47.606  50.559  1.00  0.00     0.036 A 
ENDBRANCH  37  38
ENDBRANCH  13  37
TORSDOF 11
ENDMDL
MODEL 8
REMARK VINA RESULT:      -8.6      2.317      5.854
REMARK  11 active torsions:
REMARK  status: ('A' for Active; 'I' for Inactive)
REMARK    1  A    between atoms: N_13  and  C_14 
REMARK    2  A    between atoms: C_14  and  C_15 
REMARK    3  A    between atoms: N_20  and  C_21 
REMARK    4  A    between atoms: C_21  and  C_22 
REMARK    5  A    between atoms: C_22  and  O_23 
REMARK    6  A    between atoms: C_22  and  C_24 
REMARK    7  A    between atoms: C_24  and  N_25 
REMARK    8  A    between atoms: N_25  and  C_27 
REMARK    9  A    between atoms: N_25  and  C_34 
REMARK   10  A    between atoms: C_27  and  C_28 
REMARK   11  A    between atoms: C_34  and  C_35 
ROOT
HETATM    1  C   UNL     1      28.543  39.146  49.675  1.00  0.00     0.163 C 
HETATM    2  N   UNL     1      27.333  39.813  49.220  1.00  0.00    -0.285 N 
HETATM    3  C   UNL     1      26.613  39.307  48.136  1.00  0.00     0.332 A 
HETATM    4  O   UNL     1      26.977  38.298  47.528  1.00  0.00    -0.246 OA
HETATM    5  N   UNL     1      25.441  40.002  47.768  1.00  0.00    -0.269 N 
HETATM    6  C   UNL     1      24.673  39.497  46.645  1.00  0.00     0.164 C 
HETATM    7  C   UNL     1      24.948  41.146  48.397  1.00  0.00     0.282 A 
HETATM    8  O   UNL     1      23.910  41.721  48.078  1.00  0.00    -0.265 OA
HETATM    9  C   UNL     1      25.751  41.586  49.481  1.00  0.00     0.166 A 
HETATM   10  C   UNL     1      26.888  40.944  49.860  1.00  0.00     0.186 A 
HETATM   11  N   UNL     1      27.475  41.546  50.925  1.00  0.00    -0.044 NA
HETATM   12  C   UNL     1      26.714  42.580  51.207  1.00  0.00     0.705 A 
HETATM   13  N   UNL     1      26.906  43.483  52.185  1.00  0.00    -0.218 N 
HETATM   14  N   UNL     1      25.613  42.622  50.371  1.00  0.00    -0.170 N 
HETATM   15  H   UNL     1      26.492  44.410  52.159  1.00  0.00     0.178 HD
ENDROOT
BRANCH  14  16
HETATM   16  C   UNL     1      24.472  43.522  50.470  1.00  0.00     0.181 C 
BRANCH  16  17
HETATM   17  C   UNL     1      24.713  44.854  49.742  1.00  0.00     0.163 C 
BRANCH  17  18
HETATM   18  O   UNL     1      25.839  44.742  48.858  1.00  0.00    -0.392 OA
HETATM   19  H   UNL     1      26.667  44.654  49.370  1.00  0.00     0.210 HD
ENDBRANCH  17  18
BRANCH  17  20
HETATM   20  C   UNL     1      23.539  45.297  48.840  1.00  0.00     0.268 C 
BRANCH  20  21
HETATM   21  N   UNL     1      23.197  46.772  48.807  1.00  0.00    -0.061 N 
HETATM   22  H   UNL     1      23.585  47.161  47.943  1.00  0.00     0.280 HD
BRANCH  21  23
HETATM   23  C   UNL     1      21.714  47.102  48.790  1.00  0.00     0.273 C 
BRANCH  23  24
HETATM   24  C   UNL     1      21.351  48.561  48.727  1.00  0.00    -0.033 A 
HETATM   25  C   UNL     1      21.879  49.389  47.724  1.00  0.00     0.009 A 
HETATM   26  C   UNL     1      21.554  50.746  47.678  1.00  0.00     0.001 A 
HETATM   27  C   UNL     1      20.693  51.290  48.626  1.00  0.00     0.000 A 
HETATM   28  C   UNL     1      20.145  50.478  49.613  1.00  0.00     0.001 A 
HETATM   29  C   UNL     1      20.466  49.121  49.662  1.00  0.00     0.009 A 
ENDBRANCH  23  24
ENDBRANCH  21  23
BRANCH  21  30
HETATM   30  C   UNL     1      23.912  47.530  49.918  1.00  0.00     0.273 C 
BRANCH  30  31
HETATM   31  C   UNL     1      25.107  48.316  49.448  1.00  0.00    -0.033 A 
HETATM   32  C   UNL     1      26.405  47.979  49.864  1.00  0.00     0.009 A 
HETATM   33  C   UNL     1      27.498  48.735  49.437  1.00  0.00     0.001 A 
HETATM   34  C   UNL     1      27.310  49.827  48.593  1.00  0.00     0.000 A 
HETATM   35  C   UNL     1      26.029  50.166  48.168  1.00  0.00     0.001 A 
HETATM   36  C   UNL     1      24.933  49.415  48.590  1.00  0.00     0.009 A 
ENDBRANCH  30  31
ENDBRANCH  21  30
ENDBRANCH  20  21
ENDBRANCH  17  20
ENDBRANCH  16  17
ENDBRANCH  14  16
BRANCH  13  37
HETATM   37  C   UNL     1      28.225  43.543  52.817  1.00  0.00     0.203 C 
BRANCH  37  38
HETATM   38  C   UNL     1      28.304  44.544  53.927  1.00  0.00     0.070 A 
HETATM   39  O   UNL     1      27.409  45.581  53.896  1.00  0.00    -0.325 OA
HETATM   40  C   UNL     1      27.674  46.363  54.975  1.00  0.00     0.142 A 
HETATM   41  C   UNL     1      28.728  45.852  55.694  1.00  0.00     0.027 A 
HETATM   42  C   UNL     1      29.136  44.676  55.019  1.00  0.00     0.036 A 
ENDBRANCH  37  38
ENDBRANCH  13  37
TORSDOF 11
ENDMDL
MODEL 9
REMARK VINA RESULT:      -8.5      2.533      9.253
REMARK  11 active torsions:
REMARK  status: ('A' for Active; 'I' for Inactive)
REMARK    1  A    between atoms: N_13  and  C_14 
REMARK    2  A    between atoms: C_14  and  C_15 
REMARK    3  A    between atoms: N_20  and  C_21 
REMARK    4  A    between atoms: C_21  and  C_22 
REMARK    5  A    between atoms: C_22  and  O_23 
REMARK    6  A    between atoms: C_22  and  C_24 
REMARK    7  A    between atoms: C_24  and  N_25 
REMARK    8  A    between atoms: N_25  and  C_27 
REMARK    9  A    between atoms: N_25  and  C_34 
REMARK   10  A    between atoms: C_27  and  C_28 
REMARK   11  A    between atoms: C_34  and  C_35 
ROOT
HETATM    1  C   UNL     1      21.187  44.797  46.976  1.00  0.00     0.163 C 
HETATM    2  N   UNL     1      22.058  43.698  47.361  1.00  0.00    -0.285 N 
HETATM    3  C   UNL     1      21.749  42.388  46.990  1.00  0.00     0.332 A 
HETATM    4  O   UNL     1      20.736  42.119  46.340  1.00  0.00    -0.246 OA
HETATM    5  N   UNL     1      22.654  41.381  47.388  1.00  0.00    -0.269 N 
HETATM    6  C   UNL     1      22.357  40.010  47.013  1.00  0.00     0.164 C 
HETATM    7  C   UNL     1      23.825  41.588  48.117  1.00  0.00     0.282 A 
HETATM    8  O   UNL     1      24.615  40.700  48.431  1.00  0.00    -0.265 OA
HETATM    9  C   UNL     1      24.050  42.950  48.452  1.00  0.00     0.166 A 
HETATM   10  C   UNL     1      23.196  43.944  48.089  1.00  0.00     0.186 A 
HETATM   11  N   UNL     1      23.628  45.158  48.515  1.00  0.00    -0.044 NA
HETATM   12  C   UNL     1      24.749  44.924  49.163  1.00  0.00     0.705 A 
HETATM   13  N   UNL     1      25.533  45.829  49.774  1.00  0.00    -0.218 N 
HETATM   14  N   UNL     1      25.073  43.581  49.114  1.00  0.00    -0.170 N 
HETATM   15  H   UNL     1      26.186  45.576  50.510  1.00  0.00     0.178 HD
ENDROOT
BRANCH  14  16
HETATM   16  C   UNL     1      26.306  42.960  49.579  1.00  0.00     0.181 C 
BRANCH  16  17
HETATM   17  C   UNL     1      26.227  42.539  51.054  1.00  0.00     0.163 C 
BRANCH  17  18
HETATM   18  O   UNL     1      24.865  42.554  51.506  1.00  0.00    -0.392 OA
HETATM   19  H   UNL     1      24.293  42.067  50.881  1.00  0.00     0.210 HD
ENDBRANCH  17  18
BRANCH  17  20
HETATM   20  C   UNL     1      26.720  41.097  51.322  1.00  0.00     0.268 C 
BRANCH  20  21
HETATM   21  N   UNL     1      28.162  40.918  51.749  1.00  0.00    -0.061 N 
HETATM   22  H   UNL     1      28.696  41.709  51.379  1.00  0.00     0.280 HD
BRANCH  21  23
HETATM   23  C   UNL     1      28.406  40.910  53.249  1.00  0.00     0.273 C 
BRANCH  23  24
HETATM   24  C   UNL     1      28.655  42.245  53.896  1.00  0.00    -0.033 A 
HETATM   25  C   UNL     1      27.588  43.110  54.190  1.00  0.00     0.009 A 
HETATM   26  C   UNL     1      27.824  44.356  54.775  1.00  0.00     0.001 A 
HETATM   27  C   UNL     1      29.122  44.749  55.082  1.00  0.00     0.000 A 
HETATM   28  C   UNL     1      30.187  43.894  54.817  1.00  0.00     0.001 A 
HETATM   29  C   UNL     1      29.957  42.647  54.233  1.00  0.00     0.009 A 
ENDBRANCH  23  24
ENDBRANCH  21  23
BRANCH  21  30
HETATM   30  C   UNL     1      28.787  39.696  51.088  1.00  0.00     0.273 C 
BRANCH  30  31
HETATM   31  C   UNL     1      28.305  39.452  49.682  1.00  0.00    -0.033 A 
HETATM   32  C   UNL     1      27.533  38.322  49.367  1.00  0.00     0.009 A 
HETATM   33  C   UNL     1      27.117  38.100  48.053  1.00  0.00     0.001 A 
HETATM   34  C   UNL     1      27.463  38.997  47.045  1.00  0.00     0.000 A 
HETATM   35  C   UNL     1      28.222  40.124  47.347  1.00  0.00     0.001 A 
HETATM   36  C   UNL     1      28.640  40.353  48.658  1.00  0.00     0.009 A 
ENDBRANCH  30  31
ENDBRANCH  21  30
ENDBRANCH  20  21
ENDBRANCH  17  20
ENDBRANCH  16  17
ENDBRANCH  14  16
BRANCH  13  37
HETATM   37  C   UNL     1      24.978  47.157  50.037  1.00  0.00     0.203 C 
BRANCH  37  38
HETATM   38  C   UNL     1      25.780  48.265  49.429  1.00  0.00     0.070 A 
HETATM   39  O   UNL     1      27.136  48.231  49.621  1.00  0.00    -0.325 OA
HETATM   40  C   UNL     1      27.649  49.328  49.007  1.00  0.00     0.142 A 
HETATM   41  C   UNL     1      26.647  50.071  48.430  1.00  0.00     0.027 A 
HETATM   42  C   UNL     1      25.438  49.386  48.701  1.00  0.00     0.036 A 
ENDBRANCH  37  38
ENDBRANCH  13  37
TORSDOF 11
ENDMDL
MODEL 10
REMARK VINA RESULT:      -8.5      2.618      8.207
REMARK  11 active torsions:
REMARK  status: ('A' for Active; 'I' for Inactive)
REMARK    1  A    between atoms: N_13  and  C_14 
REMARK    2  A    between atoms: C_14  and  C_15 
REMARK    3  A    between atoms: N_20  and  C_21 
REMARK    4  A    between atoms: C_21  and  C_22 
REMARK    5  A    between atoms: C_22  and  O_23 
REMARK    6  A    between atoms: C_22  and  C_24 
REMARK    7  A    between atoms: C_24  and  N_25 
REMARK    8  A    between atoms: N_25  and  C_27 
REMARK    9  A    between atoms: N_25  and  C_34 
REMARK   10  A    between atoms: C_27  and  C_28 
REMARK   11  A    between atoms: C_34  and  C_35 
ROOT
HETATM    1  C   UNL     1      24.733  39.070  45.738  1.00  0.00     0.163 C 
HETATM    2  N   UNL     1      25.326  39.286  47.049  1.00  0.00    -0.285 N 
HETATM    3  C   UNL     1      26.146  38.312  47.622  1.00  0.00     0.332 A 
HETATM    4  O   UNL     1      26.385  37.246  47.051  1.00  0.00    -0.246 OA
HETATM    5  N   UNL     1      26.695  38.605  48.888  1.00  0.00    -0.269 N 
HETATM    6  C   UNL     1      27.553  37.610  49.507  1.00  0.00     0.164 C 
HETATM    7  C   UNL     1      26.487  39.782  49.608  1.00  0.00     0.282 A 
HETATM    8  O   UNL     1      26.997  40.030  50.699  1.00  0.00    -0.265 OA
HETATM    9  C   UNL     1      25.636  40.706  48.947  1.00  0.00     0.166 A 
HETATM   10  C   UNL     1      25.086  40.454  47.729  1.00  0.00     0.186 A 
HETATM   11  N   UNL     1      24.320  41.489  47.300  1.00  0.00    -0.044 NA
HETATM   12  C   UNL     1      24.375  42.388  48.258  1.00  0.00     0.705 A 
HETATM   13  N   UNL     1      23.758  43.582  48.283  1.00  0.00    -0.218 N 
HETATM   14  N   UNL     1      25.210  41.969  49.277  1.00  0.00    -0.170 N 
HETATM   15  H   UNL     1      23.571  44.082  49.147  1.00  0.00     0.178 HD
ENDROOT
BRANCH  14  16
HETATM   16  C   UNL     1      25.644  42.746  50.430  1.00  0.00     0.181 C 
BRANCH  16  17
HETATM   17  C   UNL     1      26.990  43.447  50.190  1.00  0.00     0.163 C 
BRANCH  17  18
HETATM   18  O   UNL     1      26.849  44.471  49.195  1.00  0.00    -0.392 OA
HETATM   19  H   UNL     1      26.741  45.346  49.618  1.00  0.00     0.210 HD
ENDBRANCH  17  18
BRANCH  17  20
HETATM   20  C   UNL     1      27.549  44.174  51.435  1.00  0.00     0.268 C 
BRANCH  20  21
HETATM   21  N   UNL     1      26.560  44.609  52.496  1.00  0.00    -0.061 N 
HETATM   22  H   UNL     1      25.624  44.352  52.171  1.00  0.00     0.280 HD
BRANCH  21  23
HETATM   23  C   UNL     1      26.728  43.955  53.857  1.00  0.00     0.273 C 
BRANCH  23  24
HETATM   24  C   UNL     1      28.094  44.044  54.482  1.00  0.00    -0.033 A 
HETATM   25  C   UNL     1      29.024  43.003  54.325  1.00  0.00     0.009 A 
HETATM   26  C   UNL     1      30.284  43.080  54.920  1.00  0.00     0.001 A 
HETATM   27  C   UNL     1      30.635  44.198  55.669  1.00  0.00     0.000 A 
HETATM   28  C   UNL     1      29.734  45.247  55.815  1.00  0.00     0.001 A 
HETATM   29  C   UNL     1      28.472  45.175  55.221  1.00  0.00     0.009 A 
ENDBRANCH  23  24
ENDBRANCH  21  23
BRANCH  21  30
HETATM   30  C   UNL     1      26.515  46.126  52.622  1.00  0.00     0.273 C 
BRANCH  30  31
HETATM   31  C   UNL     1      25.923  46.819  51.423  1.00  0.00    -0.033 A 
HETATM   32  C   UNL     1      24.616  46.535  50.994  1.00  0.00     0.009 A 
HETATM   33  C   UNL     1      24.093  47.168  49.866  1.00  0.00     0.001 A 
HETATM   34  C   UNL     1      24.863  48.089  49.157  1.00  0.00     0.000 A 
HETATM   35  C   UNL     1      26.157  48.384  49.577  1.00  0.00     0.001 A 
HETATM   36  C   UNL     1      26.685  47.755  50.704  1.00  0.00     0.009 A 
ENDBRANCH  30  31
ENDBRANCH  21  30
ENDBRANCH  20  21
ENDBRANCH  17  20
ENDBRANCH  16  17
ENDBRANCH  14  16
BRANCH  13  37
HETATM   37  C   UNL     1      22.674  43.818  47.328  1.00  0.00     0.203 C 
BRANCH  37  38
HETATM   38  C   UNL     1      21.910  45.076  47.599  1.00  0.00     0.070 A 
HETATM   39  O   UNL     1      22.282  46.194  46.900  1.00  0.00    -0.325 OA
HETATM   40  C   UNL     1      21.476  47.205  47.315  1.00  0.00     0.142 A 
HETATM   41  C   UNL     1      20.597  46.759  48.273  1.00  0.00     0.027 A 
HETATM   42  C   UNL     1      20.876  45.384  48.458  1.00  0.00     0.036 A 
ENDBRANCH  37  38
ENDBRANCH  13  37
TORSDOF 11
ENDMDL
