MODEL 1
REMARK VINA RESULT:     -11.3      0.000      0.000
REMARK  8 active torsions:
REMARK  status: ('A' for Active; 'I' for Inactive)
REMARK    1  A    between atoms: O_2  and  C_3 
REMARK    2  A    between atoms: C_5  and  N_6 
REMARK       I    between atoms: N_6  and  C_7 
REMARK    3  A    between atoms: C_7  and  C_8 
REMARK    4  A    between atoms: C_8  and  N_9 
REMARK       I    between atoms: N_15  and  C_16 
REMARK    5  A    between atoms: C_16  and  C_17 
REMARK    6  A    between atoms: C_17  and  C_18 
REMARK    7  A    between atoms: C_18  and  C_19 
REMARK    8  A    between atoms: N_28  and  C_29 
ROOT
HETATM    1  N   UNL     1      22.746  45.964  49.193  1.00  0.00    -0.325 N 
HETATM    2  C   UNL     1      23.550  45.050  49.824  1.00  0.00     0.250 C 
HETATM    3  O   UNL     1      23.218  43.905  50.090  1.00  0.00    -0.270 OA
HETATM    4  C   UNL     1      24.893  45.739  50.143  1.00  0.00     0.118 C 
HETATM    5  C   UNL     1      26.033  44.829  49.663  1.00  0.00     0.061 C 
HETATM    6  C   UNL     1      26.291  43.662  50.612  1.00  0.00     0.129 C 
HETATM    7  N   UNL     1      26.362  44.110  52.000  1.00  0.00    -0.352 N 
HETATM    8  C   UNL     1      27.518  43.866  52.728  1.00  0.00     0.220 C 
HETATM    9  O   UNL     1      28.528  43.386  52.209  1.00  0.00    -0.273 OA
HETATM   10  C   UNL     1      25.162  44.782  52.486  1.00  0.00     0.129 C 
HETATM   11  C   UNL     1      24.881  46.033  51.656  1.00  0.00     0.061 C 
HETATM   12  N   UNL     1      24.781  46.991  49.338  1.00  0.00    -0.346 N 
HETATM   13  C   UNL     1      23.442  47.142  48.779  1.00  0.00     0.254 C 
ENDROOT
BRANCH  12  14
HETATM   14  C   UNL     1      25.721  47.994  49.175  1.00  0.00     0.032 A 
HETATM   15  C   UNL     1      25.379  49.242  48.618  1.00  0.00     0.029 A 
HETATM   16  C   UNL     1      26.313  50.273  48.433  1.00  0.00     0.002 A 
HETATM   17  C   UNL     1      27.634  50.088  48.807  1.00  0.00     0.000 A 
HETATM   18  C   UNL     1      28.014  48.874  49.359  1.00  0.00     0.002 A 
HETATM   19  C   UNL     1      27.070  47.851  49.534  1.00  0.00     0.029 A 
ENDBRANCH  12  14
BRANCH   1  20
HETATM   20  C   UNL     1      21.341  45.762  48.878  1.00  0.00     0.230 C 
BRANCH  20  21
HETATM   21  C   UNL     1      20.562  47.022  48.490  1.00  0.00     0.240 C 
HETATM   22  N   UNL     1      20.565  47.999  49.467  1.00  0.00    -0.326 N 
HETATM   23  H   UNL     1      21.008  47.749  50.345  1.00  0.00     0.169 HD
HETATM   24  O   UNL     1      20.106  47.129  47.355  1.00  0.00    -0.271 OA
BRANCH  22  25
HETATM   25  C   UNL     1      20.093  49.324  49.363  1.00  0.00     0.037 A 
HETATM   26  C   UNL     1      18.844  49.749  49.819  1.00  0.00     0.066 A 
HETATM   27  C   UNL     1      18.415  51.068  49.624  1.00  0.00     0.070 A 
HETATM   28  C   UNL     1      19.266  51.986  49.009  1.00  0.00     0.037 A 
HETATM   29  C   UNL     1      20.523  51.577  48.565  1.00  0.00     0.005 A 
HETATM   30  C   UNL     1      20.930  50.252  48.731  1.00  0.00     0.029 A 
BRANCH  27  31
HETATM   31  O   UNL     1      17.155  51.340  50.085  1.00  0.00    -0.356 OA
HETATM   32  C   UNL     1      16.726  52.693  49.999  1.00  0.00     0.210 C 
ENDBRANCH  27  31
ENDBRANCH  22  25
ENDBRANCH  20  21
ENDBRANCH   1  20
BRANCH   8  33
HETATM   33  C   UNL     1      27.518  44.146  54.217  1.00  0.00     0.107 C 
BRANCH  33  34
HETATM   34  C   UNL     1      28.502  45.268  54.534  1.00  0.00     0.047 C 
BRANCH  34  35
HETATM   35  C   UNL     1      29.521  44.855  55.566  1.00  0.00    -0.058 A 
HETATM   36  C   UNL     1      30.306  43.710  55.379  1.00  0.00     0.007 A 
HETATM   37  C   UNL     1      31.249  43.336  56.337  1.00  0.00     0.001 A 
HETATM   38  C   UNL     1      31.410  44.096  57.494  1.00  0.00     0.000 A 
HETATM   39  C   UNL     1      30.628  45.232  57.694  1.00  0.00     0.001 A 
HETATM   40  C   UNL     1      29.686  45.608  56.736  1.00  0.00     0.007 A 
ENDBRANCH  34  35
ENDBRANCH  33  34
ENDBRANCH   8  33
TORSDOF 8
ENDMDL
MODEL 2
REMARK VINA RESULT:     -11.2      1.060      1.740
REMARK  8 active torsions:
REMARK  status: ('A' for Active; 'I' for Inactive)
REMARK    1  A    between atoms: O_2  and  C_3 
REMARK    2  A    between atoms: C_5  and  N_6 
REMARK       I    between atoms: N_6  and  C_7 
REMARK    3  A    between atoms: C_7  and  C_8 
REMARK    4  A    between atoms: C_8  and  N_9 
REMARK       I    between atoms: N_15  and  C_16 
REMARK    5  A    between atoms: C_16  and  C_17 
REMARK    6  A    between atoms: C_17  and  C_18 
REMARK    7  A    between atoms: C_18  and  C_19 
REMARK    8  A    between atoms: N_28  and  C_29 
ROOT
HETATM    1  N   UNL     1      22.866  45.078  49.411  1.00  0.00    -0.325 N 
HETATM    2  C   UNL     1      23.808  44.348  50.088  1.00  0.00     0.250 C 
HETATM    3  O   UNL     1      23.675  43.177  50.411  1.00  0.00    -0.270 OA
HETATM    4  C   UNL     1      25.009  45.272  50.375  1.00  0.00     0.118 C 
HETATM    5  C   UNL     1      26.294  44.550  49.943  1.00  0.00     0.061 C 
HETATM    6  C   UNL     1      26.739  43.493  50.949  1.00  0.00     0.129 C 
HETATM    7  N   UNL     1      26.718  44.013  52.313  1.00  0.00    -0.352 N 
HETATM    8  C   UNL     1      27.891  44.008  53.055  1.00  0.00     0.220 C 
HETATM    9  O   UNL     1      28.974  43.684  52.562  1.00  0.00    -0.273 OA
HETATM   10  C   UNL     1      25.415  44.492  52.764  1.00  0.00     0.129 C 
HETATM   11  C   UNL     1      24.932  45.633  51.872  1.00  0.00     0.061 C 
HETATM   12  N   UNL     1      24.692  46.446  49.508  1.00  0.00    -0.346 N 
HETATM   13  C   UNL     1      23.353  46.337  48.940  1.00  0.00     0.254 C 
ENDROOT
BRANCH  12  14
HETATM   14  C   UNL     1      25.448  47.586  49.297  1.00  0.00     0.032 A 
HETATM   15  C   UNL     1      24.867  48.776  48.814  1.00  0.00     0.029 A 
HETATM   16  C   UNL     1      25.611  49.943  48.583  1.00  0.00     0.002 A 
HETATM   17  C   UNL     1      26.973  49.961  48.833  1.00  0.00     0.000 A 
HETATM   18  C   UNL     1      27.585  48.811  49.309  1.00  0.00     0.002 A 
HETATM   19  C   UNL     1      26.830  47.649  49.531  1.00  0.00     0.029 A 
ENDBRANCH  12  14
BRANCH   1  20
HETATM   20  C   UNL     1      21.520  44.622  49.104  1.00  0.00     0.230 C 
BRANCH  20  21
HETATM   21  C   UNL     1      20.590  45.670  48.487  1.00  0.00     0.240 C 
HETATM   22  N   UNL     1      19.887  46.406  49.421  1.00  0.00    -0.326 N 
HETATM   23  H   UNL     1      20.002  46.125  50.388  1.00  0.00     0.169 HD
HETATM   24  O   UNL     1      20.612  45.863  47.274  1.00  0.00    -0.271 OA
BRANCH  22  25
HETATM   25  C   UNL     1      19.087  47.547  49.195  1.00  0.00     0.037 A 
HETATM   26  C   UNL     1      19.508  48.857  49.428  1.00  0.00     0.066 A 
HETATM   27  C   UNL     1      18.637  49.939  49.242  1.00  0.00     0.070 A 
HETATM   28  C   UNL     1      17.345  49.709  48.770  1.00  0.00     0.037 A 
HETATM   29  C   UNL     1      16.919  48.405  48.518  1.00  0.00     0.005 A 
HETATM   30  C   UNL     1      17.781  47.330  48.739  1.00  0.00     0.029 A 
BRANCH  27  31
HETATM   31  O   UNL     1      19.166  51.165  49.543  1.00  0.00    -0.356 OA
HETATM   32  C   UNL     1      20.207  51.631  48.695  1.00  0.00     0.210 C 
ENDBRANCH  27  31
ENDBRANCH  22  25
ENDBRANCH  20  21
ENDBRANCH   1  20
BRANCH   8  33
HETATM   33  C   UNL     1      27.827  44.356  54.527  1.00  0.00     0.107 C 
BRANCH  33  34
HETATM   34  C   UNL     1      28.827  45.465  54.842  1.00  0.00     0.047 C 
BRANCH  34  35
HETATM   35  C   UNL     1      29.770  45.082  55.955  1.00  0.00    -0.058 A 
HETATM   36  C   UNL     1      29.776  45.791  57.163  1.00  0.00     0.007 A 
HETATM   37  C   UNL     1      30.650  45.429  58.189  1.00  0.00     0.001 A 
HETATM   38  C   UNL     1      31.529  44.361  58.016  1.00  0.00     0.000 A 
HETATM   39  C   UNL     1      31.537  43.655  56.813  1.00  0.00     0.001 A 
HETATM   40  C   UNL     1      30.663  44.015  55.787  1.00  0.00     0.007 A 
ENDBRANCH  34  35
ENDBRANCH  33  34
ENDBRANCH   8  33
TORSDOF 8
ENDMDL
MODEL 3
REMARK VINA RESULT:     -10.5      1.978      3.847
REMARK  8 active torsions:
REMARK  status: ('A' for Active; 'I' for Inactive)
REMARK    1  A    between atoms: O_2  and  C_3 
REMARK    2  A    between atoms: C_5  and  N_6 
REMARK       I    between atoms: N_6  and  C_7 
REMARK    3  A    between atoms: C_7  and  C_8 
REMARK    4  A    between atoms: C_8  and  N_9 
REMARK       I    between atoms: N_15  and  C_16 
REMARK    5  A    between atoms: C_16  and  C_17 
REMARK    6  A    between atoms: C_17  and  C_18 
REMARK    7  A    between atoms: C_18  and  C_19 
REMARK    8  A    between atoms: N_28  and  C_29 
ROOT
HETATM    1  N   UNL     1      24.796  47.176  49.879  1.00  0.00    -0.325 N 
HETATM    2  C   UNL     1      25.244  46.750  51.103  1.00  0.00     0.250 C 
HETATM    3  O   UNL     1      25.571  47.492  52.016  1.00  0.00    -0.270 OA
HETATM    4  C   UNL     1      25.280  45.208  51.085  1.00  0.00     0.118 C 
HETATM    5  C   UNL     1      24.572  44.689  52.345  1.00  0.00     0.061 C 
HETATM    6  C   UNL     1      25.444  44.795  53.593  1.00  0.00     0.129 C 
HETATM    7  N   UNL     1      26.788  44.280  53.349  1.00  0.00    -0.352 N 
HETATM    8  C   UNL     1      27.261  43.234  54.128  1.00  0.00     0.220 C 
HETATM    9  O   UNL     1      26.542  42.650  54.943  1.00  0.00    -0.273 OA
HETATM   10  C   UNL     1      27.515  44.954  52.277  1.00  0.00     0.129 C 
HETATM   11  C   UNL     1      26.764  44.809  50.956  1.00  0.00     0.061 C 
HETATM   12  N   UNL     1      24.519  44.909  49.836  1.00  0.00    -0.346 N 
HETATM   13  C   UNL     1      24.249  46.126  49.077  1.00  0.00     0.254 C 
ENDROOT
BRANCH  12  14
HETATM   14  C   UNL     1      24.167  43.674  49.319  1.00  0.00     0.032 A 
HETATM   15  C   UNL     1      25.042  42.571  49.384  1.00  0.00     0.029 A 
HETATM   16  C   UNL     1      24.715  41.311  48.861  1.00  0.00     0.002 A 
HETATM   17  C   UNL     1      23.487  41.109  48.252  1.00  0.00     0.000 A 
HETATM   18  C   UNL     1      22.596  42.168  48.167  1.00  0.00     0.002 A 
HETATM   19  C   UNL     1      22.938  43.424  48.690  1.00  0.00     0.029 A 
ENDBRANCH  12  14
BRANCH   1  20
HETATM   20  C   UNL     1      24.778  48.560  49.434  1.00  0.00     0.230 C 
BRANCH  20  21
HETATM   21  C   UNL     1      23.484  49.020  48.756  1.00  0.00     0.240 C 
HETATM   22  N   UNL     1      22.453  49.269  49.640  1.00  0.00    -0.326 N 
HETATM   23  H   UNL     1      22.637  49.049  50.613  1.00  0.00     0.169 HD
HETATM   24  O   UNL     1      23.477  49.240  47.547  1.00  0.00    -0.271 OA
BRANCH  22  25
HETATM   25  C   UNL     1      21.202  49.860  49.362  1.00  0.00     0.037 A 
HETATM   26  C   UNL     1      19.983  49.184  49.435  1.00  0.00     0.066 A 
HETATM   27  C   UNL     1      18.784  49.819  49.082  1.00  0.00     0.070 A 
HETATM   28  C   UNL     1      18.801  51.159  48.699  1.00  0.00     0.037 A 
HETATM   29  C   UNL     1      20.012  51.849  48.640  1.00  0.00     0.005 A 
HETATM   30  C   UNL     1      21.206  51.201  48.959  1.00  0.00     0.029 A 
BRANCH  27  31
HETATM   31  O   UNL     1      17.668  49.030  49.162  1.00  0.00    -0.356 OA
HETATM   32  C   UNL     1      17.748  47.754  48.538  1.00  0.00     0.210 C 
ENDBRANCH  27  31
ENDBRANCH  22  25
ENDBRANCH  20  21
ENDBRANCH   1  20
BRANCH   8  33
HETATM   33  C   UNL     1      28.718  42.836  54.014  1.00  0.00     0.107 C 
BRANCH  33  34
HETATM   34  C   UNL     1      29.603  44.075  54.119  1.00  0.00     0.047 C 
BRANCH  34  35
HETATM   35  C   UNL     1      30.149  44.267  55.512  1.00  0.00    -0.058 A 
HETATM   36  C   UNL     1      29.770  45.373  56.283  1.00  0.00     0.007 A 
HETATM   37  C   UNL     1      30.278  45.543  57.572  1.00  0.00     0.001 A 
HETATM   38  C   UNL     1      31.174  44.614  58.099  1.00  0.00     0.000 A 
HETATM   39  C   UNL     1      31.565  43.515  57.336  1.00  0.00     0.001 A 
HETATM   40  C   UNL     1      31.057  43.343  56.048  1.00  0.00     0.007 A 
ENDBRANCH  34  35
ENDBRANCH  33  34
ENDBRANCH   8  33
TORSDOF 8
ENDMDL
MODEL 4
REMARK VINA RESULT:      -9.7      2.643     10.701
REMARK  8 active torsions:
REMARK  status: ('A' for Active; 'I' for Inactive)
REMARK    1  A    between atoms: O_2  and  C_3 
REMARK    2  A    between atoms: C_5  and  N_6 
REMARK       I    between atoms: N_6  and  C_7 
REMARK    3  A    between atoms: C_7  and  C_8 
REMARK    4  A    between atoms: C_8  and  N_9 
REMARK       I    between atoms: N_15  and  C_16 
REMARK    5  A    between atoms: C_16  and  C_17 
REMARK    6  A    between atoms: C_17  and  C_18 
REMARK    7  A    between atoms: C_18  and  C_19 
REMARK    8  A    between atoms: N_28  and  C_29 
ROOT
HETATM    1  N   UNL     1      23.544  47.760  49.078  1.00  0.00    -0.325 N 
HETATM    2  C   UNL     1      22.666  46.772  48.710  1.00  0.00     0.250 C 
HETATM    3  O   UNL     1      22.965  45.595  48.583  1.00  0.00    -0.270 OA
HETATM    4  C   UNL     1      21.290  47.425  48.471  1.00  0.00     0.118 C 
HETATM    5  C   UNL     1      20.228  46.620  49.235  1.00  0.00     0.061 C 
HETATM    6  C   UNL     1      19.850  45.325  48.522  1.00  0.00     0.129 C 
HETATM    7  N   UNL     1      19.590  45.554  47.104  1.00  0.00    -0.352 N 
HETATM    8  C   UNL     1      18.348  45.219  46.584  1.00  0.00     0.220 C 
HETATM    9  O   UNL     1      17.420  44.842  47.302  1.00  0.00    -0.273 OA
HETATM   10  C   UNL     1      20.711  46.122  46.362  1.00  0.00     0.129 C 
HETATM   11  C   UNL     1      21.095  47.482  46.942  1.00  0.00     0.061 C 
HETATM   12  N   UNL     1      21.503  48.786  49.049  1.00  0.00    -0.346 N 
HETATM   13  C   UNL     1      22.905  48.999  49.393  1.00  0.00     0.254 C 
ENDROOT
BRANCH  12  14
HETATM   14  C   UNL     1      20.589  49.817  49.178  1.00  0.00     0.032 A 
HETATM   15  C   UNL     1      19.458  49.699  50.010  1.00  0.00     0.029 A 
HETATM   16  C   UNL     1      18.511  50.725  50.154  1.00  0.00     0.002 A 
HETATM   17  C   UNL     1      18.668  51.917  49.465  1.00  0.00     0.000 A 
HETATM   18  C   UNL     1      19.768  52.074  48.635  1.00  0.00     0.002 A 
HETATM   19  C   UNL     1      20.704  51.038  48.497  1.00  0.00     0.029 A 
ENDBRANCH  12  14
BRANCH   1  20
HETATM   20  C   UNL     1      24.979  47.585  49.229  1.00  0.00     0.230 C 
BRANCH  20  21
HETATM   21  C   UNL     1      25.440  47.035  50.582  1.00  0.00     0.240 C 
HETATM   22  N   UNL     1      25.592  45.662  50.600  1.00  0.00    -0.326 N 
HETATM   23  H   UNL     1      25.312  45.172  49.757  1.00  0.00     0.169 HD
HETATM   24  O   UNL     1      25.742  47.813  51.483  1.00  0.00    -0.271 OA
BRANCH  22  25
HETATM   25  C   UNL     1      26.157  44.871  51.622  1.00  0.00     0.037 A 
HETATM   26  C   UNL     1      27.368  44.186  51.504  1.00  0.00     0.066 A 
HETATM   27  C   UNL     1      27.836  43.365  52.538  1.00  0.00     0.070 A 
HETATM   28  C   UNL     1      27.110  43.269  53.725  1.00  0.00     0.037 A 
HETATM   29  C   UNL     1      25.908  43.963  53.860  1.00  0.00     0.005 A 
HETATM   30  C   UNL     1      25.428  44.750  52.812  1.00  0.00     0.029 A 
BRANCH  27  31
HETATM   31  O   UNL     1      29.016  42.722  52.276  1.00  0.00    -0.356 OA
HETATM   32  C   UNL     1      30.056  42.890  53.231  1.00  0.00     0.210 C 
ENDBRANCH  27  31
ENDBRANCH  22  25
ENDBRANCH  20  21
ENDBRANCH   1  20
BRANCH   8  33
HETATM   33  C   UNL     1      18.146  45.265  45.083  1.00  0.00     0.107 C 
BRANCH  33  34
HETATM   34  C   UNL     1      17.073  46.293  44.736  1.00  0.00     0.047 C 
BRANCH  34  35
HETATM   35  C   UNL     1      17.497  47.698  45.085  1.00  0.00    -0.058 A 
HETATM   36  C   UNL     1      17.207  48.241  46.343  1.00  0.00     0.007 A 
HETATM   37  C   UNL     1      17.604  49.540  46.660  1.00  0.00     0.001 A 
HETATM   38  C   UNL     1      18.288  50.311  45.721  1.00  0.00     0.000 A 
HETATM   39  C   UNL     1      18.574  49.783  44.463  1.00  0.00     0.001 A 
HETATM   40  C   UNL     1      18.178  48.483  44.146  1.00  0.00     0.007 A 
ENDBRANCH  34  35
ENDBRANCH  33  34
ENDBRANCH   8  33
TORSDOF 8
ENDMDL
MODEL 5
REMARK VINA RESULT:      -9.7      3.211      3.997
REMARK  8 active torsions:
REMARK  status: ('A' for Active; 'I' for Inactive)
REMARK    1  A    between atoms: O_2  and  C_3 
REMARK    2  A    between atoms: C_5  and  N_6 
REMARK       I    between atoms: N_6  and  C_7 
REMARK    3  A    between atoms: C_7  and  C_8 
REMARK    4  A    between atoms: C_8  and  N_9 
REMARK       I    between atoms: N_15  and  C_16 
REMARK    5  A    between atoms: C_16  and  C_17 
REMARK    6  A    between atoms: C_17  and  C_18 
REMARK    7  A    between atoms: C_18  and  C_19 
REMARK    8  A    between atoms: N_28  and  C_29 
ROOT
HETATM    1  N   UNL     1      22.871  45.191  49.372  1.00  0.00    -0.325 N 
HETATM    2  C   UNL     1      23.791  44.436  50.054  1.00  0.00     0.250 C 
HETATM    3  O   UNL     1      23.626  43.269  50.375  1.00  0.00    -0.270 OA
HETATM    4  C   UNL     1      25.014  45.329  50.349  1.00  0.00     0.118 C 
HETATM    5  C   UNL     1      26.282  44.575  49.923  1.00  0.00     0.061 C 
HETATM    6  C   UNL     1      26.694  43.505  50.931  1.00  0.00     0.129 C 
HETATM    7  N   UNL     1      26.678  44.025  52.296  1.00  0.00    -0.352 N 
HETATM    8  C   UNL     1      27.846  43.989  53.044  1.00  0.00     0.220 C 
HETATM    9  O   UNL     1      28.923  43.637  52.557  1.00  0.00    -0.273 OA
HETATM   10  C   UNL     1      25.385  44.536  52.739  1.00  0.00     0.129 C 
HETATM   11  C   UNL     1      24.937  45.691  51.845  1.00  0.00     0.061 C 
HETATM   12  N   UNL     1      24.732  46.511  49.481  1.00  0.00    -0.346 N 
HETATM   13  C   UNL     1      23.394  46.437  48.905  1.00  0.00     0.254 C 
ENDROOT
BRANCH  12  14
HETATM   14  C   UNL     1      25.517  47.632  49.276  1.00  0.00     0.032 A 
HETATM   15  C   UNL     1      24.973  48.834  48.781  1.00  0.00     0.029 A 
HETATM   16  C   UNL     1      25.747  49.982  48.555  1.00  0.00     0.002 A 
HETATM   17  C   UNL     1      27.106  49.967  48.822  1.00  0.00     0.000 A 
HETATM   18  C   UNL     1      27.683  48.804  49.310  1.00  0.00     0.002 A 
HETATM   19  C   UNL     1      26.898  47.662  49.527  1.00  0.00     0.029 A 
ENDBRANCH  12  14
BRANCH   1  20
HETATM   20  C   UNL     1      21.516  44.769  49.057  1.00  0.00     0.230 C 
BRANCH  20  21
HETATM   21  C   UNL     1      21.248  44.454  47.583  1.00  0.00     0.240 C 
HETATM   22  N   UNL     1      21.514  45.509  46.732  1.00  0.00    -0.326 N 
HETATM   23  H   UNL     1      21.778  46.383  47.175  1.00  0.00     0.169 HD
HETATM   24  O   UNL     1      20.941  43.312  47.252  1.00  0.00    -0.271 OA
BRANCH  22  25
HETATM   25  C   UNL     1      21.535  45.496  45.321  1.00  0.00     0.037 A 
HETATM   26  C   UNL     1      20.499  45.978  44.518  1.00  0.00     0.066 A 
HETATM   27  C   UNL     1      20.561  45.873  43.122  1.00  0.00     0.070 A 
HETATM   28  C   UNL     1      21.694  45.326  42.521  1.00  0.00     0.037 A 
HETATM   29  C   UNL     1      22.742  44.858  43.313  1.00  0.00     0.005 A 
HETATM   30  C   UNL     1      22.658  44.932  44.705  1.00  0.00     0.029 A 
BRANCH  27  31
HETATM   31  O   UNL     1      19.462  46.349  42.459  1.00  0.00    -0.356 OA
HETATM   32  C   UNL     1      18.463  45.395  42.121  1.00  0.00     0.210 C 
ENDBRANCH  27  31
ENDBRANCH  22  25
ENDBRANCH  20  21
ENDBRANCH   1  20
BRANCH   8  33
HETATM   33  C   UNL     1      27.783  44.337  54.517  1.00  0.00     0.107 C 
BRANCH  33  34
HETATM   34  C   UNL     1      28.769  45.459  54.828  1.00  0.00     0.047 C 
BRANCH  34  35
HETATM   35  C   UNL     1      29.717  45.091  55.942  1.00  0.00    -0.058 A 
HETATM   36  C   UNL     1      30.643  44.053  55.779  1.00  0.00     0.007 A 
HETATM   37  C   UNL     1      31.518  43.719  56.814  1.00  0.00     0.001 A 
HETATM   38  C   UNL     1      31.470  44.413  58.022  1.00  0.00     0.000 A 
HETATM   39  C   UNL     1      30.546  45.442  58.196  1.00  0.00     0.001 A 
HETATM   40  C   UNL     1      29.671  45.777  57.162  1.00  0.00     0.007 A 
ENDBRANCH  34  35
ENDBRANCH  33  34
ENDBRANCH   8  33
TORSDOF 8
ENDMDL
MODEL 6
REMARK VINA RESULT:      -9.6      3.134      5.554
REMARK  8 active torsions:
REMARK  status: ('A' for Active; 'I' for Inactive)
REMARK    1  A    between atoms: O_2  and  C_3 
REMARK    2  A    between atoms: C_5  and  N_6 
REMARK       I    between atoms: N_6  and  C_7 
REMARK    3  A    between atoms: C_7  and  C_8 
REMARK    4  A    between atoms: C_8  and  N_9 
REMARK       I    between atoms: N_15  and  C_16 
REMARK    5  A    between atoms: C_16  and  C_17 
REMARK    6  A    between atoms: C_17  and  C_18 
REMARK    7  A    between atoms: C_18  and  C_19 
REMARK    8  A    between atoms: N_28  and  C_29 
ROOT
HETATM    1  N   UNL     1      22.850  45.138  49.364  1.00  0.00    -0.325 N 
HETATM    2  C   UNL     1      23.786  44.389  50.030  1.00  0.00     0.250 C 
HETATM    3  O   UNL     1      23.636  43.219  50.347  1.00  0.00    -0.270 OA
HETATM    4  C   UNL     1      25.004  45.292  50.311  1.00  0.00     0.118 C 
HETATM    5  C   UNL     1      26.273  44.552  49.865  1.00  0.00     0.061 C 
HETATM    6  C   UNL     1      26.709  43.482  50.863  1.00  0.00     0.129 C 
HETATM    7  N   UNL     1      26.707  43.996  52.229  1.00  0.00    -0.352 N 
HETATM    8  C   UNL     1      27.886  43.968  52.961  1.00  0.00     0.220 C 
HETATM    9  O   UNL     1      28.959  43.628  52.457  1.00  0.00    -0.273 OA
HETATM   10  C   UNL     1      25.416  44.493  52.692  1.00  0.00     0.129 C 
HETATM   11  C   UNL     1      24.945  45.647  51.810  1.00  0.00     0.061 C 
HETATM   12  N   UNL     1      24.699  46.475  49.453  1.00  0.00    -0.346 N 
HETATM   13  C   UNL     1      23.354  46.391  48.895  1.00  0.00     0.254 C 
ENDROOT
BRANCH  12  14
HETATM   14  C   UNL     1      25.471  47.604  49.241  1.00  0.00     0.032 A 
HETATM   15  C   UNL     1      24.911  48.799  48.747  1.00  0.00     0.029 A 
HETATM   16  C   UNL     1      25.671  49.955  48.515  1.00  0.00     0.002 A 
HETATM   17  C   UNL     1      27.032  49.956  48.775  1.00  0.00     0.000 A 
HETATM   18  C   UNL     1      27.624  48.800  49.263  1.00  0.00     0.002 A 
HETATM   19  C   UNL     1      26.852  47.650  49.486  1.00  0.00     0.029 A 
ENDBRANCH  12  14
BRANCH   1  20
HETATM   20  C   UNL     1      21.494  44.705  49.065  1.00  0.00     0.230 C 
BRANCH  20  21
HETATM   21  C   UNL     1      21.308  43.993  47.723  1.00  0.00     0.240 C 
HETATM   22  N   UNL     1      22.389  43.217  47.351  1.00  0.00    -0.326 N 
HETATM   23  H   UNL     1      23.201  43.266  47.956  1.00  0.00     0.169 HD
HETATM   24  O   UNL     1      20.225  44.056  47.147  1.00  0.00    -0.271 OA
BRANCH  22  25
HETATM   25  C   UNL     1      22.470  42.312  46.272  1.00  0.00     0.037 A 
HETATM   26  C   UNL     1      22.959  42.643  45.006  1.00  0.00     0.066 A 
HETATM   27  C   UNL     1      22.950  41.708  43.963  1.00  0.00     0.070 A 
HETATM   28  C   UNL     1      22.493  40.413  44.202  1.00  0.00     0.037 A 
HETATM   29  C   UNL     1      22.019  40.066  45.467  1.00  0.00     0.005 A 
HETATM   30  C   UNL     1      21.998  41.013  46.493  1.00  0.00     0.029 A 
BRANCH  27  31
HETATM   31  O   UNL     1      23.421  42.176  42.765  1.00  0.00    -0.356 OA
HETATM   32  C   UNL     1      23.406  41.260  41.677  1.00  0.00     0.210 C 
ENDBRANCH  27  31
ENDBRANCH  22  25
ENDBRANCH  20  21
ENDBRANCH   1  20
BRANCH   8  33
HETATM   33  C   UNL     1      27.840  44.309  54.436  1.00  0.00     0.107 C 
BRANCH  33  34
HETATM   34  C   UNL     1      28.845  45.415  54.744  1.00  0.00     0.047 C 
BRANCH  34  35
HETATM   35  C   UNL     1      29.762  45.049  55.883  1.00  0.00    -0.058 A 
HETATM   36  C   UNL     1      29.743  45.777  57.080  1.00  0.00     0.007 A 
HETATM   37  C   UNL     1      30.594  45.430  58.131  1.00  0.00     0.001 A 
HETATM   38  C   UNL     1      31.476  44.360  57.993  1.00  0.00     0.000 A 
HETATM   39  C   UNL     1      31.509  43.635  56.802  1.00  0.00     0.001 A 
HETATM   40  C   UNL     1      30.658  43.979  55.752  1.00  0.00     0.007 A 
ENDBRANCH  34  35
ENDBRANCH  33  34
ENDBRANCH   8  33
TORSDOF 8
ENDMDL
MODEL 7
REMARK VINA RESULT:      -9.4      4.323     10.689
REMARK  8 active torsions:
REMARK  status: ('A' for Active; 'I' for Inactive)
REMARK    1  A    between atoms: O_2  and  C_3 
REMARK    2  A    between atoms: C_5  and  N_6 
REMARK       I    between atoms: N_6  and  C_7 
REMARK    3  A    between atoms: C_7  and  C_8 
REMARK    4  A    between atoms: C_8  and  N_9 
REMARK       I    between atoms: N_15  and  C_16 
REMARK    5  A    between atoms: C_16  and  C_17 
REMARK    6  A    between atoms: C_17  and  C_18 
REMARK    7  A    between atoms: C_18  and  C_19 
REMARK    8  A    between atoms: N_28  and  C_29 
ROOT
HETATM    1  N   UNL     1      27.280  41.101  51.485  1.00  0.00    -0.325 N 
HETATM    2  C   UNL     1      26.456  42.172  51.246  1.00  0.00     0.250 C 
HETATM    3  O   UNL     1      25.471  42.138  50.524  1.00  0.00    -0.270 OA
HETATM    4  C   UNL     1      27.017  43.384  52.017  1.00  0.00     0.118 C 
HETATM    5  C   UNL     1      25.871  44.030  52.810  1.00  0.00     0.061 C 
HETATM    6  C   UNL     1      24.959  44.883  51.932  1.00  0.00     0.129 C 
HETATM    7  N   UNL     1      25.730  45.773  51.069  1.00  0.00    -0.352 N 
HETATM    8  C   UNL     1      25.527  47.143  51.159  1.00  0.00     0.220 C 
HETATM    9  O   UNL     1      24.800  47.639  52.023  1.00  0.00    -0.273 OA
HETATM   10  C   UNL     1      26.658  45.097  50.168  1.00  0.00     0.129 C 
HETATM   11  C   UNL     1      27.684  44.296  50.967  1.00  0.00     0.061 C 
HETATM   12  N   UNL     1      28.028  42.731  52.900  1.00  0.00    -0.346 N 
HETATM   13  C   UNL     1      28.210  41.327  52.546  1.00  0.00     0.254 C 
ENDROOT
BRANCH  12  14
HETATM   14  C   UNL     1      28.821  43.312  53.873  1.00  0.00     0.032 A 
HETATM   15  C   UNL     1      30.007  42.696  54.324  1.00  0.00     0.029 A 
HETATM   16  C   UNL     1      30.824  43.259  55.315  1.00  0.00     0.002 A 
HETATM   17  C   UNL     1      30.483  44.471  55.893  1.00  0.00     0.000 A 
HETATM   18  C   UNL     1      29.325  45.111  55.478  1.00  0.00     0.002 A 
HETATM   19  C   UNL     1      28.513  44.535  54.490  1.00  0.00     0.029 A 
ENDBRANCH  12  14
BRANCH   1  20
HETATM   20  C   UNL     1      27.194  39.817  50.810  1.00  0.00     0.230 C 
BRANCH  20  21
HETATM   21  C   UNL     1      27.900  39.733  49.454  1.00  0.00     0.240 C 
HETATM   22  N   UNL     1      27.413  38.731  48.636  1.00  0.00    -0.326 N 
HETATM   23  H   UNL     1      26.711  38.125  49.045  1.00  0.00     0.169 HD
HETATM   24  O   UNL     1      28.728  40.586  49.147  1.00  0.00    -0.271 OA
BRANCH  22  25
HETATM   25  C   UNL     1      27.723  38.499  47.280  1.00  0.00     0.037 A 
HETATM   26  C   UNL     1      28.607  37.513  46.836  1.00  0.00     0.066 A 
HETATM   27  C   UNL     1      28.916  37.382  45.475  1.00  0.00     0.070 A 
HETATM   28  C   UNL     1      28.297  38.214  44.544  1.00  0.00     0.037 A 
HETATM   29  C   UNL     1      27.399  39.191  44.975  1.00  0.00     0.005 A 
HETATM   30  C   UNL     1      27.122  39.339  46.335  1.00  0.00     0.029 A 
BRANCH  27  31
HETATM   31  O   UNL     1      29.826  36.402  45.183  1.00  0.00    -0.356 OA
HETATM   32  C   UNL     1      30.340  36.390  43.857  1.00  0.00     0.210 C 
ENDBRANCH  27  31
ENDBRANCH  22  25
ENDBRANCH  20  21
ENDBRANCH   1  20
BRANCH   8  33
HETATM   33  C   UNL     1      26.172  48.048  50.131  1.00  0.00     0.107 C 
BRANCH  33  34
HETATM   34  C   UNL     1      25.381  47.997  48.827  1.00  0.00     0.047 C 
BRANCH  34  35
HETATM   35  C   UNL     1      24.216  48.955  48.831  1.00  0.00    -0.058 A 
HETATM   36  C   UNL     1      24.395  50.302  48.492  1.00  0.00     0.007 A 
HETATM   37  C   UNL     1      23.312  51.182  48.496  1.00  0.00     0.001 A 
HETATM   38  C   UNL     1      22.042  50.726  48.846  1.00  0.00     0.000 A 
HETATM   39  C   UNL     1      21.855  49.389  49.194  1.00  0.00     0.001 A 
HETATM   40  C   UNL     1      22.937  48.508  49.189  1.00  0.00     0.007 A 
ENDBRANCH  34  35
ENDBRANCH  33  34
ENDBRANCH   8  33
TORSDOF 8
ENDMDL
MODEL 8
REMARK VINA RESULT:      -9.3      1.572      2.334
REMARK  8 active torsions:
REMARK  status: ('A' for Active; 'I' for Inactive)
REMARK    1  A    between atoms: O_2  and  C_3 
REMARK    2  A    between atoms: C_5  and  N_6 
REMARK       I    between atoms: N_6  and  C_7 
REMARK    3  A    between atoms: C_7  and  C_8 
REMARK    4  A    between atoms: C_8  and  N_9 
REMARK       I    between atoms: N_15  and  C_16 
REMARK    5  A    between atoms: C_16  and  C_17 
REMARK    6  A    between atoms: C_17  and  C_18 
REMARK    7  A    between atoms: C_18  and  C_19 
REMARK    8  A    between atoms: N_28  and  C_29 
ROOT
HETATM    1  N   UNL     1      21.387  46.048  48.944  1.00  0.00    -0.325 N 
HETATM    2  C   UNL     1      22.143  44.904  48.942  1.00  0.00     0.250 C 
HETATM    3  O   UNL     1      21.691  43.776  48.815  1.00  0.00    -0.270 OA
HETATM    4  C   UNL     1      23.616  45.309  49.153  1.00  0.00     0.118 C 
HETATM    5  C   UNL     1      24.471  44.612  48.084  1.00  0.00     0.061 C 
HETATM    6  C   UNL     1      24.725  43.141  48.404  1.00  0.00     0.129 C 
HETATM    7  N   UNL     1      25.150  42.963  49.789  1.00  0.00    -0.352 N 
HETATM    8  C   UNL     1      26.375  42.363  50.046  1.00  0.00     0.220 C 
HETATM    9  O   UNL     1      27.165  42.080  49.142  1.00  0.00    -0.273 OA
HETATM   10  C   UNL     1      24.200  43.446  50.786  1.00  0.00     0.129 C 
HETATM   11  C   UNL     1      23.963  44.944  50.610  1.00  0.00     0.061 C 
HETATM   12  N   UNL     1      23.548  46.787  48.957  1.00  0.00    -0.346 N 
HETATM   13  C   UNL     1      22.165  47.244  48.860  1.00  0.00     0.254 C 
ENDROOT
BRANCH  12  14
HETATM   14  C   UNL     1      24.585  47.704  48.965  1.00  0.00     0.032 A 
HETATM   15  C   UNL     1      25.826  47.408  49.565  1.00  0.00     0.029 A 
HETATM   16  C   UNL     1      26.890  48.321  49.595  1.00  0.00     0.002 A 
HETATM   17  C   UNL     1      26.750  49.572  49.018  1.00  0.00     0.000 A 
HETATM   18  C   UNL     1      25.545  49.904  48.416  1.00  0.00     0.002 A 
HETATM   19  C   UNL     1      24.487  48.983  48.398  1.00  0.00     0.029 A 
ENDBRANCH  12  14
BRANCH   1  20
HETATM   20  C   UNL     1      19.933  46.086  48.942  1.00  0.00     0.230 C 
BRANCH  20  21
HETATM   21  C   UNL     1      19.307  47.400  48.467  1.00  0.00     0.240 C 
HETATM   22  N   UNL     1      19.341  48.406  49.413  1.00  0.00    -0.326 N 
HETATM   23  H   UNL     1      19.699  48.146  50.326  1.00  0.00     0.169 HD
HETATM   24  O   UNL     1      18.938  47.511  47.300  1.00  0.00    -0.271 OA
BRANCH  22  25
HETATM   25  C   UNL     1      19.007  49.765  49.240  1.00  0.00     0.037 A 
HETATM   26  C   UNL     1      17.725  50.287  49.423  1.00  0.00     0.066 A 
HETATM   27  C   UNL     1      17.453  51.638  49.170  1.00  0.00     0.070 A 
HETATM   28  C   UNL     1      18.487  52.487  48.778  1.00  0.00     0.037 A 
HETATM   29  C   UNL     1      19.775  51.981  48.609  1.00  0.00     0.005 A 
HETATM   30  C   UNL     1      20.032  50.626  48.828  1.00  0.00     0.029 A 
BRANCH  27  31
HETATM   31  O   UNL     1      16.148  52.007  49.351  1.00  0.00    -0.356 OA
HETATM   32  C   UNL     1      15.916  53.109  50.220  1.00  0.00     0.210 C 
ENDBRANCH  27  31
ENDBRANCH  22  25
ENDBRANCH  20  21
ENDBRANCH   1  20
BRANCH   8  33
HETATM   33  C   UNL     1      26.725  41.995  51.472  1.00  0.00     0.107 C 
BRANCH  33  34
HETATM   34  C   UNL     1      28.241  41.957  51.641  1.00  0.00     0.047 C 
BRANCH  34  35
HETATM   35  C   UNL     1      28.701  42.763  52.830  1.00  0.00    -0.058 A 
HETATM   36  C   UNL     1      29.967  42.552  53.391  1.00  0.00     0.007 A 
HETATM   37  C   UNL     1      30.386  43.303  54.490  1.00  0.00     0.001 A 
HETATM   38  C   UNL     1      29.543  44.265  55.042  1.00  0.00     0.000 A 
HETATM   39  C   UNL     1      28.277  44.477  54.497  1.00  0.00     0.001 A 
HETATM   40  C   UNL     1      27.858  43.727  53.397  1.00  0.00     0.007 A 
ENDBRANCH  34  35
ENDBRANCH  33  34
ENDBRANCH   8  33
TORSDOF 8
ENDMDL
MODEL 9
REMARK VINA RESULT:      -9.2      3.464      9.415
REMARK  8 active torsions:
REMARK  status: ('A' for Active; 'I' for Inactive)
REMARK    1  A    between atoms: O_2  and  C_3 
REMARK    2  A    between atoms: C_5  and  N_6 
REMARK       I    between atoms: N_6  and  C_7 
REMARK    3  A    between atoms: C_7  and  C_8 
REMARK    4  A    between atoms: C_8  and  N_9 
REMARK       I    between atoms: N_15  and  C_16 
REMARK    5  A    between atoms: C_16  and  C_17 
REMARK    6  A    between atoms: C_17  and  C_18 
REMARK    7  A    between atoms: C_18  and  C_19 
REMARK    8  A    between atoms: N_28  and  C_29 
ROOT
HETATM    1  N   UNL     1      27.844  41.142  51.420  1.00  0.00    -0.325 N 
HETATM    2  C   UNL     1      26.947  42.151  51.182  1.00  0.00     0.250 C 
HETATM    3  O   UNL     1      25.998  42.066  50.418  1.00  0.00    -0.270 OA
HETATM    4  C   UNL     1      27.376  43.375  52.017  1.00  0.00     0.118 C 
HETATM    5  C   UNL     1      26.150  43.898  52.781  1.00  0.00     0.061 C 
HETATM    6  C   UNL     1      25.208  44.707  51.894  1.00  0.00     0.129 C 
HETATM    7  N   UNL     1      25.939  45.687  51.096  1.00  0.00    -0.352 N 
HETATM    8  C   UNL     1      25.622  47.032  51.224  1.00  0.00     0.220 C 
HETATM    9  O   UNL     1      24.822  47.436  52.072  1.00  0.00    -0.273 OA
HETATM   10  C   UNL     1      26.954  45.121  50.214  1.00  0.00     0.129 C 
HETATM   11  C   UNL     1      28.008  44.375  51.029  1.00  0.00     0.061 C 
HETATM   12  N   UNL     1      28.400  42.772  52.921  1.00  0.00    -0.346 N 
HETATM   13  C   UNL     1      28.709  41.401  52.528  1.00  0.00     0.254 C 
ENDROOT
BRANCH  12  14
HETATM   14  C   UNL     1      29.103  43.377  53.947  1.00  0.00     0.032 A 
HETATM   15  C   UNL     1      28.662  44.581  54.533  1.00  0.00     0.029 A 
HETATM   16  C   UNL     1      29.360  45.221  55.569  1.00  0.00     0.002 A 
HETATM   17  C   UNL     1      30.533  44.671  56.060  1.00  0.00     0.000 A 
HETATM   18  C   UNL     1      31.002  43.488  55.512  1.00  0.00     0.002 A 
HETATM   19  C   UNL     1      30.297  42.861  54.473  1.00  0.00     0.029 A 
ENDBRANCH  12  14
BRANCH   1  20
HETATM   20  C   UNL     1      27.890  39.880  50.699  1.00  0.00     0.230 C 
BRANCH  20  21
HETATM   21  C   UNL     1      27.876  39.990  49.172  1.00  0.00     0.240 C 
HETATM   22  N   UNL     1      26.680  39.606  48.599  1.00  0.00    -0.326 N 
HETATM   23  H   UNL     1      25.984  39.227  49.232  1.00  0.00     0.169 HD
HETATM   24  O   UNL     1      28.833  40.495  48.591  1.00  0.00    -0.271 OA
BRANCH  22  25
HETATM   25  C   UNL     1      26.284  39.745  47.252  1.00  0.00     0.037 A 
HETATM   26  C   UNL     1      25.457  40.766  46.780  1.00  0.00     0.066 A 
HETATM   27  C   UNL     1      25.053  40.805  45.439  1.00  0.00     0.070 A 
HETATM   28  C   UNL     1      25.524  39.840  44.549  1.00  0.00     0.037 A 
HETATM   29  C   UNL     1      26.365  38.826  45.006  1.00  0.00     0.005 A 
HETATM   30  C   UNL     1      26.735  38.773  46.351  1.00  0.00     0.029 A 
BRANCH  27  31
HETATM   31  O   UNL     1      24.212  41.836  45.119  1.00  0.00    -0.356 OA
HETATM   32  C   UNL     1      23.543  42.468  46.204  1.00  0.00     0.210 C 
ENDBRANCH  27  31
ENDBRANCH  22  25
ENDBRANCH  20  21
ENDBRANCH   1  20
BRANCH   8  33
HETATM   33  C   UNL     1      26.232  48.024  50.256  1.00  0.00     0.107 C 
BRANCH  33  34
HETATM   34  C   UNL     1      25.498  47.962  48.919  1.00  0.00     0.047 C 
BRANCH  34  35
HETATM   35  C   UNL     1      24.319  48.902  48.874  1.00  0.00    -0.058 A 
HETATM   36  C   UNL     1      23.032  48.450  49.190  1.00  0.00     0.007 A 
HETATM   37  C   UNL     1      21.946  49.326  49.148  1.00  0.00     0.001 A 
HETATM   38  C   UNL     1      22.135  50.658  48.783  1.00  0.00     0.000 A 
HETATM   39  C   UNL     1      23.412  51.115  48.458  1.00  0.00     0.001 A 
HETATM   40  C   UNL     1      24.498  50.240  48.501  1.00  0.00     0.007 A 
ENDBRANCH  34  35
ENDBRANCH  33  34
ENDBRANCH   8  33
TORSDOF 8
ENDMDL
MODEL 10
REMARK VINA RESULT:      -9.1      3.509     10.924
REMARK  8 active torsions:
REMARK  status: ('A' for Active; 'I' for Inactive)
REMARK    1  A    between atoms: O_2  and  C_3 
REMARK    2  A    between atoms: C_5  and  N_6 
REMARK       I    between atoms: N_6  and  C_7 
REMARK    3  A    between atoms: C_7  and  C_8 
REMARK    4  A    between atoms: C_8  and  N_9 
REMARK       I    between atoms: N_15  and  C_16 
REMARK    5  A    between atoms: C_16  and  C_17 
REMARK    6  A    between atoms: C_17  and  C_18 
REMARK    7  A    between atoms: C_18  and  C_19 
REMARK    8  A    between atoms: N_28  and  C_29 
ROOT
HETATM    1  N   UNL     1      21.163  45.053  47.672  1.00  0.00    -0.325 N 
HETATM    2  C   UNL     1      19.801  45.213  47.677  1.00  0.00     0.250 C 
HETATM    3  O   UNL     1      18.997  44.298  47.571  1.00  0.00    -0.270 OA
HETATM    4  C   UNL     1      19.500  46.719  47.809  1.00  0.00     0.118 C 
HETATM    5  C   UNL     1      18.465  46.914  48.927  1.00  0.00     0.061 C 
HETATM    6  C   UNL     1      17.047  46.567  48.481  1.00  0.00     0.129 C 
HETATM    7  N   UNL     1      16.730  47.178  47.193  1.00  0.00    -0.352 N 
HETATM    8  C   UNL     1      15.648  48.042  47.106  1.00  0.00     0.220 C 
HETATM    9  O   UNL     1      15.015  48.399  48.103  1.00  0.00    -0.273 OA
HETATM   10  C   UNL     1      17.615  46.791  46.100  1.00  0.00     0.129 C 
HETATM   11  C   UNL     1      19.053  47.197  46.412  1.00  0.00     0.061 C 
HETATM   12  N   UNL     1      20.844  47.259  48.171  1.00  0.00    -0.346 N 
HETATM   13  C   UNL     1      21.874  46.232  48.054  1.00  0.00     0.254 C 
ENDROOT
BRANCH  12  14
HETATM   14  C   UNL     1      21.191  48.563  48.479  1.00  0.00     0.032 A 
HETATM   15  C   UNL     1      22.188  49.250  47.758  1.00  0.00     0.029 A 
HETATM   16  C   UNL     1      22.566  50.568  48.054  1.00  0.00     0.002 A 
HETATM   17  C   UNL     1      21.951  51.252  49.090  1.00  0.00     0.000 A 
HETATM   18  C   UNL     1      20.965  50.612  49.825  1.00  0.00     0.002 A 
HETATM   19  C   UNL     1      20.600  49.292  49.521  1.00  0.00     0.029 A 
ENDBRANCH  12  14
BRANCH   1  20
HETATM   20  C   UNL     1      21.855  43.804  47.396  1.00  0.00     0.230 C 
BRANCH  20  21
HETATM   21  C   UNL     1      22.902  43.386  48.432  1.00  0.00     0.240 C 
HETATM   22  N   UNL     1      24.164  43.887  48.179  1.00  0.00    -0.326 N 
HETATM   23  H   UNL     1      24.273  44.402  47.311  1.00  0.00     0.169 HD
HETATM   24  O   UNL     1      22.553  42.763  49.431  1.00  0.00    -0.271 OA
BRANCH  22  25
HETATM   25  C   UNL     1      25.298  43.832  49.016  1.00  0.00     0.037 A 
HETATM   26  C   UNL     1      25.970  42.655  49.349  1.00  0.00     0.066 A 
HETATM   27  C   UNL     1      27.052  42.668  50.239  1.00  0.00     0.070 A 
HETATM   28  C   UNL     1      27.498  43.881  50.763  1.00  0.00     0.037 A 
HETATM   29  C   UNL     1      26.845  45.066  50.424  1.00  0.00     0.005 A 
HETATM   30  C   UNL     1      25.745  45.041  49.564  1.00  0.00     0.029 A 
BRANCH  27  31
HETATM   31  O   UNL     1      27.593  41.440  50.508  1.00  0.00    -0.356 OA
HETATM   32  C   UNL     1      28.021  41.215  51.846  1.00  0.00     0.210 C 
ENDBRANCH  27  31
ENDBRANCH  22  25
ENDBRANCH  20  21
ENDBRANCH   1  20
BRANCH   8  33
HETATM   33  C   UNL     1      15.195  48.513  45.740  1.00  0.00     0.107 C 
BRANCH  33  34
HETATM   34  C   UNL     1      15.120  50.038  45.716  1.00  0.00     0.047 C 
BRANCH  34  35
HETATM   35  C   UNL     1      16.340  50.677  46.330  1.00  0.00    -0.058 A 
HETATM   36  C   UNL     1      17.613  50.456  45.788  1.00  0.00     0.007 A 
HETATM   37  C   UNL     1      18.737  51.053  46.360  1.00  0.00     0.001 A 
HETATM   38  C   UNL     1      18.601  51.869  47.483  1.00  0.00     0.000 A 
HETATM   39  C   UNL     1      17.340  52.087  48.035  1.00  0.00     0.001 A 
HETATM   40  C   UNL     1      16.215  51.492  47.463  1.00  0.00     0.007 A 
ENDBRANCH  34  35
ENDBRANCH  33  34
ENDBRANCH   8  33
TORSDOF 8
ENDMDL
