MODEL 1
REMARK VINA RESULT:      -8.7      0.000      0.000
REMARK  3 active torsions:
REMARK  status: ('A' for Active; 'I' for Inactive)
REMARK    1  A    between atoms: C_3  and  N_4 
REMARK       I    between atoms: N_4  and  C_5 
REMARK    2  A    between atoms: C_5  and  C_6 
REMARK    3  A    between atoms: C_6  and  C_7 
ROOT
HETATM    1  C   UNL     1      26.224  45.661  53.805  1.00  0.00     0.286 C 
HETATM    2  N   UNL     1      26.971  45.680  52.473  1.00  0.00    -0.056 N 
HETATM    3  H   UNL     1      26.392  46.215  51.814  1.00  0.00     0.278 HD
HETATM    4  H   UNL     1      27.820  46.274  52.595  1.00  0.00     0.278 HD
HETATM    5  C   UNL     1      27.313  44.364  51.840  1.00  0.00     0.209 C 
HETATM    6  C   UNL     1      26.063  43.452  51.837  1.00  0.00     0.115 C 
HETATM    7  N   UNL     1      25.385  43.414  53.131  1.00  0.00    -0.353 N 
HETATM    8  C   UNL     1      25.191  44.528  53.908  1.00  0.00     0.249 C 
HETATM    9  O   UNL     1      24.286  44.551  54.734  1.00  0.00    -0.271 OA
HETATM   10  C   UNL     1      28.535  43.739  52.512  1.00  0.00     0.035 C 
HETATM   11  C   UNL     1      28.833  42.356  51.941  1.00  0.00     0.002 C 
HETATM   12  C   UNL     1      27.617  41.442  52.060  1.00  0.00     0.002 C 
HETATM   13  C   UNL     1      26.401  42.038  51.351  1.00  0.00     0.027 C 
HETATM   14  H   UNL     1      24.634  42.734  53.249  1.00  0.00     0.163 HD
ENDROOT
BRANCH   1  15
HETATM   15  C   UNL     1      27.134  45.575  55.042  1.00  0.00     0.146 C 
BRANCH  15  16
HETATM   16  C   UNL     1      28.145  46.680  55.131  1.00  0.00     0.224 C 
HETATM   17  N   UNL     1      29.395  46.477  55.615  1.00  0.00    -0.325 N 
HETATM   18  H   UNL     1      29.964  47.324  55.581  1.00  0.00     0.169 HD
HETATM   19  O   UNL     1      27.848  47.799  54.691  1.00  0.00    -0.273 OA
BRANCH  17  20
HETATM   20  C   UNL     1      30.099  45.359  56.116  1.00  0.00     0.073 A 
HETATM   21  C   UNL     1      30.421  44.196  55.419  1.00  0.00     0.033 A 
HETATM   22  C   UNL     1      31.145  43.172  56.048  1.00  0.00     0.002 A 
HETATM   23  C   UNL     1      31.551  43.295  57.376  1.00  0.00     0.003 A 
HETATM   24  C   UNL     1      31.231  44.446  58.087  1.00  0.00     0.044 A 
HETATM   25  C   UNL     1      30.512  45.456  57.456  1.00  0.00     0.143 A 
HETATM   26  F   UNL     1      30.216  46.567  58.150  1.00  0.00    -0.204 F 
ENDBRANCH  17  20
ENDBRANCH  15  16
ENDBRANCH   1  15
TORSDOF 3
ENDMDL
MODEL 2
REMARK VINA RESULT:      -8.2      4.100      6.778
REMARK  3 active torsions:
REMARK  status: ('A' for Active; 'I' for Inactive)
REMARK    1  A    between atoms: C_3  and  N_4 
REMARK       I    between atoms: N_4  and  C_5 
REMARK    2  A    between atoms: C_5  and  C_6 
REMARK    3  A    between atoms: C_6  and  C_7 
ROOT
HETATM    1  C   UNL     1      26.246  45.460  53.782  1.00  0.00     0.286 C 
HETATM    2  N   UNL     1      26.099  43.944  53.897  1.00  0.00    -0.056 N 
HETATM    3  H   UNL     1      25.632  43.757  54.794  1.00  0.00     0.278 HD
HETATM    4  H   UNL     1      25.398  43.640  53.187  1.00  0.00     0.278 HD
HETATM    5  C   UNL     1      27.343  43.109  53.829  1.00  0.00     0.209 C 
HETATM    6  C   UNL     1      28.414  43.702  54.775  1.00  0.00     0.115 C 
HETATM    7  N   UNL     1      28.571  45.146  54.621  1.00  0.00    -0.353 N 
HETATM    8  C   UNL     1      27.510  46.002  54.466  1.00  0.00     0.249 C 
HETATM    9  O   UNL     1      27.628  47.186  54.764  1.00  0.00    -0.271 OA
HETATM   10  C   UNL     1      27.811  42.949  52.383  1.00  0.00     0.035 C 
HETATM   11  C   UNL     1      29.129  42.183  52.311  1.00  0.00     0.002 C 
HETATM   12  C   UNL     1      30.200  42.859  53.161  1.00  0.00     0.002 C 
HETATM   13  C   UNL     1      29.759  42.982  54.619  1.00  0.00     0.027 C 
HETATM   14  H   UNL     1      29.349  45.590  55.110  1.00  0.00     0.163 HD
ENDROOT
BRANCH   1  15
HETATM   15  C   UNL     1      26.236  45.990  52.338  1.00  0.00     0.146 C 
BRANCH  15  16
HETATM   16  C   UNL     1      24.947  45.745  51.610  1.00  0.00     0.224 C 
HETATM   17  N   UNL     1      24.562  46.499  50.550  1.00  0.00    -0.325 N 
HETATM   18  H   UNL     1      23.675  46.183  50.155  1.00  0.00     0.169 HD
HETATM   19  O   UNL     1      24.241  44.786  51.950  1.00  0.00    -0.273 OA
BRANCH  17  20
HETATM   20  C   UNL     1      25.123  47.588  49.848  1.00  0.00     0.073 A 
HETATM   21  C   UNL     1      26.479  47.856  49.670  1.00  0.00     0.033 A 
HETATM   22  C   UNL     1      26.887  48.975  48.929  1.00  0.00     0.002 A 
HETATM   23  C   UNL     1      25.951  49.837  48.360  1.00  0.00     0.003 A 
HETATM   24  C   UNL     1      24.595  49.587  48.534  1.00  0.00     0.044 A 
HETATM   25  C   UNL     1      24.198  48.477  49.272  1.00  0.00     0.143 A 
HETATM   26  F   UNL     1      22.885  48.241  49.428  1.00  0.00    -0.204 F 
ENDBRANCH  17  20
ENDBRANCH  15  16
ENDBRANCH   1  15
TORSDOF 3
ENDMDL
MODEL 3
REMARK VINA RESULT:      -8.1      2.162      2.752
REMARK  3 active torsions:
REMARK  status: ('A' for Active; 'I' for Inactive)
REMARK    1  A    between atoms: C_3  and  N_4 
REMARK       I    between atoms: N_4  and  C_5 
REMARK    2  A    between atoms: C_5  and  C_6 
REMARK    3  A    between atoms: C_6  and  C_7 
ROOT
HETATM    1  C   UNL     1      27.619  44.072  53.302  1.00  0.00     0.286 C 
HETATM    2  N   UNL     1      28.026  44.139  51.832  1.00  0.00    -0.056 N 
HETATM    3  H   UNL     1      27.936  45.122  51.542  1.00  0.00     0.278 HD
HETATM    4  H   UNL     1      29.052  43.960  51.778  1.00  0.00     0.278 HD
HETATM    5  C   UNL     1      27.272  43.289  50.854  1.00  0.00     0.209 C 
HETATM    6  C   UNL     1      25.752  43.459  51.085  1.00  0.00     0.115 C 
HETATM    7  N   UNL     1      25.376  43.350  52.493  1.00  0.00    -0.353 N 
HETATM    8  C   UNL     1      26.105  43.916  53.508  1.00  0.00     0.249 C 
HETATM    9  O   UNL     1      25.568  44.174  54.580  1.00  0.00    -0.271 OA
HETATM   10  C   UNL     1      27.750  41.838  50.914  1.00  0.00     0.035 C 
HETATM   11  C   UNL     1      26.924  40.945  49.993  1.00  0.00     0.002 C 
HETATM   12  C   UNL     1      25.438  41.045  50.324  1.00  0.00     0.002 C 
HETATM   13  C   UNL     1      24.940  42.486  50.222  1.00  0.00     0.027 C 
HETATM   14  H   UNL     1      24.381  43.316  52.714  1.00  0.00     0.163 HD
ENDROOT
BRANCH   1  15
HETATM   15  C   UNL     1      28.315  42.958  54.102  1.00  0.00     0.146 C 
BRANCH  15  16
HETATM   16  C   UNL     1      29.805  42.929  53.933  1.00  0.00     0.224 C 
HETATM   17  N   UNL     1      30.641  43.569  54.789  1.00  0.00    -0.325 N 
HETATM   18  H   UNL     1      31.623  43.426  54.548  1.00  0.00     0.169 HD
HETATM   19  O   UNL     1      30.291  42.249  53.019  1.00  0.00    -0.273 OA
BRANCH  17  20
HETATM   20  C   UNL     1      30.466  44.349  55.954  1.00  0.00     0.073 A 
HETATM   21  C   UNL     1      29.575  45.407  56.122  1.00  0.00     0.033 A 
HETATM   22  C   UNL     1      29.501  46.081  57.350  1.00  0.00     0.002 A 
HETATM   23  C   UNL     1      30.314  45.709  58.419  1.00  0.00     0.003 A 
HETATM   24  C   UNL     1      31.213  44.661  58.266  1.00  0.00     0.044 A 
HETATM   25  C   UNL     1      31.282  43.999  57.044  1.00  0.00     0.143 A 
HETATM   26  F   UNL     1      32.148  42.982  56.909  1.00  0.00    -0.204 F 
ENDBRANCH  17  20
ENDBRANCH  15  16
ENDBRANCH   1  15
TORSDOF 3
ENDMDL
MODEL 4
REMARK VINA RESULT:      -8.1      2.939      4.297
REMARK  3 active torsions:
REMARK  status: ('A' for Active; 'I' for Inactive)
REMARK    1  A    between atoms: C_3  and  N_4 
REMARK       I    between atoms: N_4  and  C_5 
REMARK    2  A    between atoms: C_5  and  C_6 
REMARK    3  A    between atoms: C_6  and  C_7 
ROOT
HETATM    1  C   UNL     1      26.709  42.752  51.346  1.00  0.00     0.286 C 
HETATM    2  N   UNL     1      25.557  43.277  52.200  1.00  0.00    -0.056 N 
HETATM    3  H   UNL     1      24.788  42.599  52.113  1.00  0.00     0.278 HD
HETATM    4  H   UNL     1      25.843  43.198  53.200  1.00  0.00     0.278 HD
HETATM    5  C   UNL     1      25.019  44.643  51.893  1.00  0.00     0.209 C 
HETATM    6  C   UNL     1      24.771  44.770  50.371  1.00  0.00     0.115 C 
HETATM    7  N   UNL     1      25.900  44.302  49.570  1.00  0.00    -0.353 N 
HETATM    8  C   UNL     1      26.611  43.167  49.870  1.00  0.00     0.249 C 
HETATM    9  O   UNL     1      27.236  42.584  48.991  1.00  0.00    -0.271 OA
HETATM   10  C   UNL     1      25.931  45.727  52.466  1.00  0.00     0.035 C 
HETATM   11  C   UNL     1      25.446  47.120  52.076  1.00  0.00     0.002 C 
HETATM   12  C   UNL     1      25.324  47.252  50.562  1.00  0.00     0.002 C 
HETATM   13  C   UNL     1      24.378  46.200  49.985  1.00  0.00     0.027 C 
HETATM   14  H   UNL     1      25.870  44.477  48.566  1.00  0.00     0.163 HD
ENDROOT
BRANCH   1  15
HETATM   15  C   UNL     1      28.106  43.153  51.850  1.00  0.00     0.146 C 
BRANCH  15  16
HETATM   16  C   UNL     1      28.732  42.146  52.769  1.00  0.00     0.224 C 
HETATM   17  N   UNL     1      29.192  42.482  54.000  1.00  0.00    -0.325 N 
HETATM   18  H   UNL     1      29.562  41.676  54.506  1.00  0.00     0.169 HD
HETATM   19  O   UNL     1      28.774  40.960  52.418  1.00  0.00    -0.273 OA
BRANCH  17  20
HETATM   20  C   UNL     1      29.240  43.676  54.753  1.00  0.00     0.073 A 
HETATM   21  C   UNL     1      28.247  44.650  54.836  1.00  0.00     0.033 A 
HETATM   22  C   UNL     1      28.432  45.782  55.644  1.00  0.00     0.002 A 
HETATM   23  C   UNL     1      29.606  45.955  56.375  1.00  0.00     0.003 A 
HETATM   24  C   UNL     1      30.609  44.996  56.298  1.00  0.00     0.044 A 
HETATM   25  C   UNL     1      30.419  43.878  55.493  1.00  0.00     0.143 A 
HETATM   26  F   UNL     1      31.391  42.953  55.432  1.00  0.00    -0.204 F 
ENDBRANCH  17  20
ENDBRANCH  15  16
ENDBRANCH   1  15
TORSDOF 3
ENDMDL
MODEL 5
REMARK VINA RESULT:      -7.9     14.436     16.187
REMARK  3 active torsions:
REMARK  status: ('A' for Active; 'I' for Inactive)
REMARK    1  A    between atoms: C_3  and  N_4 
REMARK       I    between atoms: N_4  and  C_5 
REMARK    2  A    between atoms: C_5  and  C_6 
REMARK    3  A    between atoms: C_6  and  C_7 
ROOT
HETATM    1  C   UNL     1      31.784  48.476  40.239  1.00  0.00     0.286 C 
HETATM    2  N   UNL     1      31.943  49.944  39.849  1.00  0.00    -0.056 N 
HETATM    3  H   UNL     1      32.596  49.973  39.054  1.00  0.00     0.278 HD
HETATM    4  H   UNL     1      31.040  50.262  39.437  1.00  0.00     0.278 HD
HETATM    5  C   UNL     1      32.433  50.901  40.895  1.00  0.00     0.209 C 
HETATM    6  C   UNL     1      33.677  50.307  41.597  1.00  0.00     0.115 C 
HETATM    7  N   UNL     1      33.491  48.915  42.000  1.00  0.00    -0.353 N 
HETATM    8  C   UNL     1      32.869  47.983  41.209  1.00  0.00     0.249 C 
HETATM    9  O   UNL     1      33.101  46.790  41.367  1.00  0.00    -0.271 OA
HETATM   10  C   UNL     1      31.303  51.283  41.851  1.00  0.00     0.035 C 
HETATM   11  C   UNL     1      31.812  52.179  42.977  1.00  0.00     0.002 C 
HETATM   12  C   UNL     1      32.963  51.515  43.726  1.00  0.00     0.002 C 
HETATM   13  C   UNL     1      34.116  51.170  42.785  1.00  0.00     0.027 C 
HETATM   14  H   UNL     1      34.212  48.494  42.587  1.00  0.00     0.163 HD
ENDROOT
BRANCH   1  15
HETATM   15  C   UNL     1      30.418  48.128  40.853  1.00  0.00     0.146 C 
BRANCH  15  16
HETATM   16  C   UNL     1      29.320  47.973  39.843  1.00  0.00     0.224 C 
HETATM   17  N   UNL     1      28.495  48.997  39.510  1.00  0.00    -0.325 N 
HETATM   18  H   UNL     1      27.822  48.732  38.789  1.00  0.00     0.169 HD
HETATM   19  O   UNL     1      29.201  46.892  39.249  1.00  0.00    -0.273 OA
BRANCH  17  20
HETATM   20  C   UNL     1      28.381  50.350  39.901  1.00  0.00     0.073 A 
HETATM   21  C   UNL     1      27.786  50.834  41.064  1.00  0.00     0.033 A 
HETATM   22  C   UNL     1      27.764  52.212  41.327  1.00  0.00     0.002 A 
HETATM   23  C   UNL     1      28.331  53.119  40.433  1.00  0.00     0.003 A 
HETATM   24  C   UNL     1      28.921  52.653  39.265  1.00  0.00     0.044 A 
HETATM   25  C   UNL     1      28.938  51.285  39.011  1.00  0.00     0.143 A 
HETATM   26  F   UNL     1      29.518  50.845  37.883  1.00  0.00    -0.204 F 
ENDBRANCH  17  20
ENDBRANCH  15  16
ENDBRANCH   1  15
TORSDOF 3
ENDMDL
MODEL 6
REMARK VINA RESULT:      -7.6     14.193     15.344
REMARK  3 active torsions:
REMARK  status: ('A' for Active; 'I' for Inactive)
REMARK    1  A    between atoms: C_3  and  N_4 
REMARK       I    between atoms: N_4  and  C_5 
REMARK    2  A    between atoms: C_5  and  C_6 
REMARK    3  A    between atoms: C_6  and  C_7 
ROOT
HETATM    1  C   UNL     1      29.801  47.687  40.973  1.00  0.00     0.286 C 
HETATM    2  N   UNL     1      29.158  48.946  41.552  1.00  0.00    -0.056 N 
HETATM    3  H   UNL     1      28.736  48.678  42.451  1.00  0.00     0.278 HD
HETATM    4  H   UNL     1      29.926  49.596  41.825  1.00  0.00     0.278 HD
HETATM    5  C   UNL     1      28.116  49.645  40.731  1.00  0.00     0.209 C 
HETATM    6  C   UNL     1      27.092  48.611  40.206  1.00  0.00     0.115 C 
HETATM    7  N   UNL     1      27.725  47.433  39.618  1.00  0.00    -0.353 N 
HETATM    8  C   UNL     1      28.821  46.819  40.168  1.00  0.00     0.249 C 
HETATM    9  O   UNL     1      29.056  45.642  39.918  1.00  0.00    -0.271 OA
HETATM   10  C   UNL     1      28.765  50.488  39.634  1.00  0.00     0.035 C 
HETATM   11  C   UNL     1      27.712  51.127  38.732  1.00  0.00     0.002 C 
HETATM   12  C   UNL     1      26.790  50.069  38.136  1.00  0.00     0.002 C 
HETATM   13  C   UNL     1      26.101  49.250  39.227  1.00  0.00     0.027 C 
HETATM   14  H   UNL     1      27.124  46.769  39.129  1.00  0.00     0.163 HD
ENDROOT
BRANCH   1  15
HETATM   15  C   UNL     1      31.026  47.954  40.081  1.00  0.00     0.146 C 
BRANCH  15  16
HETATM   16  C   UNL     1      32.305  48.132  40.845  1.00  0.00     0.224 C 
HETATM   17  N   UNL     1      32.731  49.349  41.265  1.00  0.00    -0.325 N 
HETATM   18  H   UNL     1      33.604  49.290  41.793  1.00  0.00     0.169 HD
HETATM   19  O   UNL     1      32.962  47.128  41.154  1.00  0.00    -0.273 OA
BRANCH  17  20
HETATM   20  C   UNL     1      32.227  50.665  41.176  1.00  0.00     0.073 A 
HETATM   21  C   UNL     1      32.282  51.505  40.065  1.00  0.00     0.033 A 
HETATM   22  C   UNL     1      31.718  52.789  40.120  1.00  0.00     0.002 A 
HETATM   23  C   UNL     1      31.098  53.247  41.281  1.00  0.00     0.003 A 
HETATM   24  C   UNL     1      31.041  52.425  42.399  1.00  0.00     0.044 A 
HETATM   25  C   UNL     1      31.603  51.154  42.337  1.00  0.00     0.143 A 
HETATM   26  F   UNL     1      31.535  50.364  43.421  1.00  0.00    -0.204 F 
ENDBRANCH  17  20
ENDBRANCH  15  16
ENDBRANCH   1  15
TORSDOF 3
ENDMDL
MODEL 7
REMARK VINA RESULT:      -7.5     14.699     16.778
REMARK  3 active torsions:
REMARK  status: ('A' for Active; 'I' for Inactive)
REMARK    1  A    between atoms: C_3  and  N_4 
REMARK       I    between atoms: N_4  and  C_5 
REMARK    2  A    between atoms: C_5  and  C_6 
REMARK    3  A    between atoms: C_6  and  C_7 
ROOT
HETATM    1  C   UNL     1      32.993  52.490  40.579  1.00  0.00     0.286 C 
HETATM    2  N   UNL     1      32.735  52.020  42.009  1.00  0.00    -0.056 N 
HETATM    3  H   UNL     1      33.520  52.358  42.580  1.00  0.00     0.278 HD
HETATM    4  H   UNL     1      31.917  52.553  42.375  1.00  0.00     0.278 HD
HETATM    5  C   UNL     1      32.577  50.548  42.248  1.00  0.00     0.209 C 
HETATM    6  C   UNL     1      33.722  49.784  41.541  1.00  0.00     0.115 C 
HETATM    7  N   UNL     1      33.927  50.217  40.161  1.00  0.00    -0.353 N 
HETATM    8  C   UNL     1      33.890  51.534  39.777  1.00  0.00     0.249 C 
HETATM    9  O   UNL     1      34.467  51.892  38.756  1.00  0.00    -0.271 OA
HETATM   10  C   UNL     1      31.178  50.080  41.847  1.00  0.00     0.035 C 
HETATM   11  C   UNL     1      31.038  48.567  41.995  1.00  0.00     0.002 C 
HETATM   12  C   UNL     1      32.110  47.839  41.190  1.00  0.00     0.002 C 
HETATM   13  C   UNL     1      33.514  48.267  41.616  1.00  0.00     0.027 C 
HETATM   14  H   UNL     1      34.570  49.672  39.586  1.00  0.00     0.163 HD
ENDROOT
BRANCH   1  15
HETATM   15  C   UNL     1      31.720  52.736  39.753  1.00  0.00     0.146 C 
BRANCH  15  16
HETATM   16  C   UNL     1      30.763  53.704  40.385  1.00  0.00     0.224 C 
HETATM   17  N   UNL     1      29.439  53.435  40.507  1.00  0.00    -0.325 N 
HETATM   18  H   UNL     1      28.936  54.185  40.983  1.00  0.00     0.169 HD
HETATM   19  O   UNL     1      31.207  54.755  40.866  1.00  0.00    -0.273 OA
BRANCH  17  20
HETATM   20  C   UNL     1      28.610  52.344  40.163  1.00  0.00     0.073 A 
HETATM   21  C   UNL     1      28.046  51.417  41.037  1.00  0.00     0.033 A 
HETATM   22  C   UNL     1      27.223  50.392  40.547  1.00  0.00     0.002 A 
HETATM   23  C   UNL     1      26.956  50.280  39.184  1.00  0.00     0.003 A 
HETATM   24  C   UNL     1      27.516  51.192  38.298  1.00  0.00     0.044 A 
HETATM   25  C   UNL     1      28.332  52.205  38.791  1.00  0.00     0.143 A 
HETATM   26  F   UNL     1      28.862  53.086  37.927  1.00  0.00    -0.204 F 
ENDBRANCH  17  20
ENDBRANCH  15  16
ENDBRANCH   1  15
TORSDOF 3
ENDMDL
MODEL 8
REMARK VINA RESULT:      -7.3     14.056     16.015
REMARK  3 active torsions:
REMARK  status: ('A' for Active; 'I' for Inactive)
REMARK    1  A    between atoms: C_3  and  N_4 
REMARK       I    between atoms: N_4  and  C_5 
REMARK    2  A    between atoms: C_5  and  C_6 
REMARK    3  A    between atoms: C_6  and  C_7 
ROOT
HETATM    1  C   UNL     1      32.576  50.018  42.048  1.00  0.00     0.286 C 
HETATM    2  N   UNL     1      32.773  50.502  40.613  1.00  0.00    -0.056 N 
HETATM    3  H   UNL     1      33.724  50.888  40.557  1.00  0.00     0.278 HD
HETATM    4  H   UNL     1      32.811  49.662  39.998  1.00  0.00     0.278 HD
HETATM    5  C   UNL     1      31.816  51.527  40.079  1.00  0.00     0.209 C 
HETATM    6  C   UNL     1      31.661  52.673  41.106  1.00  0.00     0.115 C 
HETATM    7  N   UNL     1      31.431  52.192  42.466  1.00  0.00    -0.353 N 
HETATM    8  C   UNL     1      32.103  51.123  43.004  1.00  0.00     0.249 C 
HETATM    9  O   UNL     1      32.209  51.016  44.221  1.00  0.00    -0.271 OA
HETATM   10  C   UNL     1      30.495  50.875  39.672  1.00  0.00     0.035 C 
HETATM   11  C   UNL     1      29.480  51.920  39.218  1.00  0.00     0.002 C 
HETATM   12  C   UNL     1      29.260  52.974  40.299  1.00  0.00     0.002 C 
HETATM   13  C   UNL     1      30.570  53.663  40.681  1.00  0.00     0.027 C 
HETATM   14  H   UNL     1      31.185  52.882  43.175  1.00  0.00     0.163 HD
ENDROOT
BRANCH   1  15
HETATM   15  C   UNL     1      31.604  48.834  42.189  1.00  0.00     0.146 C 
BRANCH  15  16
HETATM   16  C   UNL     1      31.833  47.738  41.191  1.00  0.00     0.224 C 
HETATM   17  N   UNL     1      30.845  47.280  40.382  1.00  0.00    -0.325 N 
HETATM   18  H   UNL     1      31.174  46.554  39.744  1.00  0.00     0.169 HD
HETATM   19  O   UNL     1      32.975  47.279  41.058  1.00  0.00    -0.273 OA
BRANCH  17  20
HETATM   20  C   UNL     1      29.483  47.604  40.194  1.00  0.00     0.073 A 
HETATM   21  C   UNL     1      28.573  47.984  41.179  1.00  0.00     0.033 A 
HETATM   22  C   UNL     1      27.248  48.295  40.836  1.00  0.00     0.002 A 
HETATM   23  C   UNL     1      26.818  48.228  39.512  1.00  0.00     0.003 A 
HETATM   24  C   UNL     1      27.712  47.845  38.519  1.00  0.00     0.044 A 
HETATM   25  C   UNL     1      29.023  47.537  38.867  1.00  0.00     0.143 A 
HETATM   26  F   UNL     1      29.880  47.175  37.899  1.00  0.00    -0.204 F 
ENDBRANCH  17  20
ENDBRANCH  15  16
ENDBRANCH   1  15
TORSDOF 3
ENDMDL
MODEL 9
REMARK VINA RESULT:      -7.3     14.155     15.862
REMARK  3 active torsions:
REMARK  status: ('A' for Active; 'I' for Inactive)
REMARK    1  A    between atoms: C_3  and  N_4 
REMARK       I    between atoms: N_4  and  C_5 
REMARK    2  A    between atoms: C_5  and  C_6 
REMARK    3  A    between atoms: C_6  and  C_7 
ROOT
HETATM    1  C   UNL     1      32.411  52.107  41.240  1.00  0.00     0.286 C 
HETATM    2  N   UNL     1      31.711  53.270  40.538  1.00  0.00    -0.056 N 
HETATM    3  H   UNL     1      31.868  54.105  41.117  1.00  0.00     0.278 HD
HETATM    4  H   UNL     1      32.239  53.474  39.662  1.00  0.00     0.278 HD
HETATM    5  C   UNL     1      30.240  53.149  40.274  1.00  0.00     0.209 C 
HETATM    6  C   UNL     1      29.521  52.678  41.560  1.00  0.00     0.115 C 
HETATM    7  N   UNL     1      30.180  51.539  42.194  1.00  0.00    -0.353 N 
HETATM    8  C   UNL     1      31.543  51.434  42.314  1.00  0.00     0.249 C 
HETATM    9  O   UNL     1      32.030  50.726  43.189  1.00  0.00    -0.271 OA
HETATM   10  C   UNL     1      29.978  52.264  39.056  1.00  0.00     0.035 C 
HETATM   11  C   UNL     1      28.482  52.055  38.836  1.00  0.00     0.002 C 
HETATM   12  C   UNL     1      27.822  51.478  40.084  1.00  0.00     0.002 C 
HETATM   13  C   UNL     1      28.040  52.380  41.298  1.00  0.00     0.027 C 
HETATM   14  H   UNL     1      29.695  51.084  42.968  1.00  0.00     0.163 HD
ENDROOT
BRANCH   1  15
HETATM   15  C   UNL     1      32.915  51.006  40.292  1.00  0.00     0.146 C 
BRANCH  15  16
HETATM   16  C   UNL     1      33.251  49.717  40.983  1.00  0.00     0.224 C 
HETATM   17  N   UNL     1      32.418  48.648  40.961  1.00  0.00    -0.325 N 
HETATM   18  H   UNL     1      32.809  47.844  41.455  1.00  0.00     0.169 HD
HETATM   19  O   UNL     1      34.352  49.607  41.539  1.00  0.00    -0.273 OA
BRANCH  17  20
HETATM   20  C   UNL     1      31.158  48.379  40.380  1.00  0.00     0.073 A 
HETATM   21  C   UNL     1      30.872  48.275  39.020  1.00  0.00     0.033 A 
HETATM   22  C   UNL     1      29.568  47.985  38.591  1.00  0.00     0.002 A 
HETATM   23  C   UNL     1      28.538  47.799  39.512  1.00  0.00     0.003 A 
HETATM   24  C   UNL     1      28.805  47.907  40.871  1.00  0.00     0.044 A 
HETATM   25  C   UNL     1      30.100  48.196  41.288  1.00  0.00     0.143 A 
HETATM   26  F   UNL     1      30.349  48.290  42.604  1.00  0.00    -0.204 F 
ENDBRANCH  17  20
ENDBRANCH  15  16
ENDBRANCH   1  15
TORSDOF 3
ENDMDL
MODEL 10
REMARK VINA RESULT:      -7.2     13.683     15.928
REMARK  3 active torsions:
REMARK  status: ('A' for Active; 'I' for Inactive)
REMARK    1  A    between atoms: C_3  and  N_4 
REMARK       I    between atoms: N_4  and  C_5 
REMARK    2  A    between atoms: C_5  and  C_6 
REMARK    3  A    between atoms: C_6  and  C_7 
ROOT
HETATM    1  C   UNL     1      30.306  47.575  40.001  1.00  0.00     0.286 C 
HETATM    2  N   UNL     1      31.811  47.744  40.197  1.00  0.00    -0.056 N 
HETATM    3  H   UNL     1      32.152  46.882  40.643  1.00  0.00     0.278 HD
HETATM    4  H   UNL     1      32.258  47.727  39.255  1.00  0.00     0.278 HD
HETATM    5  C   UNL     1      32.288  48.913  41.006  1.00  0.00     0.209 C 
HETATM    6  C   UNL     1      31.478  48.997  42.321  1.00  0.00     0.115 C 
HETATM    7  N   UNL     1      30.037  48.876  42.109  1.00  0.00    -0.353 N 
HETATM    8  C   UNL     1      29.483  47.977  41.234  1.00  0.00     0.249 C 
HETATM    9  O   UNL     1      28.324  47.607  41.386  1.00  0.00    -0.271 OA
HETATM   10  C   UNL     1      32.259  50.196  40.176  1.00  0.00     0.035 C 
HETATM   11  C   UNL     1      32.649  51.408  41.016  1.00  0.00     0.002 C 
HETATM   12  C   UNL     1      31.754  51.531  42.246  1.00  0.00     0.002 C 
HETATM   13  C   UNL     1      31.813  50.270  43.107  1.00  0.00     0.027 C 
HETATM   14  H   UNL     1      29.427  49.056  42.906  1.00  0.00     0.163 HD
ENDROOT
BRANCH   1  15
HETATM   15  C   UNL     1      29.736  48.337  38.793  1.00  0.00     0.146 C 
BRANCH  15  16
HETATM   16  C   UNL     1      28.245  48.505  38.829  1.00  0.00     0.224 C 
HETATM   17  N   UNL     1      27.659  49.686  39.147  1.00  0.00    -0.325 N 
HETATM   18  H   UNL     1      26.641  49.637  39.099  1.00  0.00     0.169 HD
HETATM   19  O   UNL     1      27.527  47.551  38.500  1.00  0.00    -0.273 OA
BRANCH  17  20
HETATM   20  C   UNL     1      28.135  50.972  39.489  1.00  0.00     0.073 A 
HETATM   21  C   UNL     1      28.777  51.875  38.644  1.00  0.00     0.033 A 
HETATM   22  C   UNL     1      29.178  53.131  39.124  1.00  0.00     0.002 A 
HETATM   23  C   UNL     1      28.946  53.497  40.448  1.00  0.00     0.003 A 
HETATM   24  C   UNL     1      28.313  52.605  41.306  1.00  0.00     0.044 A 
HETATM   25  C   UNL     1      27.919  51.362  40.822  1.00  0.00     0.143 A 
HETATM   26  F   UNL     1      27.301  50.511  41.657  1.00  0.00    -0.204 F 
ENDBRANCH  17  20
ENDBRANCH  15  16
ENDBRANCH   1  15
TORSDOF 3
ENDMDL
