MODEL 1
REMARK VINA RESULT:      -8.2      0.000      0.000
REMARK  2 active torsions:
REMARK  status: ('A' for Active; 'I' for Inactive)
REMARK    1  A    between atoms: C_7  and  C_8 
REMARK    2  A    between atoms: C_8  and  O_9 
ROOT
HETATM    1  C   UNL     1      25.980  45.567  53.491  1.00  0.00     0.199 A 
HETATM    2  C   UNL     1      25.086  44.364  53.970  1.00  0.00     0.266 A 
HETATM    3  O   UNL     1      24.523  44.207  55.043  1.00  0.00    -0.269 OA
HETATM    4  N   UNL     1      24.980  43.478  52.896  1.00  0.00    -0.323 N 
HETATM    5  C   UNL     1      25.711  43.913  51.802  1.00  0.00     0.045 A 
HETATM    6  C   UNL     1      26.342  45.127  52.088  1.00  0.00     0.017 A 
HETATM    7  C   UNL     1      25.834  43.282  50.583  1.00  0.00     0.030 A 
HETATM    8  C   UNL     1      26.620  43.908  49.612  1.00  0.00     0.002 A 
HETATM    9  C   UNL     1      27.254  45.135  49.879  1.00  0.00     0.001 A 
HETATM   10  C   UNL     1      27.114  45.758  51.123  1.00  0.00     0.013 A 
HETATM   11  H   UNL     1      24.442  42.625  52.949  1.00  0.00     0.169 HD
ENDROOT
BRANCH   1  12
HETATM   12  C   UNL     1      27.264  45.695  54.287  1.00  0.00     0.025 A 
HETATM   13  C   UNL     1      27.747  46.813  54.975  1.00  0.00     0.016 A 
HETATM   14  C   UNL     1      27.195  48.183  55.164  1.00  0.00     0.069 C 
HETATM   15  N   UNL     1      28.952  46.480  55.540  1.00  0.00    -0.359 N 
HETATM   16  H   UNL     1      29.527  47.101  56.092  1.00  0.00     0.166 HD
HETATM   17  C   UNL     1      29.296  45.189  55.239  1.00  0.00     0.043 A 
HETATM   18  C   UNL     1      28.268  44.665  54.455  1.00  0.00     0.003 A 
HETATM   19  C   UNL     1      30.438  44.462  55.596  1.00  0.00     0.030 A 
HETATM   20  C   UNL     1      28.408  43.331  54.009  1.00  0.00     0.014 A 
HETATM   21  C   UNL     1      29.542  42.586  54.355  1.00  0.00     0.001 A 
HETATM   22  C   UNL     1      30.544  43.147  55.139  1.00  0.00     0.002 A 
ENDBRANCH   1  12
BRANCH   1  23
HETATM   23  O   UNL     1      25.218  46.766  53.398  1.00  0.00    -0.371 OA
HETATM   24  H   UNL     1      25.167  46.992  52.455  1.00  0.00     0.212 HD
ENDBRANCH   1  23
TORSDOF 2
ENDMDL
MODEL 2
REMARK VINA RESULT:      -7.8      2.421      5.013
REMARK  2 active torsions:
REMARK  status: ('A' for Active; 'I' for Inactive)
REMARK    1  A    between atoms: C_7  and  C_8 
REMARK    2  A    between atoms: C_8  and  O_9 
ROOT
HETATM    1  C   UNL     1      25.660  44.093  52.879  1.00  0.00     0.199 A 
HETATM    2  C   UNL     1      25.347  44.135  54.420  1.00  0.00     0.266 A 
HETATM    3  O   UNL     1      24.285  44.360  54.981  1.00  0.00    -0.269 OA
HETATM    4  N   UNL     1      26.527  43.798  55.088  1.00  0.00    -0.323 N 
HETATM    5  C   UNL     1      27.570  43.583  54.201  1.00  0.00     0.045 A 
HETATM    6  C   UNL     1      27.137  43.759  52.884  1.00  0.00     0.017 A 
HETATM    7  C   UNL     1      28.869  43.243  54.516  1.00  0.00     0.030 A 
HETATM    8  C   UNL     1      29.761  43.066  53.456  1.00  0.00     0.002 A 
HETATM    9  C   UNL     1      29.340  43.229  52.124  1.00  0.00     0.001 A 
HETATM   10  C   UNL     1      28.017  43.573  51.828  1.00  0.00     0.013 A 
HETATM   11  H   UNL     1      26.582  43.743  56.094  1.00  0.00     0.169 HD
ENDROOT
BRANCH   1  12
HETATM   12  C   UNL     1      25.489  45.443  52.210  1.00  0.00     0.025 A 
HETATM   13  C   UNL     1      26.012  46.678  52.608  1.00  0.00     0.016 A 
HETATM   14  C   UNL     1      26.877  47.071  53.754  1.00  0.00     0.069 C 
HETATM   15  N   UNL     1      25.591  47.629  51.714  1.00  0.00    -0.359 N 
HETATM   16  H   UNL     1      25.818  48.613  51.762  1.00  0.00     0.166 HD
HETATM   17  C   UNL     1      24.794  47.076  50.748  1.00  0.00     0.043 A 
HETATM   18  C   UNL     1      24.703  45.712  51.024  1.00  0.00     0.003 A 
HETATM   19  C   UNL     1      24.148  47.687  49.665  1.00  0.00     0.030 A 
HETATM   20  C   UNL     1      23.913  44.926  50.155  1.00  0.00     0.014 A 
HETATM   21  C   UNL     1      23.259  45.516  49.067  1.00  0.00     0.001 A 
HETATM   22  C   UNL     1      23.376  46.881  48.827  1.00  0.00     0.002 A 
ENDBRANCH   1  12
BRANCH   1  23
HETATM   23  O   UNL     1      24.966  43.024  52.243  1.00  0.00    -0.371 OA
HETATM   24  H   UNL     1      24.816  43.297  51.324  1.00  0.00     0.212 HD
ENDBRANCH   1  23
TORSDOF 2
ENDMDL
MODEL 3
REMARK VINA RESULT:      -7.8      1.726      2.549
REMARK  2 active torsions:
REMARK  status: ('A' for Active; 'I' for Inactive)
REMARK    1  A    between atoms: C_7  and  C_8 
REMARK    2  A    between atoms: C_8  and  O_9 
ROOT
HETATM    1  C   UNL     1      26.140  45.754  53.883  1.00  0.00     0.199 A 
HETATM    2  C   UNL     1      24.990  44.681  53.843  1.00  0.00     0.266 A 
HETATM    3  O   UNL     1      24.610  43.931  54.729  1.00  0.00    -0.269 OA
HETATM    4  N   UNL     1      24.396  44.762  52.581  1.00  0.00    -0.323 N 
HETATM    5  C   UNL     1      25.023  45.707  51.783  1.00  0.00     0.045 A 
HETATM    6  C   UNL     1      26.071  46.316  52.478  1.00  0.00     0.017 A 
HETATM    7  C   UNL     1      24.701  46.039  50.484  1.00  0.00     0.030 A 
HETATM    8  C   UNL     1      25.465  47.032  49.867  1.00  0.00     0.002 A 
HETATM    9  C   UNL     1      26.518  47.664  50.556  1.00  0.00     0.001 A 
HETATM   10  C   UNL     1      26.825  47.311  51.874  1.00  0.00     0.013 A 
HETATM   11  H   UNL     1      23.619  44.178  52.310  1.00  0.00     0.169 HD
ENDROOT
BRANCH   1  12
HETATM   12  C   UNL     1      27.511  45.137  54.072  1.00  0.00     0.025 A 
HETATM   13  C   UNL     1      28.183  44.246  53.227  1.00  0.00     0.016 A 
HETATM   14  C   UNL     1      27.810  43.640  51.920  1.00  0.00     0.069 C 
HETATM   15  N   UNL     1      29.390  43.940  53.802  1.00  0.00    -0.359 N 
HETATM   16  H   UNL     1      30.079  43.314  53.408  1.00  0.00     0.166 HD
HETATM   17  C   UNL     1      29.539  44.579  55.003  1.00  0.00     0.043 A 
HETATM   18  C   UNL     1      28.385  45.335  55.210  1.00  0.00     0.003 A 
HETATM   19  C   UNL     1      30.602  44.534  55.914  1.00  0.00     0.030 A 
HETATM   20  C   UNL     1      28.305  46.083  56.407  1.00  0.00     0.014 A 
HETATM   21  C   UNL     1      29.356  46.051  57.331  1.00  0.00     0.001 A 
HETATM   22  C   UNL     1      30.490  45.284  57.085  1.00  0.00     0.002 A 
ENDBRANCH   1  12
BRANCH   1  23
HETATM   23  O   UNL     1      25.830  46.803  54.796  1.00  0.00    -0.371 OA
HETATM   24  H   UNL     1      26.041  46.471  55.684  1.00  0.00     0.212 HD
ENDBRANCH   1  23
TORSDOF 2
ENDMDL
MODEL 4
REMARK VINA RESULT:      -7.8     12.865     14.835
REMARK  2 active torsions:
REMARK  status: ('A' for Active; 'I' for Inactive)
REMARK    1  A    between atoms: C_7  and  C_8 
REMARK    2  A    between atoms: C_8  and  O_9 
ROOT
HETATM    1  C   UNL     1      32.249  50.022  42.046  1.00  0.00     0.199 A 
HETATM    2  C   UNL     1      32.656  48.813  41.126  1.00  0.00     0.266 A 
HETATM    3  O   UNL     1      33.269  47.798  41.420  1.00  0.00    -0.269 OA
HETATM    4  N   UNL     1      32.128  49.066  39.857  1.00  0.00    -0.323 N 
HETATM    5  C   UNL     1      31.471  50.285  39.813  1.00  0.00     0.045 A 
HETATM    6  C   UNL     1      31.519  50.913  41.061  1.00  0.00     0.017 A 
HETATM    7  C   UNL     1      30.842  50.849  38.723  1.00  0.00     0.030 A 
HETATM    8  C   UNL     1      30.231  52.092  38.906  1.00  0.00     0.002 A 
HETATM    9  C   UNL     1      30.261  52.732  40.158  1.00  0.00     0.001 A 
HETATM   10  C   UNL     1      30.904  52.141  41.250  1.00  0.00     0.013 A 
HETATM   11  H   UNL     1      32.244  48.425  39.086  1.00  0.00     0.169 HD
ENDROOT
BRANCH   1  12
HETATM   12  C   UNL     1      33.447  50.790  42.570  1.00  0.00     0.025 A 
HETATM   13  C   UNL     1      33.535  51.571  43.728  1.00  0.00     0.016 A 
HETATM   14  C   UNL     1      32.543  51.893  44.790  1.00  0.00     0.069 C 
HETATM   15  N   UNL     1      34.803  52.088  43.799  1.00  0.00    -0.359 N 
HETATM   16  H   UNL     1      35.143  52.693  44.533  1.00  0.00     0.166 HD
HETATM   17  C   UNL     1      35.556  51.694  42.726  1.00  0.00     0.043 A 
HETATM   18  C   UNL     1      34.743  50.884  41.933  1.00  0.00     0.003 A 
HETATM   19  C   UNL     1      36.883  52.003  42.403  1.00  0.00     0.030 A 
HETATM   20  C   UNL     1      35.308  50.361  40.747  1.00  0.00     0.014 A 
HETATM   21  C   UNL     1      36.633  50.658  40.406  1.00  0.00     0.001 A 
HETATM   22  C   UNL     1      37.409  51.470  41.225  1.00  0.00     0.002 A 
ENDBRANCH   1  12
BRANCH   1  23
HETATM   23  O   UNL     1      31.321  49.615  43.047  1.00  0.00    -0.371 OA
HETATM   24  H   UNL     1      31.560  50.092  43.859  1.00  0.00     0.212 HD
ENDBRANCH   1  23
TORSDOF 2
ENDMDL
MODEL 5
REMARK VINA RESULT:      -7.8     12.627     14.399
REMARK  2 active torsions:
REMARK  status: ('A' for Active; 'I' for Inactive)
REMARK    1  A    between atoms: C_7  and  C_8 
REMARK    2  A    between atoms: C_8  and  O_9 
ROOT
HETATM    1  C   UNL     1      31.480  49.305  42.100  1.00  0.00     0.199 A 
HETATM    2  C   UNL     1      32.645  48.809  41.166  1.00  0.00     0.266 A 
HETATM    3  O   UNL     1      33.828  49.113  41.188  1.00  0.00    -0.269 OA
HETATM    4  N   UNL     1      32.098  47.867  40.291  1.00  0.00    -0.323 N 
HETATM    5  C   UNL     1      30.736  47.710  40.498  1.00  0.00     0.045 A 
HETATM    6  C   UNL     1      30.301  48.540  41.535  1.00  0.00     0.017 A 
HETATM    7  C   UNL     1      29.885  46.872  39.812  1.00  0.00     0.030 A 
HETATM    8  C   UNL     1      28.541  46.867  40.194  1.00  0.00     0.002 A 
HETATM    9  C   UNL     1      28.087  47.689  41.242  1.00  0.00     0.001 A 
HETATM   10  C   UNL     1      28.970  48.531  41.926  1.00  0.00     0.013 A 
HETATM   11  H   UNL     1      32.651  47.389  39.596  1.00  0.00     0.169 HD
ENDROOT
BRANCH   1  12
HETATM   12  C   UNL     1      31.195  50.786  41.944  1.00  0.00     0.025 A 
HETATM   13  C   UNL     1      31.538  51.828  42.812  1.00  0.00     0.016 A 
HETATM   14  C   UNL     1      32.268  51.845  44.110  1.00  0.00     0.069 C 
HETATM   15  N   UNL     1      31.068  53.001  42.279  1.00  0.00    -0.359 N 
HETATM   16  H   UNL     1      31.171  53.914  42.700  1.00  0.00     0.166 HD
HETATM   17  C   UNL     1      30.411  52.775  41.098  1.00  0.00     0.043 A 
HETATM   18  C   UNL     1      30.466  51.403  40.856  1.00  0.00     0.003 A 
HETATM   19  C   UNL     1      29.773  53.682  40.243  1.00  0.00     0.030 A 
HETATM   20  C   UNL     1      29.838  50.926  39.683  1.00  0.00     0.014 A 
HETATM   21  C   UNL     1      29.194  51.816  38.815  1.00  0.00     0.001 A 
HETATM   22  C   UNL     1      29.163  53.178  39.094  1.00  0.00     0.002 A 
ENDBRANCH   1  12
BRANCH   1  23
HETATM   23  O   UNL     1      31.683  48.878  43.443  1.00  0.00    -0.371 OA
HETATM   24  H   UNL     1      30.862  48.442  43.724  1.00  0.00     0.212 HD
ENDBRANCH   1  23
TORSDOF 2
ENDMDL
MODEL 6
REMARK VINA RESULT:      -7.7     13.459     15.079
REMARK  2 active torsions:
REMARK  status: ('A' for Active; 'I' for Inactive)
REMARK    1  A    between atoms: C_7  and  C_8 
REMARK    2  A    between atoms: C_8  and  O_9 
ROOT
HETATM    1  C   UNL     1      30.628  51.611  40.005  1.00  0.00     0.199 A 
HETATM    2  C   UNL     1      31.270  51.094  38.666  1.00  0.00     0.266 A 
HETATM    3  O   UNL     1      30.793  51.081  37.541  1.00  0.00    -0.269 OA
HETATM    4  N   UNL     1      32.571  50.681  38.967  1.00  0.00    -0.323 N 
HETATM    5  C   UNL     1      32.849  50.819  40.318  1.00  0.00     0.045 A 
HETATM    6  C   UNL     1      31.743  51.341  40.994  1.00  0.00     0.017 A 
HETATM    7  C   UNL     1      34.028  50.501  40.957  1.00  0.00     0.030 A 
HETATM    8  C   UNL     1      34.094  50.730  42.334  1.00  0.00     0.002 A 
HETATM    9  C   UNL     1      32.994  51.265  43.029  1.00  0.00     0.001 A 
HETATM   10  C   UNL     1      31.807  51.581  42.359  1.00  0.00     0.013 A 
HETATM   11  H   UNL     1      33.199  50.317  38.265  1.00  0.00     0.169 HD
ENDROOT
BRANCH   1  12
HETATM   12  C   UNL     1      29.422  50.795  40.429  1.00  0.00     0.025 A 
HETATM   13  C   UNL     1      28.232  51.248  41.010  1.00  0.00     0.016 A 
HETATM   14  C   UNL     1      27.760  52.610  41.383  1.00  0.00     0.069 C 
HETATM   15  N   UNL     1      27.427  50.161  41.237  1.00  0.00    -0.359 N 
HETATM   16  H   UNL     1      26.507  50.197  41.654  1.00  0.00     0.166 HD
HETATM   17  C   UNL     1      28.042  49.003  40.845  1.00  0.00     0.043 A 
HETATM   18  C   UNL     1      29.292  49.356  40.337  1.00  0.00     0.003 A 
HETATM   19  C   UNL     1      27.585  47.681  40.913  1.00  0.00     0.030 A 
HETATM   20  C   UNL     1      30.123  48.310  39.874  1.00  0.00     0.014 A 
HETATM   21  C   UNL     1      29.686  46.982  39.934  1.00  0.00     0.001 A 
HETATM   22  C   UNL     1      28.431  46.673  40.448  1.00  0.00     0.002 A 
ENDBRANCH   1  12
BRANCH   1  23
HETATM   23  O   UNL     1      30.406  53.017  39.959  1.00  0.00    -0.371 OA
HETATM   24  H   UNL     1      29.475  53.160  40.197  1.00  0.00     0.212 HD
ENDBRANCH   1  23
TORSDOF 2
ENDMDL
MODEL 7
REMARK VINA RESULT:      -7.6      1.582      5.335
REMARK  2 active torsions:
REMARK  status: ('A' for Active; 'I' for Inactive)
REMARK    1  A    between atoms: C_7  and  C_8 
REMARK    2  A    between atoms: C_8  and  O_9 
ROOT
HETATM    1  C   UNL     1      27.007  43.815  54.174  1.00  0.00     0.199 A 
HETATM    2  C   UNL     1      26.427  45.127  54.819  1.00  0.00     0.266 A 
HETATM    3  O   UNL     1      25.286  45.562  54.778  1.00  0.00    -0.269 OA
HETATM    4  N   UNL     1      27.465  45.727  55.537  1.00  0.00    -0.323 N 
HETATM    5  C   UNL     1      28.646  45.012  55.417  1.00  0.00     0.045 A 
HETATM    6  C   UNL     1      28.456  43.885  54.612  1.00  0.00     0.017 A 
HETATM    7  C   UNL     1      29.863  45.320  55.986  1.00  0.00     0.030 A 
HETATM    8  C   UNL     1      30.928  44.450  55.738  1.00  0.00     0.002 A 
HETATM    9  C   UNL     1      30.751  43.305  54.939  1.00  0.00     0.001 A 
HETATM   10  C   UNL     1      29.506  43.011  54.372  1.00  0.00     0.013 A 
HETATM   11  H   UNL     1      27.340  46.584  56.055  1.00  0.00     0.169 HD
ENDROOT
BRANCH   1  12
HETATM   12  C   UNL     1      26.976  43.844  52.658  1.00  0.00     0.025 A 
HETATM   13  C   UNL     1      27.224  42.793  51.768  1.00  0.00     0.016 A 
HETATM   14  C   UNL     1      27.575  41.363  51.988  1.00  0.00     0.069 C 
HETATM   15  N   UNL     1      27.097  43.276  50.491  1.00  0.00    -0.359 N 
HETATM   16  H   UNL     1      27.227  42.733  49.649  1.00  0.00     0.166 HD
HETATM   17  C   UNL     1      26.791  44.611  50.498  1.00  0.00     0.043 A 
HETATM   18  C   UNL     1      26.709  45.004  51.834  1.00  0.00     0.003 A 
HETATM   19  C   UNL     1      26.592  45.487  49.425  1.00  0.00     0.030 A 
HETATM   20  C   UNL     1      26.410  46.361  52.093  1.00  0.00     0.014 A 
HETATM   21  C   UNL     1      26.207  47.254  51.035  1.00  0.00     0.001 A 
HETATM   22  C   UNL     1      26.298  46.820  49.717  1.00  0.00     0.002 A 
ENDBRANCH   1  12
BRANCH   1  23
HETATM   23  O   UNL     1      26.423  42.655  54.757  1.00  0.00    -0.371 OA
HETATM   24  H   UNL     1      25.766  42.325  54.123  1.00  0.00     0.212 HD
ENDBRANCH   1  23
TORSDOF 2
ENDMDL
MODEL 8
REMARK VINA RESULT:      -7.6      9.620     11.967
REMARK  2 active torsions:
REMARK  status: ('A' for Active; 'I' for Inactive)
REMARK    1  A    between atoms: C_7  and  C_8 
REMARK    2  A    between atoms: C_8  and  O_9 
ROOT
HETATM    1  C   UNL     1      19.157  48.206  49.608  1.00  0.00     0.199 A 
HETATM    2  C   UNL     1      18.934  48.870  51.016  1.00  0.00     0.266 A 
HETATM    3  O   UNL     1      18.173  48.535  51.911  1.00  0.00    -0.269 OA
HETATM    4  N   UNL     1      19.836  49.933  51.117  1.00  0.00    -0.323 N 
HETATM    5  C   UNL     1      20.585  50.077  49.959  1.00  0.00     0.045 A 
HETATM    6  C   UNL     1      20.224  49.107  49.020  1.00  0.00     0.017 A 
HETATM    7  C   UNL     1      21.557  51.022  49.713  1.00  0.00     0.030 A 
HETATM    8  C   UNL     1      22.196  50.979  48.471  1.00  0.00     0.002 A 
HETATM    9  C   UNL     1      21.852  50.003  47.518  1.00  0.00     0.001 A 
HETATM   10  C   UNL     1      20.863  49.052  47.790  1.00  0.00     0.013 A 
HETATM   11  H   UNL     1      19.898  50.514  51.940  1.00  0.00     0.169 HD
ENDROOT
BRANCH   1  12
HETATM   12  C   UNL     1      17.932  48.292  48.719  1.00  0.00     0.025 A 
HETATM   13  C   UNL     1      17.262  47.251  48.067  1.00  0.00     0.016 A 
HETATM   14  C   UNL     1      17.501  45.782  48.028  1.00  0.00     0.069 C 
HETATM   15  N   UNL     1      16.216  47.791  47.363  1.00  0.00    -0.359 N 
HETATM   16  H   UNL     1      15.566  47.266  46.794  1.00  0.00     0.166 HD
HETATM   17  C   UNL     1      16.175  49.151  47.509  1.00  0.00     0.043 A 
HETATM   18  C   UNL     1      17.233  49.504  48.347  1.00  0.00     0.003 A 
HETATM   19  C   UNL     1      15.289  50.083  46.955  1.00  0.00     0.030 A 
HETATM   20  C   UNL     1      17.400  50.877  48.638  1.00  0.00     0.014 A 
HETATM   21  C   UNL     1      16.525  51.825  48.095  1.00  0.00     0.001 A 
HETATM   22  C   UNL     1      15.483  51.431  47.263  1.00  0.00     0.002 A 
ENDBRANCH   1  12
BRANCH   1  23
HETATM   23  O   UNL     1      19.704  46.898  49.739  1.00  0.00    -0.371 OA
HETATM   24  H   UNL     1      19.004  46.339  50.114  1.00  0.00     0.212 HD
ENDBRANCH   1  23
TORSDOF 2
ENDMDL
MODEL 9
REMARK VINA RESULT:      -7.5     12.683     14.298
REMARK  2 active torsions:
REMARK  status: ('A' for Active; 'I' for Inactive)
REMARK    1  A    between atoms: C_7  and  C_8 
REMARK    2  A    between atoms: C_8  and  O_9 
ROOT
HETATM    1  C   UNL     1      28.993  49.509  41.429  1.00  0.00     0.199 A 
HETATM    2  C   UNL     1      28.271  50.763  40.813  1.00  0.00     0.266 A 
HETATM    3  O   UNL     1      27.216  50.816  40.198  1.00  0.00    -0.269 OA
HETATM    4  N   UNL     1      29.038  51.883  41.145  1.00  0.00    -0.323 N 
HETATM    5  C   UNL     1      30.175  51.529  41.855  1.00  0.00     0.045 A 
HETATM    6  C   UNL     1      30.224  50.145  42.041  1.00  0.00     0.017 A 
HETATM    7  C   UNL     1      31.151  52.378  42.332  1.00  0.00     0.030 A 
HETATM    8  C   UNL     1      32.214  51.804  43.033  1.00  0.00     0.002 A 
HETATM    9  C   UNL     1      32.274  50.413  43.239  1.00  0.00     0.001 A 
HETATM   10  C   UNL     1      31.272  49.572  42.746  1.00  0.00     0.013 A 
HETATM   11  H   UNL     1      28.775  52.818  40.872  1.00  0.00     0.169 HD
ENDROOT
BRANCH   1  12
HETATM   12  C   UNL     1      29.454  48.521  40.375  1.00  0.00     0.025 A 
HETATM   13  C   UNL     1      30.407  48.712  39.368  1.00  0.00     0.016 A 
HETATM   14  C   UNL     1      31.257  49.881  39.010  1.00  0.00     0.069 C 
HETATM   15  N   UNL     1      30.494  47.556  38.636  1.00  0.00    -0.359 N 
HETATM   16  H   UNL     1      31.103  47.415  37.842  1.00  0.00     0.166 HD
HETATM   17  C   UNL     1      29.624  46.609  39.108  1.00  0.00     0.043 A 
HETATM   18  C   UNL     1      28.953  47.175  40.192  1.00  0.00     0.003 A 
HETATM   19  C   UNL     1      29.382  45.309  38.647  1.00  0.00     0.030 A 
HETATM   20  C   UNL     1      27.984  46.378  40.843  1.00  0.00     0.014 A 
HETATM   21  C   UNL     1      27.727  45.075  40.398  1.00  0.00     0.001 A 
HETATM   22  C   UNL     1      28.419  44.549  39.312  1.00  0.00     0.002 A 
ENDBRANCH   1  12
BRANCH   1  23
HETATM   23  O   UNL     1      28.221  48.937  42.480  1.00  0.00    -0.371 OA
HETATM   24  H   UNL     1      28.406  49.458  43.278  1.00  0.00     0.212 HD
ENDBRANCH   1  23
TORSDOF 2
ENDMDL
MODEL 10
REMARK VINA RESULT:      -7.5      1.737      4.856
REMARK  2 active torsions:
REMARK  status: ('A' for Active; 'I' for Inactive)
REMARK    1  A    between atoms: C_7  and  C_8 
REMARK    2  A    between atoms: C_8  and  O_9 
ROOT
HETATM    1  C   UNL     1      26.867  43.973  53.959  1.00  0.00     0.199 A 
HETATM    2  C   UNL     1      26.366  45.349  54.533  1.00  0.00     0.266 A 
HETATM    3  O   UNL     1      25.261  45.862  54.442  1.00  0.00    -0.269 OA
HETATM    4  N   UNL     1      27.426  45.902  55.256  1.00  0.00    -0.323 N 
HETATM    5  C   UNL     1      28.555  45.100  55.199  1.00  0.00     0.045 A 
HETATM    6  C   UNL     1      28.305  43.957  54.436  1.00  0.00     0.017 A 
HETATM    7  C   UNL     1      29.776  45.345  55.790  1.00  0.00     0.030 A 
HETATM    8  C   UNL     1      30.780  44.391  55.609  1.00  0.00     0.002 A 
HETATM    9  C   UNL     1      30.542  43.229  54.852  1.00  0.00     0.001 A 
HETATM   10  C   UNL     1      29.295  43.001  54.262  1.00  0.00     0.013 A 
HETATM   11  H   UNL     1      27.350  46.787  55.736  1.00  0.00     0.169 HD
ENDROOT
BRANCH   1  12
HETATM   12  C   UNL     1      26.877  43.939  52.443  1.00  0.00     0.025 A 
HETATM   13  C   UNL     1      26.696  45.004  51.553  1.00  0.00     0.016 A 
HETATM   14  C   UNL     1      26.453  46.456  51.773  1.00  0.00     0.069 C 
HETATM   15  N   UNL     1      26.771  44.511  50.276  1.00  0.00    -0.359 N 
HETATM   16  H   UNL     1      26.671  45.061  49.434  1.00  0.00     0.166 HD
HETATM   17  C   UNL     1      26.979  43.158  50.283  1.00  0.00     0.043 A 
HETATM   18  C   UNL     1      27.048  42.762  51.618  1.00  0.00     0.003 A 
HETATM   19  C   UNL     1      27.101  42.267  49.209  1.00  0.00     0.030 A 
HETATM   20  C   UNL     1      27.251  41.387  51.877  1.00  0.00     0.014 A 
HETATM   21  C   UNL     1      27.375  40.480  50.819  1.00  0.00     0.001 A 
HETATM   22  C   UNL     1      27.300  40.917  49.501  1.00  0.00     0.002 A 
ENDBRANCH   1  12
BRANCH   1  23
HETATM   23  O   UNL     1      26.184  42.883  54.571  1.00  0.00    -0.371 OA
HETATM   24  H   UNL     1      25.337  43.230  54.893  1.00  0.00     0.212 HD
ENDBRANCH   1  23
TORSDOF 2
ENDMDL
