MODEL 1
REMARK VINA RESULT:      -7.8      0.000      0.000
REMARK  5 active torsions:
REMARK  status: ('A' for Active; 'I' for Inactive)
REMARK    1  A    between atoms: C_7  and  O_8 
REMARK    2  A    between atoms: O_8  and  C_9 
REMARK    3  A    between atoms: C_12  and  N_13 
REMARK    4  A    between atoms: N_13  and  C_16 
REMARK    5  A    between atoms: C_16  and  C_17 
ROOT
HETATM    1  C   UNL     1      30.756  43.169  55.356  1.00  0.00     0.028 A 
HETATM    2  C   UNL     1      30.486  44.240  56.202  1.00  0.00     0.062 A 
HETATM    3  C   UNL     1      31.147  44.386  57.459  1.00  0.00     0.101 C 
HETATM    4  N   UNL     1      31.671  44.525  58.484  1.00  0.00    -0.191 NA
HETATM    5  C   UNL     1      29.545  45.177  55.790  1.00  0.00     0.142 A 
HETATM    6  N   UNL     1      28.867  45.122  54.612  1.00  0.00    -0.236 NA
HETATM    7  C   UNL     1      29.152  44.064  53.819  1.00  0.00     0.164 A 
HETATM    8  C   UNL     1      30.078  43.080  54.143  1.00  0.00     0.059 A 
ENDROOT
BRANCH   7   9
HETATM    9  O   UNL     1      28.523  43.901  52.608  1.00  0.00    -0.329 OA
BRANCH   9  10
HETATM   10  C   UNL     1      27.111  44.075  52.506  1.00  0.00     0.130 C 
HETATM   11  C   UNL     1      26.484  43.342  51.312  1.00  0.00     0.034 C 
HETATM   12  C   UNL     1      24.963  43.482  51.308  1.00  0.00     0.035 C 
HETATM   13  C   UNL     1      24.492  44.935  51.418  1.00  0.00     0.186 C 
HETATM   14  C   UNL     1      25.127  45.643  52.621  1.00  0.00     0.035 C 
HETATM   15  C   UNL     1      26.651  45.533  52.649  1.00  0.00     0.034 C 
BRANCH  13  16
HETATM   16  N   UNL     1      24.832  45.689  50.177  1.00  0.00    -0.066 N 
HETATM   17  H   UNL     1      25.857  45.827  50.105  1.00  0.00     0.278 HD
HETATM   18  H   UNL     1      24.610  45.170  49.316  1.00  0.00     0.278 HD
BRANCH  16  19
HETATM   19  C   UNL     1      24.277  47.079  50.060  1.00  0.00     0.292 C 
BRANCH  19  20
HETATM   20  C   UNL     1      25.322  47.985  49.496  1.00  0.00     0.067 A 
HETATM   21  N   UNL     1      26.655  47.610  49.675  1.00  0.00    -0.256 NA
HETATM   22  C   UNL     1      27.440  48.525  49.138  1.00  0.00     0.166 A 
HETATM   23  S   UNL     1      26.650  49.862  48.411  1.00  0.00    -0.092 SA
HETATM   24  C   UNL     1      25.133  49.183  48.835  1.00  0.00     0.080 A 
ENDBRANCH  19  20
ENDBRANCH  16  19
ENDBRANCH  13  16
ENDBRANCH   9  10
ENDBRANCH   7   9
TORSDOF 5
ENDMDL
MODEL 2
REMARK VINA RESULT:      -7.5      2.386      2.995
REMARK  5 active torsions:
REMARK  status: ('A' for Active; 'I' for Inactive)
REMARK    1  A    between atoms: C_7  and  O_8 
REMARK    2  A    between atoms: O_8  and  C_9 
REMARK    3  A    between atoms: C_12  and  N_13 
REMARK    4  A    between atoms: N_13  and  C_16 
REMARK    5  A    between atoms: C_16  and  C_17 
ROOT
HETATM    1  C   UNL     1      29.345  42.980  54.473  1.00  0.00     0.028 A 
HETATM    2  C   UNL     1      29.835  43.931  55.363  1.00  0.00     0.062 A 
HETATM    3  C   UNL     1      31.045  43.722  56.091  1.00  0.00     0.101 C 
HETATM    4  N   UNL     1      32.024  43.574  56.693  1.00  0.00    -0.191 NA
HETATM    5  C   UNL     1      29.109  45.106  55.528  1.00  0.00     0.142 A 
HETATM    6  N   UNL     1      27.949  45.393  54.878  1.00  0.00    -0.236 NA
HETATM    7  C   UNL     1      27.502  44.442  54.026  1.00  0.00     0.164 A 
HETATM    8  C   UNL     1      28.158  43.240  53.793  1.00  0.00     0.059 A 
ENDROOT
BRANCH   7   9
HETATM    9  O   UNL     1      26.337  44.620  53.320  1.00  0.00    -0.329 OA
BRANCH   9  10
HETATM   10  C   UNL     1      26.352  45.322  52.078  1.00  0.00     0.130 C 
HETATM   11  C   UNL     1      26.078  46.826  52.217  1.00  0.00     0.034 C 
HETATM   12  C   UNL     1      26.204  47.541  50.873  1.00  0.00     0.035 C 
HETATM   13  C   UNL     1      25.371  46.892  49.764  1.00  0.00     0.186 C 
HETATM   14  C   UNL     1      25.668  45.393  49.642  1.00  0.00     0.035 C 
HETATM   15  C   UNL     1      25.538  44.643  50.967  1.00  0.00     0.034 C 
BRANCH  13  16
HETATM   16  N   UNL     1      23.916  47.078  50.029  1.00  0.00    -0.066 N 
HETATM   17  H   UNL     1      23.509  46.220  50.446  1.00  0.00     0.278 HD
HETATM   18  H   UNL     1      23.723  47.793  50.744  1.00  0.00     0.278 HD
BRANCH  16  19
HETATM   19  C   UNL     1      23.042  47.341  48.836  1.00  0.00     0.292 C 
BRANCH  19  20
HETATM   20  C   UNL     1      22.340  48.647  49.013  1.00  0.00     0.067 A 
HETATM   21  N   UNL     1      23.042  49.667  49.657  1.00  0.00    -0.256 NA
HETATM   22  C   UNL     1      22.273  50.735  49.747  1.00  0.00     0.166 A 
HETATM   23  S   UNL     1      20.696  50.586  49.091  1.00  0.00    -0.092 SA
HETATM   24  C   UNL     1      21.049  48.968  48.641  1.00  0.00     0.080 A 
ENDBRANCH  19  20
ENDBRANCH  16  19
ENDBRANCH  13  16
ENDBRANCH   9  10
ENDBRANCH   7   9
TORSDOF 5
ENDMDL
MODEL 3
REMARK VINA RESULT:      -7.3      3.035      7.475
REMARK  5 active torsions:
REMARK  status: ('A' for Active; 'I' for Inactive)
REMARK    1  A    between atoms: C_7  and  O_8 
REMARK    2  A    between atoms: O_8  and  C_9 
REMARK    3  A    between atoms: C_12  and  N_13 
REMARK    4  A    between atoms: N_13  and  C_16 
REMARK    5  A    between atoms: C_16  and  C_17 
ROOT
HETATM    1  C   UNL     1      25.406  47.418  50.240  1.00  0.00     0.028 A 
HETATM    2  C   UNL     1      26.616  47.625  49.584  1.00  0.00     0.062 A 
HETATM    3  C   UNL     1      27.009  48.919  49.128  1.00  0.00     0.101 C 
HETATM    4  N   UNL     1      27.349  49.961  48.749  1.00  0.00    -0.191 NA
HETATM    5  C   UNL     1      27.444  46.526  49.381  1.00  0.00     0.142 A 
HETATM    6  N   UNL     1      27.155  45.258  49.779  1.00  0.00    -0.236 NA
HETATM    7  C   UNL     1      25.968  45.096  50.408  1.00  0.00     0.164 A 
HETATM    8  C   UNL     1      25.077  46.132  50.660  1.00  0.00     0.059 A 
ENDROOT
BRANCH   7   9
HETATM    9  O   UNL     1      25.567  43.858  50.850  1.00  0.00    -0.329 OA
BRANCH   9  10
HETATM   10  C   UNL     1      26.114  43.315  52.050  1.00  0.00     0.130 C 
HETATM   11  C   UNL     1      26.356  44.361  53.146  1.00  0.00     0.034 C 
HETATM   12  C   UNL     1      26.847  43.711  54.438  1.00  0.00     0.035 C 
HETATM   13  C   UNL     1      28.053  42.790  54.229  1.00  0.00     0.186 C 
HETATM   14  C   UNL     1      27.783  41.750  53.134  1.00  0.00     0.035 C 
HETATM   15  C   UNL     1      27.302  42.369  51.822  1.00  0.00     0.034 C 
BRANCH  13  16
HETATM   16  N   UNL     1      29.258  43.585  53.856  1.00  0.00    -0.066 N 
HETATM   17  H   UNL     1      29.495  43.441  52.857  1.00  0.00     0.278 HD
HETATM   18  H   UNL     1      29.103  44.602  53.909  1.00  0.00     0.278 HD
BRANCH  16  19
HETATM   19  C   UNL     1      30.533  43.251  54.575  1.00  0.00     0.292 C 
BRANCH  19  20
HETATM   20  C   UNL     1      30.598  44.021  55.854  1.00  0.00     0.067 A 
HETATM   21  N   UNL     1      29.954  45.259  55.887  1.00  0.00    -0.256 NA
HETATM   22  C   UNL     1      30.127  45.807  57.075  1.00  0.00     0.166 A 
HETATM   23  S   UNL     1      31.056  44.901  58.195  1.00  0.00    -0.092 SA
HETATM   24  C   UNL     1      31.253  43.668  57.018  1.00  0.00     0.080 A 
ENDBRANCH  19  20
ENDBRANCH  16  19
ENDBRANCH  13  16
ENDBRANCH   9  10
ENDBRANCH   7   9
TORSDOF 5
ENDMDL
MODEL 4
REMARK VINA RESULT:      -7.2      4.104      9.094
REMARK  5 active torsions:
REMARK  status: ('A' for Active; 'I' for Inactive)
REMARK    1  A    between atoms: C_7  and  O_8 
REMARK    2  A    between atoms: O_8  and  C_9 
REMARK    3  A    between atoms: C_12  and  N_13 
REMARK    4  A    between atoms: N_13  and  C_16 
REMARK    5  A    between atoms: C_16  and  C_17 
ROOT
HETATM    1  C   UNL     1      21.645  50.675  47.567  1.00  0.00     0.028 A 
HETATM    2  C   UNL     1      20.923  51.146  48.660  1.00  0.00     0.062 A 
HETATM    3  C   UNL     1      19.591  51.639  48.521  1.00  0.00     0.101 C 
HETATM    4  N   UNL     1      18.508  52.043  48.431  1.00  0.00    -0.191 NA
HETATM    5  C   UNL     1      21.539  51.125  49.907  1.00  0.00     0.142 A 
HETATM    6  N   UNL     1      22.801  50.675  50.136  1.00  0.00    -0.236 NA
HETATM    7  C   UNL     1      23.473  50.230  49.049  1.00  0.00     0.164 A 
HETATM    8  C   UNL     1      22.942  50.209  47.766  1.00  0.00     0.059 A 
ENDROOT
BRANCH   7   9
HETATM    9  O   UNL     1      24.759  49.758  49.160  1.00  0.00    -0.329 OA
BRANCH   9  10
HETATM   10  C   UNL     1      25.002  48.354  49.227  1.00  0.00     0.130 C 
HETATM   11  C   UNL     1      23.793  47.541  49.709  1.00  0.00     0.034 C 
HETATM   12  C   UNL     1      24.078  46.041  49.668  1.00  0.00     0.035 C 
HETATM   13  C   UNL     1      25.371  45.653  50.389  1.00  0.00     0.186 C 
HETATM   14  C   UNL     1      26.564  46.474  49.885  1.00  0.00     0.035 C 
HETATM   15  C   UNL     1      26.318  47.982  49.926  1.00  0.00     0.034 C 
BRANCH  13  16
HETATM   16  N   UNL     1      25.229  45.856  51.860  1.00  0.00    -0.066 N 
HETATM   17  H   UNL     1      25.627  46.772  52.141  1.00  0.00     0.278 HD
HETATM   18  H   UNL     1      24.249  45.930  52.164  1.00  0.00     0.278 HD
BRANCH  16  19
HETATM   19  C   UNL     1      25.939  44.874  52.747  1.00  0.00     0.292 C 
BRANCH  19  20
HETATM   20  C   UNL     1      26.843  45.613  53.680  1.00  0.00     0.067 A 
HETATM   21  N   UNL     1      26.608  46.978  53.849  1.00  0.00    -0.256 NA
HETATM   22  C   UNL     1      27.503  47.473  54.682  1.00  0.00     0.166 A 
HETATM   23  S   UNL     1      28.658  46.363  55.294  1.00  0.00    -0.092 SA
HETATM   24  C   UNL     1      27.920  45.110  54.384  1.00  0.00     0.080 A 
ENDBRANCH  19  20
ENDBRANCH  16  19
ENDBRANCH  13  16
ENDBRANCH   9  10
ENDBRANCH   7   9
TORSDOF 5
ENDMDL
MODEL 5
REMARK VINA RESULT:      -7.1      2.566      3.272
REMARK  5 active torsions:
REMARK  status: ('A' for Active; 'I' for Inactive)
REMARK    1  A    between atoms: C_7  and  O_8 
REMARK    2  A    between atoms: O_8  and  C_9 
REMARK    3  A    between atoms: C_12  and  N_13 
REMARK    4  A    between atoms: N_13  and  C_16 
REMARK    5  A    between atoms: C_16  and  C_17 
ROOT
HETATM    1  C   UNL     1      30.010  42.683  54.768  1.00  0.00     0.028 A 
HETATM    2  C   UNL     1      30.261  43.763  55.610  1.00  0.00     0.062 A 
HETATM    3  C   UNL     1      31.317  43.735  56.570  1.00  0.00     0.101 C 
HETATM    4  N   UNL     1      32.169  43.734  57.357  1.00  0.00    -0.191 NA
HETATM    5  C   UNL     1      29.447  44.885  55.492  1.00  0.00     0.142 A 
HETATM    6  N   UNL     1      28.420  45.002  54.609  1.00  0.00    -0.236 NA
HETATM    7  C   UNL     1      28.204  43.931  53.812  1.00  0.00     0.164 A 
HETATM    8  C   UNL     1      28.964  42.769  53.854  1.00  0.00     0.059 A 
ENDROOT
BRANCH   7   9
HETATM    9  O   UNL     1      27.189  43.934  52.886  1.00  0.00    -0.329 OA
BRANCH   9  10
HETATM   10  C   UNL     1      26.879  45.127  52.168  1.00  0.00     0.130 C 
HETATM   11  C   UNL     1      25.677  45.893  52.737  1.00  0.00     0.034 C 
HETATM   12  C   UNL     1      25.451  47.208  51.992  1.00  0.00     0.035 C 
HETATM   13  C   UNL     1      25.372  47.034  50.473  1.00  0.00     0.186 C 
HETATM   14  C   UNL     1      26.587  46.272  49.929  1.00  0.00     0.035 C 
HETATM   15  C   UNL     1      26.833  44.944  50.644  1.00  0.00     0.034 C 
BRANCH  13  16
HETATM   16  N   UNL     1      24.130  46.299  50.096  1.00  0.00    -0.066 N 
HETATM   17  H   UNL     1      24.364  45.431  49.578  1.00  0.00     0.278 HD
HETATM   18  H   UNL     1      23.607  45.946  50.909  1.00  0.00     0.278 HD
BRANCH  16  19
HETATM   19  C   UNL     1      23.178  47.012  49.180  1.00  0.00     0.292 C 
BRANCH  19  20
HETATM   20  C   UNL     1      22.663  46.054  48.156  1.00  0.00     0.067 A 
HETATM   21  N   UNL     1      22.075  46.598  47.012  1.00  0.00    -0.256 NA
HETATM   22  C   UNL     1      21.661  45.619  46.230  1.00  0.00     0.166 A 
HETATM   23  S   UNL     1      21.935  44.027  46.804  1.00  0.00    -0.092 SA
HETATM   24  C   UNL     1      22.669  44.674  48.214  1.00  0.00     0.080 A 
ENDBRANCH  19  20
ENDBRANCH  16  19
ENDBRANCH  13  16
ENDBRANCH   9  10
ENDBRANCH   7   9
TORSDOF 5
ENDMDL
MODEL 6
REMARK VINA RESULT:      -6.9     11.849     13.249
REMARK  5 active torsions:
REMARK  status: ('A' for Active; 'I' for Inactive)
REMARK    1  A    between atoms: C_7  and  O_8 
REMARK    2  A    between atoms: O_8  and  C_9 
REMARK    3  A    between atoms: C_12  and  N_13 
REMARK    4  A    between atoms: N_13  and  C_16 
REMARK    5  A    between atoms: C_16  and  C_17 
ROOT
HETATM    1  C   UNL     1      33.705  49.656  41.482  1.00  0.00     0.028 A 
HETATM    2  C   UNL     1      33.928  50.779  42.273  1.00  0.00     0.062 A 
HETATM    3  C   UNL     1      35.083  51.601  42.099  1.00  0.00     0.101 C 
HETATM    4  N   UNL     1      36.013  52.282  41.975  1.00  0.00    -0.191 NA
HETATM    5  C   UNL     1      32.986  51.087  43.249  1.00  0.00     0.142 A 
HETATM    6  N   UNL     1      31.858  50.366  43.487  1.00  0.00    -0.236 NA
HETATM    7  C   UNL     1      31.680  49.278  42.702  1.00  0.00     0.164 A 
HETATM    8  C   UNL     1      32.562  48.893  41.700  1.00  0.00     0.059 A 
ENDROOT
BRANCH   7   9
HETATM    9  O   UNL     1      30.579  48.471  42.857  1.00  0.00    -0.329 OA
BRANCH   9  10
HETATM   10  C   UNL     1      29.522  48.511  41.900  1.00  0.00     0.130 C 
HETATM   11  C   UNL     1      29.879  47.858  40.559  1.00  0.00     0.034 C 
HETATM   12  C   UNL     1      28.682  47.842  39.610  1.00  0.00     0.035 C 
HETATM   13  C   UNL     1      28.030  49.217  39.439  1.00  0.00     0.186 C 
HETATM   14  C   UNL     1      27.677  49.845  40.793  1.00  0.00     0.035 C 
HETATM   15  C   UNL     1      28.858  49.889  41.762  1.00  0.00     0.034 C 
BRANCH  13  16
HETATM   16  N   UNL     1      28.942  50.138  38.700  1.00  0.00    -0.066 N 
HETATM   17  H   UNL     1      29.885  50.138  39.131  1.00  0.00     0.278 HD
HETATM   18  H   UNL     1      29.132  49.831  37.736  1.00  0.00     0.278 HD
BRANCH  16  19
HETATM   19  C   UNL     1      28.561  51.590  38.680  1.00  0.00     0.292 C 
BRANCH  19  20
HETATM   20  C   UNL     1      29.603  52.387  39.396  1.00  0.00     0.067 A 
HETATM   21  N   UNL     1      30.877  51.825  39.498  1.00  0.00    -0.256 NA
HETATM   22  C   UNL     1      31.660  52.645  40.172  1.00  0.00     0.166 A 
HETATM   23  S   UNL     1      30.936  54.100  40.719  1.00  0.00    -0.092 SA
HETATM   24  C   UNL     1      29.452  53.616  40.006  1.00  0.00     0.080 A 
ENDBRANCH  19  20
ENDBRANCH  16  19
ENDBRANCH  13  16
ENDBRANCH   9  10
ENDBRANCH   7   9
TORSDOF 5
ENDMDL
MODEL 7
REMARK VINA RESULT:      -6.9     12.406     14.226
REMARK  5 active torsions:
REMARK  status: ('A' for Active; 'I' for Inactive)
REMARK    1  A    between atoms: C_7  and  O_8 
REMARK    2  A    between atoms: O_8  and  C_9 
REMARK    3  A    between atoms: C_12  and  N_13 
REMARK    4  A    between atoms: N_13  and  C_16 
REMARK    5  A    between atoms: C_16  and  C_17 
ROOT
HETATM    1  C   UNL     1      29.701  48.740  38.579  1.00  0.00     0.028 A 
HETATM    2  C   UNL     1      28.839  47.683  38.856  1.00  0.00     0.062 A 
HETATM    3  C   UNL     1      27.532  47.613  38.284  1.00  0.00     0.101 C 
HETATM    4  N   UNL     1      26.468  47.535  37.831  1.00  0.00    -0.191 NA
HETATM    5  C   UNL     1      29.286  46.683  39.713  1.00  0.00     0.142 A 
HETATM    6  N   UNL     1      30.511  46.665  40.303  1.00  0.00    -0.236 NA
HETATM    7  C   UNL     1      31.318  47.711  40.015  1.00  0.00     0.164 A 
HETATM    8  C   UNL     1      30.962  48.754  39.168  1.00  0.00     0.059 A 
ENDROOT
BRANCH   7   9
HETATM    9  O   UNL     1      32.577  47.802  40.559  1.00  0.00    -0.329 OA
BRANCH   9  10
HETATM   10  C   UNL     1      32.865  48.804  41.532  1.00  0.00     0.130 C 
HETATM   11  C   UNL     1      31.628  49.293  42.298  1.00  0.00     0.034 C 
HETATM   12  C   UNL     1      32.008  50.290  43.391  1.00  0.00     0.035 C 
HETATM   13  C   UNL     1      32.877  51.443  42.880  1.00  0.00     0.186 C 
HETATM   14  C   UNL     1      34.108  50.928  42.126  1.00  0.00     0.035 C 
HETATM   15  C   UNL     1      33.762  49.937  41.015  1.00  0.00     0.034 C 
BRANCH  13  16
HETATM   16  N   UNL     1      32.089  52.328  41.976  1.00  0.00    -0.066 N 
HETATM   17  H   UNL     1      32.579  53.231  41.832  1.00  0.00     0.278 HD
HETATM   18  H   UNL     1      32.008  51.958  41.018  1.00  0.00     0.278 HD
BRANCH  16  19
HETATM   19  C   UNL     1      30.726  52.738  42.454  1.00  0.00     0.292 C 
BRANCH  19  20
HETATM   20  C   UNL     1      29.718  52.444  41.390  1.00  0.00     0.067 A 
HETATM   21  N   UNL     1      28.533  51.822  41.788  1.00  0.00    -0.256 NA
HETATM   22  C   UNL     1      27.772  51.620  40.729  1.00  0.00     0.166 A 
HETATM   23  S   UNL     1      28.416  52.140  39.228  1.00  0.00    -0.092 SA
HETATM   24  C   UNL     1      29.828  52.686  40.035  1.00  0.00     0.080 A 
ENDBRANCH  19  20
ENDBRANCH  16  19
ENDBRANCH  13  16
ENDBRANCH   9  10
ENDBRANCH   7   9
TORSDOF 5
ENDMDL
MODEL 8
REMARK VINA RESULT:      -6.8     12.179     13.235
REMARK  5 active torsions:
REMARK  status: ('A' for Active; 'I' for Inactive)
REMARK    1  A    between atoms: C_7  and  O_8 
REMARK    2  A    between atoms: O_8  and  C_9 
REMARK    3  A    between atoms: C_12  and  N_13 
REMARK    4  A    between atoms: N_13  and  C_16 
REMARK    5  A    between atoms: C_16  and  C_17 
ROOT
HETATM    1  C   UNL     1      33.394  51.981  44.371  1.00  0.00     0.028 A 
HETATM    2  C   UNL     1      34.542  51.825  43.599  1.00  0.00     0.062 A 
HETATM    3  C   UNL     1      35.799  52.364  44.009  1.00  0.00     0.101 C 
HETATM    4  N   UNL     1      36.829  52.793  44.322  1.00  0.00    -0.191 NA
HETATM    5  C   UNL     1      34.435  51.123  42.404  1.00  0.00     0.142 A 
HETATM    6  N   UNL     1      33.283  50.574  41.933  1.00  0.00    -0.236 NA
HETATM    7  C   UNL     1      32.188  50.751  42.708  1.00  0.00     0.164 A 
HETATM    8  C   UNL     1      32.197  51.433  43.918  1.00  0.00     0.059 A 
ENDROOT
BRANCH   7   9
HETATM    9  O   UNL     1      30.967  50.246  42.329  1.00  0.00    -0.329 OA
BRANCH   9  10
HETATM   10  C   UNL     1      30.230  50.867  41.278  1.00  0.00     0.130 C 
HETATM   11  C   UNL     1      29.140  51.827  41.774  1.00  0.00     0.034 C 
HETATM   12  C   UNL     1      28.451  52.536  40.609  1.00  0.00     0.035 C 
HETATM   13  C   UNL     1      27.941  51.573  39.533  1.00  0.00     0.186 C 
HETATM   14  C   UNL     1      29.051  50.631  39.051  1.00  0.00     0.035 C 
HETATM   15  C   UNL     1      29.753  49.894  40.191  1.00  0.00     0.034 C 
BRANCH  13  16
HETATM   16  N   UNL     1      26.807  50.759  40.057  1.00  0.00    -0.066 N 
HETATM   17  H   UNL     1      27.135  50.111  40.797  1.00  0.00     0.278 HD
HETATM   18  H   UNL     1      26.097  51.322  40.546  1.00  0.00     0.278 HD
BRANCH  16  19
HETATM   19  C   UNL     1      26.117  49.856  39.076  1.00  0.00     0.292 C 
BRANCH  19  20
HETATM   20  C   UNL     1      26.262  48.436  39.520  1.00  0.00     0.067 A 
HETATM   21  N   UNL     1      26.902  47.557  38.646  1.00  0.00    -0.256 NA
HETATM   22  C   UNL     1      26.926  46.351  39.182  1.00  0.00     0.166 A 
HETATM   23  S   UNL     1      26.194  46.199  40.725  1.00  0.00    -0.092 SA
HETATM   24  C   UNL     1      25.807  47.870  40.695  1.00  0.00     0.080 A 
ENDBRANCH  19  20
ENDBRANCH  16  19
ENDBRANCH  13  16
ENDBRANCH   9  10
ENDBRANCH   7   9
TORSDOF 5
ENDMDL
MODEL 9
REMARK VINA RESULT:      -6.8     15.500     17.451
REMARK  5 active torsions:
REMARK  status: ('A' for Active; 'I' for Inactive)
REMARK    1  A    between atoms: C_7  and  O_8 
REMARK    2  A    between atoms: O_8  and  C_9 
REMARK    3  A    between atoms: C_12  and  N_13 
REMARK    4  A    between atoms: N_13  and  C_16 
REMARK    5  A    between atoms: C_16  and  C_17 
ROOT
HETATM    1  C   UNL     1      37.244  42.020  64.569  1.00  0.00     0.028 A 
HETATM    2  C   UNL     1      38.262  42.030  63.621  1.00  0.00     0.062 A 
HETATM    3  C   UNL     1      39.075  40.880  63.383  1.00  0.00     0.101 C 
HETATM    4  N   UNL     1      39.746  39.959  63.173  1.00  0.00    -0.191 NA
HETATM    5  C   UNL     1      38.473  43.201  62.901  1.00  0.00     0.142 A 
HETATM    6  N   UNL     1      37.751  44.343  63.058  1.00  0.00    -0.236 NA
HETATM    7  C   UNL     1      36.774  44.296  63.992  1.00  0.00     0.164 A 
HETATM    8  C   UNL     1      36.486  43.173  64.757  1.00  0.00     0.059 A 
ENDROOT
BRANCH   7   9
HETATM    9  O   UNL     1      35.984  45.393  64.242  1.00  0.00    -0.329 OA
BRANCH   9  10
HETATM   10  C   UNL     1      36.540  46.546  64.872  1.00  0.00     0.130 C 
HETATM   11  C   UNL     1      36.802  47.709  63.907  1.00  0.00     0.034 C 
HETATM   12  C   UNL     1      37.303  48.947  64.649  1.00  0.00     0.035 C 
HETATM   13  C   UNL     1      38.498  48.660  65.562  1.00  0.00     0.186 C 
HETATM   14  C   UNL     1      38.208  47.499  66.520  1.00  0.00     0.035 C 
HETATM   15  C   UNL     1      37.718  46.239  65.808  1.00  0.00     0.034 C 
BRANCH  13  16
HETATM   16  N   UNL     1      39.706  48.330  64.751  1.00  0.00    -0.066 N 
HETATM   17  H   UNL     1      39.574  47.430  64.253  1.00  0.00     0.278 HD
HETATM   18  H   UNL     1      39.870  48.995  63.982  1.00  0.00     0.278 HD
BRANCH  16  19
HETATM   19  C   UNL     1      40.990  48.134  65.505  1.00  0.00     0.292 C 
BRANCH  19  20
HETATM   20  C   UNL     1      41.658  46.885  65.030  1.00  0.00     0.067 A 
HETATM   21  N   UNL     1      40.966  46.105  64.101  1.00  0.00    -0.256 NA
HETATM   22  C   UNL     1      41.685  45.038  63.809  1.00  0.00     0.166 A 
HETATM   23  S   UNL     1      43.192  44.901  64.614  1.00  0.00    -0.092 SA
HETATM   24  C   UNL     1      42.881  46.380  65.426  1.00  0.00     0.080 A 
ENDBRANCH  19  20
ENDBRANCH  16  19
ENDBRANCH  13  16
ENDBRANCH   9  10
ENDBRANCH   7   9
TORSDOF 5
ENDMDL
MODEL 10
REMARK VINA RESULT:      -6.8     13.028     14.515
REMARK  5 active torsions:
REMARK  status: ('A' for Active; 'I' for Inactive)
REMARK    1  A    between atoms: C_7  and  O_8 
REMARK    2  A    between atoms: O_8  and  C_9 
REMARK    3  A    between atoms: C_12  and  N_13 
REMARK    4  A    between atoms: N_13  and  C_16 
REMARK    5  A    between atoms: C_16  and  C_17 
ROOT
HETATM    1  C   UNL     1      29.308  47.078  39.484  1.00  0.00     0.028 A 
HETATM    2  C   UNL     1      28.150  46.308  39.470  1.00  0.00     0.062 A 
HETATM    3  C   UNL     1      28.133  44.971  39.971  1.00  0.00     0.101 C 
HETATM    4  N   UNL     1      28.096  43.885  40.374  1.00  0.00    -0.191 NA
HETATM    5  C   UNL     1      26.993  46.878  38.948  1.00  0.00     0.142 A 
HETATM    6  N   UNL     1      26.913  48.140  38.449  1.00  0.00    -0.236 NA
HETATM    7  C   UNL     1      28.061  48.856  38.475  1.00  0.00     0.164 A 
HETATM    8  C   UNL     1      29.263  48.375  38.979  1.00  0.00     0.059 A 
ENDROOT
BRANCH   7   9
HETATM    9  O   UNL     1      28.101  50.142  37.991  1.00  0.00    -0.329 OA
BRANCH   9  10
HETATM   10  C   UNL     1      28.032  51.247  38.890  1.00  0.00     0.130 C 
HETATM   11  C   UNL     1      29.297  52.115  38.898  1.00  0.00     0.034 C 
HETATM   12  C   UNL     1      29.129  53.336  39.802  1.00  0.00     0.035 C 
HETATM   13  C   UNL     1      28.652  52.980  41.213  1.00  0.00     0.186 C 
HETATM   14  C   UNL     1      27.384  52.119  41.177  1.00  0.00     0.035 C 
HETATM   15  C   UNL     1      27.522  50.881  40.292  1.00  0.00     0.034 C 
BRANCH  13  16
HETATM   16  N   UNL     1      29.717  52.245  41.953  1.00  0.00    -0.066 N 
HETATM   17  H   UNL     1      29.524  52.253  42.972  1.00  0.00     0.278 HD
HETATM   18  H   UNL     1      29.742  51.240  41.734  1.00  0.00     0.278 HD
BRANCH  16  19
HETATM   19  C   UNL     1      31.110  52.797  41.853  1.00  0.00     0.292 C 
BRANCH  19  20
HETATM   20  C   UNL     1      32.089  51.668  41.805  1.00  0.00     0.067 A 
HETATM   21  N   UNL     1      33.313  51.857  42.447  1.00  0.00    -0.256 NA
HETATM   22  C   UNL     1      34.058  50.779  42.290  1.00  0.00     0.166 A 
HETATM   23  S   UNL     1      33.358  49.507  41.377  1.00  0.00    -0.092 SA
HETATM   24  C   UNL     1      31.942  50.452  41.166  1.00  0.00     0.080 A 
ENDBRANCH  19  20
ENDBRANCH  16  19
ENDBRANCH  13  16
ENDBRANCH   9  10
ENDBRANCH   7   9
TORSDOF 5
ENDMDL
