MODEL 1
REMARK VINA RESULT:      -9.6      0.000      0.000
REMARK  5 active torsions:
REMARK  status: ('A' for Active; 'I' for Inactive)
REMARK    1  A    between atoms: C_8  and  C_9 
REMARK    2  A    between atoms: N_10  and  N_11 
REMARK       I    between atoms: N_11  and  C_12 
REMARK    3  A    between atoms: C_12  and  C_13 
REMARK    4  A    between atoms: C_13  and  O_14 
REMARK    5  A    between atoms: O_14  and  C_15 
ROOT
HETATM    1  N   UNL     1      25.922  46.559  52.311  1.00  0.00    -0.246 N 
HETATM    2  C   UNL     1      25.948  46.645  53.698  1.00  0.00     0.261 C 
HETATM    3  O   UNL     1      25.648  47.628  54.372  1.00  0.00    -0.269 OA
HETATM    4  H   UNL     1      25.956  45.622  51.909  1.00  0.00     0.192 HD
ENDROOT
BRANCH   1   5
HETATM    5  N   UNL     1      25.489  47.527  51.438  1.00  0.00    -0.184 NA
HETATM    6  C   UNL     1      25.973  47.550  50.237  1.00  0.00     0.152 C 
BRANCH   6   7
HETATM    7  C   UNL     1      25.546  48.581  49.310  1.00  0.00     0.011 A 
HETATM    8  C   UNL     1      24.198  48.913  48.957  1.00  0.00     0.004 A 
HETATM    9  C   UNL     1      22.932  48.407  49.326  1.00  0.00     0.014 A 
HETATM   10  C   UNL     1      24.251  49.968  48.046  1.00  0.00     0.043 A 
HETATM   11  C   UNL     1      21.776  48.973  48.777  1.00  0.00     0.001 A 
HETATM   12  C   UNL     1      21.863  50.029  47.874  1.00  0.00     0.002 A 
HETATM   13  C   UNL     1      23.103  50.547  47.489  1.00  0.00     0.030 A 
HETATM   14  N   UNL     1      25.579  50.265  47.847  1.00  0.00    -0.364 N 
HETATM   15  H   UNL     1      25.918  50.991  47.232  1.00  0.00     0.165 HD
HETATM   16  C   UNL     1      26.367  49.436  48.598  1.00  0.00     0.102 A 
ENDBRANCH   6   7
ENDBRANCH   1   5
BRANCH   2  17
HETATM   17  C   UNL     1      26.486  45.380  54.366  1.00  0.00     0.280 C 
BRANCH  17  18
HETATM   18  O   UNL     1      27.710  44.948  53.781  1.00  0.00    -0.340 OA
BRANCH  18  19
HETATM   19  C   UNL     1      28.743  44.667  54.640  1.00  0.00     0.092 A 
HETATM   20  C   UNL     1      29.523  43.535  54.351  1.00  0.00     0.069 A 
HETATM   21 CL   UNL     1      29.174  42.533  52.986  1.00  0.00    -0.081 Cl
HETATM   22  C   UNL     1      30.599  43.180  55.169  1.00  0.00     0.052 A 
HETATM   23  C   UNL     1      30.917  43.961  56.281  1.00  0.00     0.057 A 
HETATM   24 CL   UNL     1      32.257  43.471  57.253  1.00  0.00    -0.082 Cl
HETATM   25  C   UNL     1      30.157  45.098  56.570  1.00  0.00     0.058 A 
HETATM   26 CL   UNL     1      30.500  46.120  57.922  1.00  0.00    -0.082 Cl
HETATM   27  C   UNL     1      29.075  45.450  55.751  1.00  0.00     0.064 A 
ENDBRANCH  18  19
ENDBRANCH  17  18
ENDBRANCH   2  17
TORSDOF 5
ENDMDL
MODEL 2
REMARK VINA RESULT:      -9.2      5.056     10.093
REMARK  5 active torsions:
REMARK  status: ('A' for Active; 'I' for Inactive)
REMARK    1  A    between atoms: C_8  and  C_9 
REMARK    2  A    between atoms: N_10  and  N_11 
REMARK       I    between atoms: N_11  and  C_12 
REMARK    3  A    between atoms: C_12  and  C_13 
REMARK    4  A    between atoms: C_13  and  O_14 
REMARK    5  A    between atoms: O_14  and  C_15 
ROOT
HETATM    1  N   UNL     1      24.510  46.872  51.224  1.00  0.00    -0.246 N 
HETATM    2  C   UNL     1      24.489  47.550  50.011  1.00  0.00     0.261 C 
HETATM    3  O   UNL     1      25.225  48.478  49.683  1.00  0.00    -0.269 OA
HETATM    4  H   UNL     1      24.019  45.979  51.259  1.00  0.00     0.192 HD
ENDROOT
BRANCH   1   5
HETATM    5  N   UNL     1      25.401  47.061  52.253  1.00  0.00    -0.184 NA
HETATM    6  C   UNL     1      25.931  46.025  52.822  1.00  0.00     0.152 C 
BRANCH   6   7
HETATM    7  C   UNL     1      26.853  46.205  53.927  1.00  0.00     0.011 A 
HETATM    8  C   UNL     1      27.940  45.343  54.285  1.00  0.00     0.004 A 
HETATM    9  C   UNL     1      28.448  44.132  53.766  1.00  0.00     0.014 A 
HETATM   10  C   UNL     1      28.568  45.902  55.399  1.00  0.00     0.043 A 
HETATM   11  C   UNL     1      29.557  43.531  54.373  1.00  0.00     0.001 A 
HETATM   12  C   UNL     1      30.162  44.117  55.481  1.00  0.00     0.002 A 
HETATM   13  C   UNL     1      29.679  45.315  56.017  1.00  0.00     0.030 A 
HETATM   14  N   UNL     1      27.887  47.056  55.711  1.00  0.00    -0.364 N 
HETATM   15  H   UNL     1      28.121  47.669  56.479  1.00  0.00     0.165 HD
HETATM   16  C   UNL     1      26.852  47.246  54.836  1.00  0.00     0.102 A 
ENDBRANCH   6   7
ENDBRANCH   1   5
BRANCH   2  17
HETATM   17  C   UNL     1      23.364  47.086  49.087  1.00  0.00     0.280 C 
BRANCH  17  18
HETATM   18  O   UNL     1      22.969  48.105  48.175  1.00  0.00    -0.340 OA
BRANCH  18  19
HETATM   19  C   UNL     1      21.958  48.942  48.578  1.00  0.00     0.092 A 
HETATM   20  C   UNL     1      22.166  50.320  48.408  1.00  0.00     0.069 A 
HETATM   21 CL   UNL     1      23.640  50.927  47.739  1.00  0.00    -0.081 Cl
HETATM   22  C   UNL     1      21.186  51.243  48.785  1.00  0.00     0.052 A 
HETATM   23  C   UNL     1      19.981  50.797  49.327  1.00  0.00     0.057 A 
HETATM   24 CL   UNL     1      18.810  51.985  49.774  1.00  0.00    -0.082 Cl
HETATM   25  C   UNL     1      19.757  49.427  49.489  1.00  0.00     0.058 A 
HETATM   26 CL   UNL     1      18.284  48.801  50.141  1.00  0.00    -0.082 Cl
HETATM   27  C   UNL     1      20.742  48.503  49.114  1.00  0.00     0.064 A 
ENDBRANCH  18  19
ENDBRANCH  17  18
ENDBRANCH   2  17
TORSDOF 5
ENDMDL
MODEL 3
REMARK VINA RESULT:      -8.8      4.807     10.034
REMARK  5 active torsions:
REMARK  status: ('A' for Active; 'I' for Inactive)
REMARK    1  A    between atoms: C_8  and  C_9 
REMARK    2  A    between atoms: N_10  and  N_11 
REMARK       I    between atoms: N_11  and  C_12 
REMARK    3  A    between atoms: C_12  and  C_13 
REMARK    4  A    between atoms: C_13  and  O_14 
REMARK    5  A    between atoms: O_14  and  C_15 
ROOT
HETATM    1  N   UNL     1      25.781  45.245  50.388  1.00  0.00    -0.246 N 
HETATM    2  C   UNL     1      25.296  46.536  50.557  1.00  0.00     0.261 C 
HETATM    3  O   UNL     1      25.795  47.415  51.258  1.00  0.00    -0.269 OA
HETATM    4  H   UNL     1      25.411  44.717  49.598  1.00  0.00     0.192 HD
ENDROOT
BRANCH   1   5
HETATM    5  N   UNL     1      26.943  44.731  50.910  1.00  0.00    -0.184 NA
HETATM    6  C   UNL     1      26.887  44.039  52.003  1.00  0.00     0.152 C 
BRANCH   6   7
HETATM    7  C   UNL     1      28.108  43.510  52.582  1.00  0.00     0.011 A 
HETATM    8  C   UNL     1      28.772  43.981  53.761  1.00  0.00     0.004 A 
HETATM    9  C   UNL     1      28.522  45.023  54.681  1.00  0.00     0.014 A 
HETATM   10  C   UNL     1      29.895  43.178  53.958  1.00  0.00     0.043 A 
HETATM   11  C   UNL     1      29.397  45.220  55.755  1.00  0.00     0.001 A 
HETATM   12  C   UNL     1      30.507  44.398  55.925  1.00  0.00     0.002 A 
HETATM   13  C   UNL     1      30.779  43.360  55.030  1.00  0.00     0.030 A 
HETATM   14  N   UNL     1      29.919  42.256  52.937  1.00  0.00    -0.364 N 
HETATM   15  H   UNL     1      30.626  41.544  52.824  1.00  0.00     0.165 HD
HETATM   16  C   UNL     1      28.852  42.449  52.101  1.00  0.00     0.102 A 
ENDBRANCH   6   7
ENDBRANCH   1   5
BRANCH   2  17
HETATM   17  C   UNL     1      23.973  46.779  49.832  1.00  0.00     0.280 C 
BRANCH  17  18
HETATM   18  O   UNL     1      24.087  47.792  48.838  1.00  0.00    -0.340 OA
BRANCH  18  19
HETATM   19  C   UNL     1      23.084  48.726  48.786  1.00  0.00     0.092 A 
HETATM   20  C   UNL     1      23.431  50.011  48.336  1.00  0.00     0.069 A 
HETATM   21 CL   UNL     1      25.057  50.393  47.891  1.00  0.00    -0.081 Cl
HETATM   22  C   UNL     1      22.470  51.021  48.245  1.00  0.00     0.052 A 
HETATM   23  C   UNL     1      21.146  50.756  48.593  1.00  0.00     0.057 A 
HETATM   24 CL   UNL     1      20.004  52.045  48.460  1.00  0.00    -0.082 Cl
HETATM   25  C   UNL     1      20.785  49.478  49.029  1.00  0.00     0.058 A 
HETATM   26 CL   UNL     1      19.161  49.073  49.464  1.00  0.00    -0.082 Cl
HETATM   27  C   UNL     1      21.751  48.467  49.124  1.00  0.00     0.064 A 
ENDBRANCH  18  19
ENDBRANCH  17  18
ENDBRANCH   2  17
TORSDOF 5
ENDMDL
MODEL 4
REMARK VINA RESULT:      -8.7      1.954      2.635
REMARK  5 active torsions:
REMARK  status: ('A' for Active; 'I' for Inactive)
REMARK    1  A    between atoms: C_8  and  C_9 
REMARK    2  A    between atoms: N_10  and  N_11 
REMARK       I    between atoms: N_11  and  C_12 
REMARK    3  A    between atoms: C_12  and  C_13 
REMARK    4  A    between atoms: C_13  and  O_14 
REMARK    5  A    between atoms: O_14  and  C_15 
ROOT
HETATM    1  N   UNL     1      25.475  45.026  50.661  1.00  0.00    -0.246 N 
HETATM    2  C   UNL     1      26.653  44.292  50.734  1.00  0.00     0.261 C 
HETATM    3  O   UNL     1      27.653  44.450  50.037  1.00  0.00    -0.269 OA
HETATM    4  H   UNL     1      24.837  44.948  51.454  1.00  0.00     0.192 HD
ENDROOT
BRANCH   1   5
HETATM    5  N   UNL     1      25.233  46.110  49.853  1.00  0.00    -0.184 NA
HETATM    6  C   UNL     1      25.779  47.246  50.148  1.00  0.00     0.152 C 
BRANCH   6   7
HETATM    7  C   UNL     1      25.514  48.408  49.321  1.00  0.00     0.011 A 
HETATM    8  C   UNL     1      24.232  48.975  49.022  1.00  0.00     0.004 A 
HETATM    9  C   UNL     1      22.905  48.641  49.370  1.00  0.00     0.014 A 
HETATM   10  C   UNL     1      24.445  50.085  48.205  1.00  0.00     0.043 A 
HETATM   11  C   UNL     1      21.848  49.426  48.892  1.00  0.00     0.001 A 
HETATM   12  C   UNL     1      22.095  50.530  48.082  1.00  0.00     0.002 A 
HETATM   13  C   UNL     1      23.400  50.882  47.722  1.00  0.00     0.030 A 
HETATM   14  N   UNL     1      25.803  50.189  48.008  1.00  0.00    -0.364 N 
HETATM   15  H   UNL     1      26.248  50.905  47.452  1.00  0.00     0.165 HD
HETATM   16  C   UNL     1      26.455  49.184  48.671  1.00  0.00     0.102 A 
ENDBRANCH   6   7
ENDBRANCH   1   5
BRANCH   2  17
HETATM   17  C   UNL     1      26.584  43.149  51.747  1.00  0.00     0.280 C 
BRANCH  17  18
HETATM   18  O   UNL     1      26.238  43.610  53.048  1.00  0.00    -0.340 OA
BRANCH  18  19
HETATM   19  C   UNL     1      27.255  44.112  53.820  1.00  0.00     0.092 A 
HETATM   20  C   UNL     1      27.106  45.424  54.298  1.00  0.00     0.069 A 
HETATM   21 CL   UNL     1      25.709  46.364  53.907  1.00  0.00    -0.081 Cl
HETATM   22  C   UNL     1      28.090  46.011  55.097  1.00  0.00     0.052 A 
HETATM   23  C   UNL     1      29.233  45.288  55.439  1.00  0.00     0.057 A 
HETATM   24 CL   UNL     1      30.415  46.067  56.429  1.00  0.00    -0.082 Cl
HETATM   25  C   UNL     1      29.387  43.976  54.981  1.00  0.00     0.058 A 
HETATM   26 CL   UNL     1      30.769  43.015  55.374  1.00  0.00    -0.082 Cl
HETATM   27  C   UNL     1      28.401  43.390  54.176  1.00  0.00     0.064 A 
ENDBRANCH  18  19
ENDBRANCH  17  18
ENDBRANCH   2  17
TORSDOF 5
ENDMDL
MODEL 5
REMARK VINA RESULT:      -8.5      4.252      9.510
REMARK  5 active torsions:
REMARK  status: ('A' for Active; 'I' for Inactive)
REMARK    1  A    between atoms: C_8  and  C_9 
REMARK    2  A    between atoms: N_10  and  N_11 
REMARK       I    between atoms: N_11  and  C_12 
REMARK    3  A    between atoms: C_12  and  C_13 
REMARK    4  A    between atoms: C_13  and  O_14 
REMARK    5  A    between atoms: O_14  and  C_15 
ROOT
HETATM    1  N   UNL     1      25.031  45.971  51.981  1.00  0.00    -0.246 N 
HETATM    2  C   UNL     1      24.513  44.771  51.509  1.00  0.00     0.261 C 
HETATM    3  O   UNL     1      24.705  43.657  51.990  1.00  0.00    -0.269 OA
HETATM    4  H   UNL     1      24.593  46.826  51.638  1.00  0.00     0.192 HD
ENDROOT
BRANCH   1   5
HETATM    5  N   UNL     1      25.791  46.148  53.112  1.00  0.00    -0.184 NA
HETATM    6  C   UNL     1      26.939  45.554  53.194  1.00  0.00     0.152 C 
BRANCH   6   7
HETATM    7  C   UNL     1      27.744  45.708  54.391  1.00  0.00     0.011 A 
HETATM    8  C   UNL     1      28.840  44.881  54.800  1.00  0.00     0.004 A 
HETATM    9  C   UNL     1      29.460  43.733  54.261  1.00  0.00     0.014 A 
HETATM   10  C   UNL     1      29.329  45.397  56.001  1.00  0.00     0.043 A 
HETATM   11  C   UNL     1      30.540  43.150  54.935  1.00  0.00     0.001 A 
HETATM   12  C   UNL     1      31.007  43.693  56.128  1.00  0.00     0.002 A 
HETATM   13  C   UNL     1      30.410  44.828  56.686  1.00  0.00     0.030 A 
HETATM   14  N   UNL     1      28.559  46.493  56.314  1.00  0.00    -0.364 N 
HETATM   15  H   UNL     1      28.687  47.066  57.136  1.00  0.00     0.165 HD
HETATM   16  C   UNL     1      27.601  46.687  55.356  1.00  0.00     0.102 A 
ENDBRANCH   6   7
ENDBRANCH   1   5
BRANCH   2  17
HETATM   17  C   UNL     1      23.704  44.934  50.223  1.00  0.00     0.280 C 
BRANCH  17  18
HETATM   18  O   UNL     1      24.295  45.878  49.336  1.00  0.00    -0.340 OA
BRANCH  18  19
HETATM   19  C   UNL     1      23.610  47.049  49.129  1.00  0.00     0.092 A 
HETATM   20  C   UNL     1      24.340  48.243  49.243  1.00  0.00     0.069 A 
HETATM   21 CL   UNL     1      26.020  48.230  49.647  1.00  0.00    -0.081 Cl
HETATM   22  C   UNL     1      23.723  49.481  49.041  1.00  0.00     0.052 A 
HETATM   23  C   UNL     1      22.368  49.538  48.711  1.00  0.00     0.057 A 
HETATM   24 CL   UNL     1      21.662  51.096  48.474  1.00  0.00    -0.082 Cl
HETATM   25  C   UNL     1      21.634  48.356  48.582  1.00  0.00     0.058 A 
HETATM   26 CL   UNL     1      19.957  48.348  48.163  1.00  0.00    -0.082 Cl
HETATM   27  C   UNL     1      22.254  47.115  48.789  1.00  0.00     0.064 A 
ENDBRANCH  18  19
ENDBRANCH  17  18
ENDBRANCH   2  17
TORSDOF 5
ENDMDL
MODEL 6
REMARK VINA RESULT:      -8.4      1.788      2.353
REMARK  5 active torsions:
REMARK  status: ('A' for Active; 'I' for Inactive)
REMARK    1  A    between atoms: C_8  and  C_9 
REMARK    2  A    between atoms: N_10  and  N_11 
REMARK       I    between atoms: N_11  and  C_12 
REMARK    3  A    between atoms: C_12  and  C_13 
REMARK    4  A    between atoms: C_13  and  O_14 
REMARK    5  A    between atoms: O_14  and  C_15 
ROOT
HETATM    1  N   UNL     1      24.924  46.810  50.571  1.00  0.00    -0.246 N 
HETATM    2  C   UNL     1      25.852  46.593  51.583  1.00  0.00     0.261 C 
HETATM    3  O   UNL     1      26.289  47.437  52.363  1.00  0.00    -0.269 OA
HETATM    4  H   UNL     1      24.477  45.983  50.175  1.00  0.00     0.192 HD
ENDROOT
BRANCH   1   5
HETATM    5  N   UNL     1      24.268  47.985  50.299  1.00  0.00    -0.184 NA
HETATM    6  C   UNL     1      23.727  48.146  49.133  1.00  0.00     0.152 C 
BRANCH   6   7
HETATM    7  C   UNL     1      23.052  49.392  48.819  1.00  0.00     0.011 A 
HETATM    8  C   UNL     1      21.652  49.665  48.949  1.00  0.00     0.004 A 
HETATM    9  C   UNL     1      20.536  48.907  49.366  1.00  0.00     0.014 A 
HETATM   10  C   UNL     1      21.445  50.985  48.548  1.00  0.00     0.043 A 
HETATM   11  C   UNL     1      19.265  49.493  49.370  1.00  0.00     0.001 A 
HETATM   12  C   UNL     1      19.093  50.815  48.969  1.00  0.00     0.002 A 
HETATM   13  C   UNL     1      20.180  51.588  48.550  1.00  0.00     0.030 A 
HETATM   14  N   UNL     1      22.669  51.496  48.185  1.00  0.00    -0.364 N 
HETATM   15  H   UNL     1      22.821  52.437  47.850  1.00  0.00     0.165 HD
HETATM   16  C   UNL     1      23.642  50.546  48.339  1.00  0.00     0.102 A 
ENDBRANCH   6   7
ENDBRANCH   1   5
BRANCH   2  17
HETATM   17  C   UNL     1      26.385  45.161  51.609  1.00  0.00     0.280 C 
BRANCH  17  18
HETATM   18  O   UNL     1      26.200  44.545  52.879  1.00  0.00    -0.340 OA
BRANCH  18  19
HETATM   19  C   UNL     1      27.327  44.309  53.625  1.00  0.00     0.092 A 
HETATM   20  C   UNL     1      27.996  43.094  53.401  1.00  0.00     0.069 A 
HETATM   21 CL   UNL     1      27.406  41.946  52.252  1.00  0.00    -0.081 Cl
HETATM   22  C   UNL     1      29.157  42.776  54.112  1.00  0.00     0.052 A 
HETATM   23  C   UNL     1      29.669  43.674  55.048  1.00  0.00     0.057 A 
HETATM   24 CL   UNL     1      31.106  43.225  55.895  1.00  0.00    -0.082 Cl
HETATM   25  C   UNL     1      29.019  44.892  55.269  1.00  0.00     0.058 A 
HETATM   26 CL   UNL     1      29.603  46.060  56.402  1.00  0.00    -0.082 Cl
HETATM   27  C   UNL     1      27.854  45.208  54.558  1.00  0.00     0.064 A 
ENDBRANCH  18  19
ENDBRANCH  17  18
ENDBRANCH   2  17
TORSDOF 5
ENDMDL
MODEL 7
REMARK VINA RESULT:      -8.3      6.065      7.863
REMARK  5 active torsions:
REMARK  status: ('A' for Active; 'I' for Inactive)
REMARK    1  A    between atoms: C_8  and  C_9 
REMARK    2  A    between atoms: N_10  and  N_11 
REMARK       I    between atoms: N_11  and  C_12 
REMARK    3  A    between atoms: C_12  and  C_13 
REMARK    4  A    between atoms: C_13  and  O_14 
REMARK    5  A    between atoms: O_14  and  C_15 
ROOT
HETATM    1  N   UNL     1      27.106  41.394  51.687  1.00  0.00    -0.246 N 
HETATM    2  C   UNL     1      27.872  41.590  52.830  1.00  0.00     0.261 C 
HETATM    3  O   UNL     1      28.737  40.833  53.264  1.00  0.00    -0.269 OA
HETATM    4  H   UNL     1      26.614  42.209  51.320  1.00  0.00     0.192 HD
ENDROOT
BRANCH   1   5
HETATM    5  N   UNL     1      27.221  40.360  50.790  1.00  0.00    -0.184 NA
HETATM    6  C   UNL     1      28.082  40.457  49.828  1.00  0.00     0.152 C 
BRANCH   6   7
HETATM    7  C   UNL     1      28.199  39.385  48.857  1.00  0.00     0.011 A 
HETATM    8  C   UNL     1      28.174  39.514  47.430  1.00  0.00     0.004 A 
HETATM    9  C   UNL     1      28.027  40.603  46.543  1.00  0.00     0.014 A 
HETATM   10  C   UNL     1      28.330  38.237  46.892  1.00  0.00     0.043 A 
HETATM   11  C   UNL     1      28.045  40.377  45.162  1.00  0.00     0.001 A 
HETATM   12  C   UNL     1      28.208  39.090  44.657  1.00  0.00     0.002 A 
HETATM   13  C   UNL     1      28.353  37.993  45.512  1.00  0.00     0.030 A 
HETATM   14  N   UNL     1      28.441  37.362  47.948  1.00  0.00    -0.364 N 
HETATM   15  H   UNL     1      28.563  36.364  47.854  1.00  0.00     0.165 HD
HETATM   16  C   UNL     1      28.359  38.041  49.134  1.00  0.00     0.102 A 
ENDBRANCH   6   7
ENDBRANCH   1   5
BRANCH   2  17
HETATM   17  C   UNL     1      27.483  42.851  53.602  1.00  0.00     0.280 C 
BRANCH  17  18
HETATM   18  O   UNL     1      28.425  43.902  53.416  1.00  0.00    -0.340 OA
BRANCH  18  19
HETATM   19  C   UNL     1      29.039  44.391  54.542  1.00  0.00     0.092 A 
HETATM   20  C   UNL     1      28.512  45.571  55.093  1.00  0.00     0.069 A 
HETATM   21 CL   UNL     1      27.166  46.375  54.366  1.00  0.00    -0.081 Cl
HETATM   22  C   UNL     1      29.071  46.135  56.243  1.00  0.00     0.052 A 
HETATM   23  C   UNL     1      30.158  45.518  56.864  1.00  0.00     0.057 A 
HETATM   24 CL   UNL     1      30.805  46.262  58.282  1.00  0.00    -0.082 Cl
HETATM   25  C   UNL     1      30.682  44.336  56.333  1.00  0.00     0.058 A 
HETATM   26 CL   UNL     1      32.017  43.509  57.055  1.00  0.00    -0.082 Cl
HETATM   27  C   UNL     1      30.123  43.774  55.177  1.00  0.00     0.064 A 
ENDBRANCH  18  19
ENDBRANCH  17  18
ENDBRANCH   2  17
TORSDOF 5
ENDMDL
MODEL 8
REMARK VINA RESULT:      -8.3      6.404      9.738
REMARK  5 active torsions:
REMARK  status: ('A' for Active; 'I' for Inactive)
REMARK    1  A    between atoms: C_8  and  C_9 
REMARK    2  A    between atoms: N_10  and  N_11 
REMARK       I    between atoms: N_11  and  C_12 
REMARK    3  A    between atoms: C_12  and  C_13 
REMARK    4  A    between atoms: C_13  and  O_14 
REMARK    5  A    between atoms: O_14  and  C_15 
ROOT
HETATM    1  N   UNL     1      27.783  41.900  52.458  1.00  0.00    -0.246 N 
HETATM    2  C   UNL     1      26.816  42.096  51.480  1.00  0.00     0.261 C 
HETATM    3  O   UNL     1      25.951  42.969  51.476  1.00  0.00    -0.269 OA
HETATM    4  H   UNL     1      28.572  41.304  52.209  1.00  0.00     0.192 HD
ENDROOT
BRANCH   1   5
HETATM    5  N   UNL     1      28.002  42.686  53.563  1.00  0.00    -0.184 NA
HETATM    6  C   UNL     1      28.704  43.766  53.435  1.00  0.00     0.152 C 
BRANCH   6   7
HETATM    7  C   UNL     1      28.968  44.596  54.596  1.00  0.00     0.011 A 
HETATM    8  C   UNL     1      29.910  44.332  55.643  1.00  0.00     0.004 A 
HETATM    9  C   UNL     1      30.814  43.280  55.910  1.00  0.00     0.014 A 
HETATM   10  C   UNL     1      29.841  45.394  56.545  1.00  0.00     0.043 A 
HETATM   11  C   UNL     1      31.612  43.331  57.059  1.00  0.00     0.001 A 
HETATM   12  C   UNL     1      31.523  44.408  57.936  1.00  0.00     0.002 A 
HETATM   13  C   UNL     1      30.635  45.461  57.697  1.00  0.00     0.030 A 
HETATM   14  N   UNL     1      28.892  46.269  56.070  1.00  0.00    -0.364 N 
HETATM   15  H   UNL     1      28.631  47.132  56.524  1.00  0.00     0.165 HD
HETATM   16  C   UNL     1      28.357  45.798  54.901  1.00  0.00     0.102 A 
ENDBRANCH   6   7
ENDBRANCH   1   5
BRANCH   2  17
HETATM   17  C   UNL     1      26.852  41.033  50.382  1.00  0.00     0.280 C 
BRANCH  17  18
HETATM   18  O   UNL     1      28.139  40.930  49.782  1.00  0.00    -0.340 OA
BRANCH  18  19
HETATM   19  C   UNL     1      28.301  39.961  48.823  1.00  0.00     0.092 A 
HETATM   20  C   UNL     1      28.952  38.780  49.214  1.00  0.00     0.069 A 
HETATM   21 CL   UNL     1      29.540  38.574  50.827  1.00  0.00    -0.081 Cl
HETATM   22  C   UNL     1      29.153  37.738  48.304  1.00  0.00     0.052 A 
HETATM   23  C   UNL     1      28.694  37.861  46.993  1.00  0.00     0.057 A 
HETATM   24 CL   UNL     1      28.971  36.541  45.914  1.00  0.00    -0.082 Cl
HETATM   25  C   UNL     1      28.031  39.027  46.595  1.00  0.00     0.058 A 
HETATM   26 CL   UNL     1      27.423  39.244  44.992  1.00  0.00    -0.082 Cl
HETATM   27  C   UNL     1      27.834  40.072  47.508  1.00  0.00     0.064 A 
ENDBRANCH  18  19
ENDBRANCH  17  18
ENDBRANCH   2  17
TORSDOF 5
ENDMDL
MODEL 9
REMARK VINA RESULT:      -8.1      2.501      3.466
REMARK  5 active torsions:
REMARK  status: ('A' for Active; 'I' for Inactive)
REMARK    1  A    between atoms: C_8  and  C_9 
REMARK    2  A    between atoms: N_10  and  N_11 
REMARK       I    between atoms: N_11  and  C_12 
REMARK    3  A    between atoms: C_12  and  C_13 
REMARK    4  A    between atoms: C_13  and  O_14 
REMARK    5  A    between atoms: O_14  and  C_15 
ROOT
HETATM    1  N   UNL     1      25.445  43.879  52.409  1.00  0.00    -0.246 N 
HETATM    2  C   UNL     1      26.502  43.003  52.190  1.00  0.00     0.261 C 
HETATM    3  O   UNL     1      26.649  42.270  51.214  1.00  0.00    -0.269 OA
HETATM    4  H   UNL     1      25.582  44.590  53.128  1.00  0.00     0.192 HD
ENDROOT
BRANCH   1   5
HETATM    5  N   UNL     1      24.409  44.145  51.548  1.00  0.00    -0.184 NA
HETATM    6  C   UNL     1      24.621  44.919  50.532  1.00  0.00     0.152 C 
BRANCH   6   7
HETATM    7  C   UNL     1      23.532  45.232  49.626  1.00  0.00     0.011 A 
HETATM    8  C   UNL     1      23.183  46.526  49.119  1.00  0.00     0.004 A 
HETATM    9  C   UNL     1      23.700  47.827  49.305  1.00  0.00     0.014 A 
HETATM   10  C   UNL     1      22.084  46.363  48.276  1.00  0.00     0.043 A 
HETATM   11  C   UNL     1      23.104  48.907  48.643  1.00  0.00     0.001 A 
HETATM   12  C   UNL     1      22.011  48.709  47.804  1.00  0.00     0.002 A 
HETATM   13  C   UNL     1      21.478  47.432  47.605  1.00  0.00     0.030 A 
HETATM   14  N   UNL     1      21.771  45.023  48.273  1.00  0.00    -0.364 N 
HETATM   15  H   UNL     1      21.012  44.613  47.747  1.00  0.00     0.165 HD
HETATM   16  C   UNL     1      22.632  44.334  49.084  1.00  0.00     0.102 A 
ENDBRANCH   6   7
ENDBRANCH   1   5
BRANCH   2  17
HETATM   17  C   UNL     1      27.487  42.950  53.357  1.00  0.00     0.280 C 
BRANCH  17  18
HETATM   18  O   UNL     1      28.500  43.945  53.245  1.00  0.00    -0.340 OA
BRANCH  18  19
HETATM   19  C   UNL     1      29.070  44.383  54.414  1.00  0.00     0.092 A 
HETATM   20  C   UNL     1      28.524  45.539  54.996  1.00  0.00     0.069 A 
HETATM   21 CL   UNL     1      27.207  46.377  54.254  1.00  0.00    -0.081 Cl
HETATM   22  C   UNL     1      29.039  46.051  56.190  1.00  0.00     0.052 A 
HETATM   23  C   UNL     1      30.101  45.405  56.824  1.00  0.00     0.057 A 
HETATM   24 CL   UNL     1      30.694  46.085  58.296  1.00  0.00    -0.082 Cl
HETATM   25  C   UNL     1      30.644  44.246  56.262  1.00  0.00     0.058 A 
HETATM   26 CL   UNL     1      31.950  43.385  56.998  1.00  0.00    -0.082 Cl
HETATM   27  C   UNL     1      30.129  43.736  55.062  1.00  0.00     0.064 A 
ENDBRANCH  18  19
ENDBRANCH  17  18
ENDBRANCH   2  17
TORSDOF 5
ENDMDL
MODEL 10
REMARK VINA RESULT:      -8.0      3.083      4.541
REMARK  5 active torsions:
REMARK  status: ('A' for Active; 'I' for Inactive)
REMARK    1  A    between atoms: C_8  and  C_9 
REMARK    2  A    between atoms: N_10  and  N_11 
REMARK       I    between atoms: N_11  and  C_12 
REMARK    3  A    between atoms: C_12  and  C_13 
REMARK    4  A    between atoms: C_13  and  O_14 
REMARK    5  A    between atoms: O_14  and  C_15 
ROOT
HETATM    1  N   UNL     1      23.648  47.384  49.885  1.00  0.00    -0.246 N 
HETATM    2  C   UNL     1      24.498  46.293  49.752  1.00  0.00     0.261 C 
HETATM    3  O   UNL     1      24.305  45.300  49.054  1.00  0.00    -0.269 OA
HETATM    4  H   UNL     1      24.047  48.228  50.295  1.00  0.00     0.192 HD
ENDROOT
BRANCH   1   5
HETATM    5  N   UNL     1      22.471  47.593  49.209  1.00  0.00    -0.184 NA
HETATM    6  C   UNL     1      22.297  48.713  48.584  1.00  0.00     0.152 C 
BRANCH   6   7
HETATM    7  C   UNL     1      21.050  48.962  47.886  1.00  0.00     0.011 A 
HETATM    8  C   UNL     1      20.269  50.163  47.925  1.00  0.00     0.004 A 
HETATM    9  C   UNL     1      20.401  51.400  48.594  1.00  0.00     0.014 A 
HETATM   10  C   UNL     1      19.161  49.969  47.100  1.00  0.00     0.043 A 
HETATM   11  C   UNL     1      19.428  52.390  48.411  1.00  0.00     0.001 A 
HETATM   12  C   UNL     1      18.337  52.166  47.577  1.00  0.00     0.002 A 
HETATM   13  C   UNL     1      18.181  50.951  46.905  1.00  0.00     0.030 A 
HETATM   14  N   UNL     1      19.259  48.699  46.582  1.00  0.00    -0.364 N 
HETATM   15  H   UNL     1      18.589  48.285  45.948  1.00  0.00     0.165 HD
HETATM   16  C   UNL     1      20.388  48.082  47.050  1.00  0.00     0.102 A 
ENDBRANCH   6   7
ENDBRANCH   1   5
BRANCH   2  17
HETATM   17  C   UNL     1      25.730  46.381  50.653  1.00  0.00     0.280 C 
BRANCH  17  18
HETATM   18  O   UNL     1      25.472  45.879  51.960  1.00  0.00    -0.340 OA
BRANCH  18  19
HETATM   19  C   UNL     1      26.551  45.416  52.671  1.00  0.00     0.092 A 
HETATM   20  C   UNL     1      26.864  46.088  53.863  1.00  0.00     0.069 A 
HETATM   21 CL   UNL     1      25.941  47.450  54.392  1.00  0.00    -0.081 Cl
HETATM   22  C   UNL     1      27.942  45.679  54.653  1.00  0.00     0.052 A 
HETATM   23  C   UNL     1      28.714  44.583  54.265  1.00  0.00     0.057 A 
HETATM   24 CL   UNL     1      30.032  44.125  55.283  1.00  0.00    -0.082 Cl
HETATM   25  C   UNL     1      28.403  43.897  53.087  1.00  0.00     0.058 A 
HETATM   26 CL   UNL     1      29.305  42.524  52.551  1.00  0.00    -0.082 Cl
HETATM   27  C   UNL     1      27.324  44.312  52.294  1.00  0.00     0.064 A 
ENDBRANCH  18  19
ENDBRANCH  17  18
ENDBRANCH   2  17
TORSDOF 5
ENDMDL
