MODEL 1
REMARK VINA RESULT:      -8.7      0.000      0.000
REMARK  6 active torsions:
REMARK  status: ('A' for Active; 'I' for Inactive)
REMARK    1  A    between atoms: O_2  and  C_3 
REMARK    2  A    between atoms: C_6  and  C_7 
REMARK    3  A    between atoms: C_7  and  N_8 
REMARK       I    between atoms: N_8  and  C_9 
REMARK    4  A    between atoms: C_9  and  C_10 
REMARK    5  A    between atoms: C_10  and  O_11 
REMARK    6  A    between atoms: N_12  and  C_13 
ROOT
HETATM    1  C   UNL     1      28.272  49.317  40.192  1.00  0.00     0.256 C 
HETATM    2  N   UNL     1      28.580  50.499  39.379  1.00  0.00    -0.248 N 
HETATM    3  C   UNL     1      27.688  50.923  38.407  1.00  0.00     0.330 C 
HETATM    4  O   UNL     1      27.650  52.063  37.943  1.00  0.00    -0.246 OA
HETATM    5  N   UNL     1      26.799  50.005  37.934  1.00  0.00    -0.308 N 
HETATM    6  C   UNL     1      26.763  48.669  38.310  1.00  0.00     0.048 A 
HETATM    7  C   UNL     1      27.522  48.254  39.401  1.00  0.00     0.034 A 
HETATM    8  C   UNL     1      25.969  47.776  37.587  1.00  0.00     0.030 A 
HETATM    9  C   UNL     1      25.948  46.430  37.941  1.00  0.00     0.002 A 
HETATM   10  C   UNL     1      26.702  45.989  39.025  1.00  0.00     0.001 A 
HETATM   11  C   UNL     1      27.473  46.894  39.760  1.00  0.00     0.015 A 
HETATM   12  H   UNL     1      26.220  50.337  37.175  1.00  0.00     0.170 HD
ENDROOT
BRANCH   1  13
HETATM   13  C   UNL     1      29.569  48.668  40.854  1.00  0.00     0.279 C 
HETATM   14  N   UNL     1      29.826  49.149  42.130  1.00  0.00    -0.352 N 
HETATM   15  H   UNL     1      29.136  49.775  42.535  1.00  0.00     0.162 HD
HETATM   16  O   UNL     1      30.278  47.825  40.308  1.00  0.00    -0.268 OA
BRANCH  14  17
HETATM   17  C   UNL     1      30.940  48.712  42.931  1.00  0.00     0.161 C 
BRANCH  17  18
HETATM   18  C   UNL     1      32.102  49.661  42.817  1.00  0.00    -0.040 A 
HETATM   19  C   UNL     1      32.168  50.800  43.632  1.00  0.00     0.011 A 
HETATM   20  C   UNL     1      33.257  51.674  43.552  1.00  0.00     0.037 A 
HETATM   21  C   UNL     1      34.292  51.424  42.652  1.00  0.00     0.068 A 
HETATM   22  C   UNL     1      34.210  50.314  41.810  1.00  0.00     0.037 A 
HETATM   23  C   UNL     1      33.126  49.436  41.888  1.00  0.00     0.011 A 
BRANCH  21  24
HETATM   24  O   UNL     1      35.416  52.187  42.491  1.00  0.00    -0.356 OA
HETATM   25  C   UNL     1      36.196  52.420  43.658  1.00  0.00     0.210 C 
ENDBRANCH  21  24
ENDBRANCH  17  18
ENDBRANCH  14  17
ENDBRANCH   1  13
BRANCH   1  26
HETATM   26  O   UNL     1      27.367  49.734  41.226  1.00  0.00    -0.359 OA
HETATM   27  H   UNL     1      27.943  49.892  41.994  1.00  0.00     0.213 HD
ENDBRANCH   1  26
BRANCH   2  28
HETATM   28  C   UNL     1      29.700  51.349  39.676  1.00  0.00     0.120 A 
HETATM   29  C   UNL     1      29.640  52.384  40.616  1.00  0.00     0.146 A 
HETATM   30  F   UNL     1      28.483  52.669  41.232  1.00  0.00    -0.204 F 
HETATM   31  C   UNL     1      30.746  53.188  40.898  1.00  0.00     0.045 A 
HETATM   32  C   UNL     1      31.952  52.970  40.234  1.00  0.00     0.006 A 
HETATM   33  C   UNL     1      32.041  51.949  39.292  1.00  0.00     0.045 A 
HETATM   34  C   UNL     1      30.927  51.152  39.022  1.00  0.00     0.146 A 
HETATM   35  F   UNL     1      31.086  50.131  38.164  1.00  0.00    -0.204 F 
ENDBRANCH   2  28
TORSDOF 6
ENDMDL
MODEL 2
REMARK VINA RESULT:      -8.4     12.715     14.132
REMARK  6 active torsions:
REMARK  status: ('A' for Active; 'I' for Inactive)
REMARK    1  A    between atoms: O_2  and  C_3 
REMARK    2  A    between atoms: C_6  and  C_7 
REMARK    3  A    between atoms: C_7  and  N_8 
REMARK       I    between atoms: N_8  and  C_9 
REMARK    4  A    between atoms: C_9  and  C_10 
REMARK    5  A    between atoms: C_10  and  O_11 
REMARK    6  A    between atoms: N_12  and  C_13 
ROOT
HETATM    1  C   UNL     1      26.569  42.552  51.241  1.00  0.00     0.256 C 
HETATM    2  N   UNL     1      25.520  43.576  51.297  1.00  0.00    -0.248 N 
HETATM    3  C   UNL     1      24.298  43.351  50.684  1.00  0.00     0.330 C 
HETATM    4  O   UNL     1      23.255  43.939  50.969  1.00  0.00    -0.246 OA
HETATM    5  N   UNL     1      24.261  42.415  49.694  1.00  0.00    -0.308 N 
HETATM    6  C   UNL     1      25.364  41.720  49.218  1.00  0.00     0.048 A 
HETATM    7  C   UNL     1      26.564  41.793  49.921  1.00  0.00     0.034 A 
HETATM    8  C   UNL     1      25.245  40.966  48.048  1.00  0.00     0.030 A 
HETATM    9  C   UNL     1      26.354  40.287  47.550  1.00  0.00     0.002 A 
HETATM   10  C   UNL     1      27.566  40.349  48.231  1.00  0.00     0.001 A 
HETATM   11  C   UNL     1      27.670  41.084  49.416  1.00  0.00     0.015 A 
HETATM   12  H   UNL     1      23.368  42.338  49.226  1.00  0.00     0.170 HD
ENDROOT
BRANCH   1  13
HETATM   13  C   UNL     1      28.026  43.145  51.504  1.00  0.00     0.279 C 
HETATM   14  N   UNL     1      28.712  42.473  52.507  1.00  0.00    -0.352 N 
HETATM   15  H   UNL     1      28.269  41.645  52.895  1.00  0.00     0.162 HD
HETATM   16  O   UNL     1      28.510  44.094  50.892  1.00  0.00    -0.268 OA
BRANCH  14  17
HETATM   17  C   UNL     1      30.045  42.823  52.924  1.00  0.00     0.161 C 
BRANCH  17  18
HETATM   18  C   UNL     1      30.030  43.598  54.213  1.00  0.00    -0.040 A 
HETATM   19  C   UNL     1      30.976  43.328  55.212  1.00  0.00     0.011 A 
HETATM   20  C   UNL     1      30.987  44.062  56.403  1.00  0.00     0.037 A 
HETATM   21  C   UNL     1      30.049  45.071  56.613  1.00  0.00     0.068 A 
HETATM   22  C   UNL     1      29.080  45.316  55.639  1.00  0.00     0.037 A 
HETATM   23  C   UNL     1      29.068  44.588  54.446  1.00  0.00     0.011 A 
BRANCH  21  24
HETATM   24  O   UNL     1      29.966  45.870  57.721  1.00  0.00    -0.356 OA
HETATM   25  C   UNL     1      28.672  46.356  58.056  1.00  0.00     0.210 C 
ENDBRANCH  21  24
ENDBRANCH  17  18
ENDBRANCH  14  17
ENDBRANCH   1  13
BRANCH   1  26
HETATM   26  O   UNL     1      26.264  41.574  52.246  1.00  0.00    -0.359 OA
HETATM   27  H   UNL     1      25.753  40.897  51.769  1.00  0.00     0.213 HD
ENDBRANCH   1  26
BRANCH   2  28
HETATM   28  C   UNL     1      25.649  44.746  52.123  1.00  0.00     0.120 A 
HETATM   29  C   UNL     1      25.496  44.713  53.513  1.00  0.00     0.146 A 
HETATM   30  F   UNL     1      25.142  43.573  54.127  1.00  0.00    -0.204 F 
HETATM   31  C   UNL     1      25.639  45.859  54.297  1.00  0.00     0.045 A 
HETATM   32  C   UNL     1      25.943  47.079  53.696  1.00  0.00     0.006 A 
HETATM   33  C   UNL     1      26.099  47.143  52.314  1.00  0.00     0.045 A 
HETATM   34  C   UNL     1      25.953  45.988  51.544  1.00  0.00     0.146 A 
HETATM   35  F   UNL     1      26.192  46.085  50.226  1.00  0.00    -0.204 F 
ENDBRANCH   2  28
TORSDOF 6
ENDMDL
MODEL 3
REMARK VINA RESULT:      -8.3     11.425     12.913
REMARK  6 active torsions:
REMARK  status: ('A' for Active; 'I' for Inactive)
REMARK    1  A    between atoms: O_2  and  C_3 
REMARK    2  A    between atoms: C_6  and  C_7 
REMARK    3  A    between atoms: C_7  and  N_8 
REMARK       I    between atoms: N_8  and  C_9 
REMARK    4  A    between atoms: C_9  and  C_10 
REMARK    5  A    between atoms: C_10  and  O_11 
REMARK    6  A    between atoms: N_12  and  C_13 
ROOT
HETATM    1  C   UNL     1      19.623  47.429  48.549  1.00  0.00     0.256 C 
HETATM    2  N   UNL     1      18.451  48.285  48.335  1.00  0.00    -0.248 N 
HETATM    3  C   UNL     1      17.215  47.716  48.075  1.00  0.00     0.330 C 
HETATM    4  O   UNL     1      16.135  48.281  48.249  1.00  0.00    -0.246 OA
HETATM    5  N   UNL     1      17.205  46.443  47.589  1.00  0.00    -0.308 N 
HETATM    6  C   UNL     1      18.338  45.703  47.280  1.00  0.00     0.048 A 
HETATM    7  C   UNL     1      19.584  46.174  47.688  1.00  0.00     0.034 A 
HETATM    8  C   UNL     1      18.203  44.508  46.569  1.00  0.00     0.030 A 
HETATM    9  C   UNL     1      19.337  43.774  46.233  1.00  0.00     0.002 A 
HETATM   10  C   UNL     1      20.594  44.226  46.625  1.00  0.00     0.001 A 
HETATM   11  C   UNL     1      20.719  45.409  47.359  1.00  0.00     0.015 A 
HETATM   12  H   UNL     1      16.288  46.096  47.344  1.00  0.00     0.170 HD
ENDROOT
BRANCH   1  13
HETATM   13  C   UNL     1      21.000  48.195  48.305  1.00  0.00     0.279 C 
HETATM   14  N   UNL     1      21.800  48.249  49.438  1.00  0.00    -0.352 N 
HETATM   15  H   UNL     1      21.479  47.735  50.254  1.00  0.00     0.162 HD
HETATM   16  O   UNL     1      21.338  48.690  47.231  1.00  0.00    -0.268 OA
BRANCH  14  17
HETATM   17  C   UNL     1      23.090  48.886  49.466  1.00  0.00     0.161 C 
BRANCH  17  18
HETATM   18  C   UNL     1      24.201  47.873  49.511  1.00  0.00    -0.040 A 
HETATM   19  C   UNL     1      25.539  48.290  49.524  1.00  0.00     0.011 A 
HETATM   20  C   UNL     1      26.579  47.356  49.594  1.00  0.00     0.037 A 
HETATM   21  C   UNL     1      26.294  45.993  49.645  1.00  0.00     0.068 A 
HETATM   22  C   UNL     1      24.964  45.572  49.591  1.00  0.00     0.037 A 
HETATM   23  C   UNL     1      23.923  46.501  49.525  1.00  0.00     0.011 A 
BRANCH  21  24
HETATM   24  O   UNL     1      27.214  44.984  49.734  1.00  0.00    -0.356 OA
HETATM   25  C   UNL     1      27.216  44.233  50.942  1.00  0.00     0.210 C 
ENDBRANCH  21  24
ENDBRANCH  17  18
ENDBRANCH  14  17
ENDBRANCH   1  13
BRANCH   1  26
HETATM   26  O   UNL     1      19.570  46.965  49.905  1.00  0.00    -0.359 OA
HETATM   27  H   UNL     1      20.432  47.220  50.277  1.00  0.00     0.213 HD
ENDBRANCH   1  26
BRANCH   2  28
HETATM   28  C   UNL     1      18.499  49.704  48.562  1.00  0.00     0.120 A 
HETATM   29  C   UNL     1      18.508  50.267  49.843  1.00  0.00     0.146 A 
HETATM   30  F   UNL     1      18.394  49.483  50.926  1.00  0.00    -0.204 F 
HETATM   31  C   UNL     1      18.570  51.647  50.040  1.00  0.00     0.045 A 
HETATM   32  C   UNL     1      18.624  52.505  48.943  1.00  0.00     0.006 A 
HETATM   33  C   UNL     1      18.615  51.973  47.656  1.00  0.00     0.045 A 
HETATM   34  C   UNL     1      18.554  50.590  47.475  1.00  0.00     0.146 A 
HETATM   35  F   UNL     1      18.628  50.124  46.218  1.00  0.00    -0.204 F 
ENDBRANCH   2  28
TORSDOF 6
ENDMDL
MODEL 4
REMARK VINA RESULT:      -8.2      2.258      6.796
REMARK  6 active torsions:
REMARK  status: ('A' for Active; 'I' for Inactive)
REMARK    1  A    between atoms: O_2  and  C_3 
REMARK    2  A    between atoms: C_6  and  C_7 
REMARK    3  A    between atoms: C_7  and  N_8 
REMARK       I    between atoms: N_8  and  C_9 
REMARK    4  A    between atoms: C_9  and  C_10 
REMARK    5  A    between atoms: C_10  and  O_11 
REMARK    6  A    between atoms: N_12  and  C_13 
ROOT
HETATM    1  C   UNL     1      30.509  51.019  40.221  1.00  0.00     0.256 C 
HETATM    2  N   UNL     1      29.107  51.265  40.580  1.00  0.00    -0.248 N 
HETATM    3  C   UNL     1      28.793  52.208  41.545  1.00  0.00     0.330 C 
HETATM    4  O   UNL     1      27.696  52.755  41.658  1.00  0.00    -0.246 OA
HETATM    5  N   UNL     1      29.774  52.543  42.430  1.00  0.00    -0.308 N 
HETATM    6  C   UNL     1      31.036  51.967  42.471  1.00  0.00     0.048 A 
HETATM    7  C   UNL     1      31.441  51.150  41.418  1.00  0.00     0.034 A 
HETATM    8  C   UNL     1      31.869  52.219  43.564  1.00  0.00     0.030 A 
HETATM    9  C   UNL     1      33.126  51.624  43.625  1.00  0.00     0.002 A 
HETATM   10  C   UNL     1      33.551  50.799  42.587  1.00  0.00     0.001 A 
HETATM   11  C   UNL     1      32.722  50.572  41.484  1.00  0.00     0.015 A 
HETATM   12  H   UNL     1      29.479  53.177  43.160  1.00  0.00     0.170 HD
ENDROOT
BRANCH   1  13
HETATM   13  C   UNL     1      30.729  49.599  39.531  1.00  0.00     0.279 C 
HETATM   14  N   UNL     1      30.463  48.535  40.382  1.00  0.00    -0.352 N 
HETATM   15  H   UNL     1      30.081  48.759  41.296  1.00  0.00     0.162 HD
HETATM   16  O   UNL     1      31.094  49.442  38.367  1.00  0.00    -0.268 OA
BRANCH  14  17
HETATM   17  C   UNL     1      30.589  47.156  39.987  1.00  0.00     0.161 C 
BRANCH  17  18
HETATM   18  C   UNL     1      29.294  46.622  39.440  1.00  0.00    -0.040 A 
HETATM   19  C   UNL     1      28.371  45.996  40.290  1.00  0.00     0.011 A 
HETATM   20  C   UNL     1      27.152  45.520  39.796  1.00  0.00     0.037 A 
HETATM   21  C   UNL     1      26.842  45.659  38.444  1.00  0.00     0.068 A 
HETATM   22  C   UNL     1      27.775  46.245  37.587  1.00  0.00     0.037 A 
HETATM   23  C   UNL     1      28.992  46.725  38.077  1.00  0.00     0.011 A 
BRANCH  21  24
HETATM   24  O   UNL     1      25.681  45.256  37.842  1.00  0.00    -0.356 OA
HETATM   25  C   UNL     1      24.477  45.823  38.345  1.00  0.00     0.210 C 
ENDBRANCH  21  24
ENDBRANCH  17  18
ENDBRANCH  14  17
ENDBRANCH   1  13
BRANCH   1  26
HETATM   26  O   UNL     1      30.904  52.057  39.313  1.00  0.00    -0.359 OA
HETATM   27  H   UNL     1      30.956  51.609  38.450  1.00  0.00     0.213 HD
ENDBRANCH   1  26
BRANCH   2  28
HETATM   28  C   UNL     1      28.023  50.685  39.834  1.00  0.00     0.120 A 
HETATM   29  C   UNL     1      27.672  51.114  38.550  1.00  0.00     0.146 A 
HETATM   30  F   UNL     1      28.304  52.157  37.989  1.00  0.00    -0.204 F 
HETATM   31  C   UNL     1      26.624  50.527  37.838  1.00  0.00     0.045 A 
HETATM   32  C   UNL     1      25.896  49.484  38.407  1.00  0.00     0.006 A 
HETATM   33  C   UNL     1      26.222  49.037  39.684  1.00  0.00     0.045 A 
HETATM   34  C   UNL     1      27.273  49.634  40.383  1.00  0.00     0.146 A 
HETATM   35  F   UNL     1      27.599  49.114  41.578  1.00  0.00    -0.204 F 
ENDBRANCH   2  28
TORSDOF 6
ENDMDL
MODEL 5
REMARK VINA RESULT:      -8.1      2.413      4.221
REMARK  6 active torsions:
REMARK  status: ('A' for Active; 'I' for Inactive)
REMARK    1  A    between atoms: O_2  and  C_3 
REMARK    2  A    between atoms: C_6  and  C_7 
REMARK    3  A    between atoms: C_7  and  N_8 
REMARK       I    between atoms: N_8  and  C_9 
REMARK    4  A    between atoms: C_9  and  C_10 
REMARK    5  A    between atoms: C_10  and  O_11 
REMARK    6  A    between atoms: N_12  and  C_13 
ROOT
HETATM    1  C   UNL     1      26.887  48.645  39.045  1.00  0.00     0.256 C 
HETATM    2  N   UNL     1      27.445  47.877  40.165  1.00  0.00    -0.248 N 
HETATM    3  C   UNL     1      26.677  46.909  40.792  1.00  0.00     0.330 C 
HETATM    4  O   UNL     1      27.133  45.978  41.457  1.00  0.00    -0.246 OA
HETATM    5  N   UNL     1      25.324  47.004  40.661  1.00  0.00    -0.308 N 
HETATM    6  C   UNL     1      24.662  48.031  40.000  1.00  0.00     0.048 A 
HETATM    7  C   UNL     1      25.399  48.917  39.218  1.00  0.00     0.034 A 
HETATM    8  C   UNL     1      23.277  48.150  40.135  1.00  0.00     0.030 A 
HETATM    9  C   UNL     1      22.610  49.191  39.497  1.00  0.00     0.002 A 
HETATM   10  C   UNL     1      23.324  50.093  38.714  1.00  0.00     0.001 A 
HETATM   11  C   UNL     1      24.707  49.952  38.563  1.00  0.00     0.015 A 
HETATM   12  H   UNL     1      24.804  46.322  41.195  1.00  0.00     0.170 HD
ENDROOT
BRANCH   1  13
HETATM   13  C   UNL     1      27.652  50.022  38.800  1.00  0.00     0.279 C 
HETATM   14  N   UNL     1      27.525  50.910  39.859  1.00  0.00    -0.352 N 
HETATM   15  H   UNL     1      27.052  50.570  40.692  1.00  0.00     0.162 HD
HETATM   16  O   UNL     1      28.294  50.288  37.786  1.00  0.00    -0.268 OA
BRANCH  14  17
HETATM   17  C   UNL     1      28.128  52.217  39.872  1.00  0.00     0.161 C 
BRANCH  17  18
HETATM   18  C   UNL     1      29.453  52.203  40.584  1.00  0.00    -0.040 A 
HETATM   19  C   UNL     1      29.525  52.493  41.953  1.00  0.00     0.011 A 
HETATM   20  C   UNL     1      30.749  52.456  42.629  1.00  0.00     0.037 A 
HETATM   21  C   UNL     1      31.919  52.133  41.943  1.00  0.00     0.068 A 
HETATM   22  C   UNL     1      31.858  51.884  40.571  1.00  0.00     0.037 A 
HETATM   23  C   UNL     1      30.637  51.916  39.893  1.00  0.00     0.011 A 
BRANCH  21  24
HETATM   24  O   UNL     1      33.170  52.044  42.490  1.00  0.00    -0.356 OA
HETATM   25  C   UNL     1      33.235  51.726  43.875  1.00  0.00     0.210 C 
ENDBRANCH  21  24
ENDBRANCH  17  18
ENDBRANCH  14  17
ENDBRANCH   1  13
BRANCH   1  26
HETATM   26  O   UNL     1      26.993  47.825  37.873  1.00  0.00    -0.359 OA
HETATM   27  H   UNL     1      26.103  47.446  37.768  1.00  0.00     0.213 HD
ENDBRANCH   1  26
BRANCH   2  28
HETATM   28  C   UNL     1      28.833  47.968  40.527  1.00  0.00     0.120 A 
HETATM   29  C   UNL     1      29.857  47.414  39.751  1.00  0.00     0.146 A 
HETATM   30  F   UNL     1      29.562  46.699  38.655  1.00  0.00    -0.204 F 
HETATM   31  C   UNL     1      31.200  47.528  40.115  1.00  0.00     0.045 A 
HETATM   32  C   UNL     1      31.550  48.207  41.280  1.00  0.00     0.006 A 
HETATM   33  C   UNL     1      30.552  48.767  42.073  1.00  0.00     0.045 A 
HETATM   34  C   UNL     1      29.214  48.646  41.696  1.00  0.00     0.146 A 
HETATM   35  F   UNL     1      28.296  49.271  42.451  1.00  0.00    -0.204 F 
ENDBRANCH   2  28
TORSDOF 6
ENDMDL
MODEL 6
REMARK VINA RESULT:      -8.0     12.202     14.132
REMARK  6 active torsions:
REMARK  status: ('A' for Active; 'I' for Inactive)
REMARK    1  A    between atoms: O_2  and  C_3 
REMARK    2  A    between atoms: C_6  and  C_7 
REMARK    3  A    between atoms: C_7  and  N_8 
REMARK       I    between atoms: N_8  and  C_9 
REMARK    4  A    between atoms: C_9  and  C_10 
REMARK    5  A    between atoms: C_10  and  O_11 
REMARK    6  A    between atoms: N_12  and  C_13 
ROOT
HETATM    1  C   UNL     1      25.868  43.648  51.923  1.00  0.00     0.256 C 
HETATM    2  N   UNL     1      25.896  44.121  50.534  1.00  0.00    -0.248 N 
HETATM    3  C   UNL     1      26.241  43.251  49.513  1.00  0.00     0.330 C 
HETATM    4  O   UNL     1      25.946  43.412  48.328  1.00  0.00    -0.246 OA
HETATM    5  N   UNL     1      26.961  42.145  49.852  1.00  0.00    -0.308 N 
HETATM    6  C   UNL     1      27.423  41.862  51.130  1.00  0.00     0.048 A 
HETATM    7  C   UNL     1      26.952  42.616  52.202  1.00  0.00     0.034 A 
HETATM    8  C   UNL     1      28.347  40.829  51.310  1.00  0.00     0.030 A 
HETATM    9  C   UNL     1      28.835  40.556  52.585  1.00  0.00     0.002 A 
HETATM   10  C   UNL     1      28.384  41.299  53.672  1.00  0.00     0.001 A 
HETATM   11  C   UNL     1      27.439  42.314  53.487  1.00  0.00     0.015 A 
HETATM   12  H   UNL     1      27.253  41.580  49.067  1.00  0.00     0.170 HD
ENDROOT
BRANCH   1  13
HETATM   13  C   UNL     1      25.983  44.835  52.982  1.00  0.00     0.279 C 
HETATM   14  N   UNL     1      27.296  45.170  53.282  1.00  0.00    -0.352 N 
HETATM   15  H   UNL     1      28.024  44.704  52.748  1.00  0.00     0.162 HD
HETATM   16  O   UNL     1      25.020  45.408  53.489  1.00  0.00    -0.268 OA
BRANCH  14  17
HETATM   17  C   UNL     1      27.654  46.212  54.209  1.00  0.00     0.161 C 
BRANCH  17  18
HETATM   18  C   UNL     1      28.674  45.731  55.205  1.00  0.00    -0.040 A 
HETATM   19  C   UNL     1      28.757  46.322  56.474  1.00  0.00     0.011 A 
HETATM   20  C   UNL     1      29.684  45.864  57.416  1.00  0.00     0.037 A 
HETATM   21  C   UNL     1      30.544  44.813  57.101  1.00  0.00     0.068 A 
HETATM   22  C   UNL     1      30.492  44.249  55.825  1.00  0.00     0.037 A 
HETATM   23  C   UNL     1      29.566  44.701  54.882  1.00  0.00     0.011 A 
BRANCH  21  24
HETATM   24  O   UNL     1      31.477  44.263  57.936  1.00  0.00    -0.356 OA
HETATM   25  C   UNL     1      32.240  43.183  57.410  1.00  0.00     0.210 C 
ENDBRANCH  21  24
ENDBRANCH  17  18
ENDBRANCH  14  17
ENDBRANCH   1  13
BRANCH   1  26
HETATM   26  O   UNL     1      24.624  42.958  52.113  1.00  0.00    -0.359 OA
HETATM   27  H   UNL     1      24.411  43.109  53.050  1.00  0.00     0.213 HD
ENDBRANCH   1  26
BRANCH   2  28
HETATM   28  C   UNL     1      25.403  45.421  50.168  1.00  0.00     0.120 A 
HETATM   29  C   UNL     1      24.043  45.690  49.978  1.00  0.00     0.146 A 
HETATM   30  F   UNL     1      23.141  44.700  50.061  1.00  0.00    -0.204 F 
HETATM   31  C   UNL     1      23.585  46.964  49.637  1.00  0.00     0.045 A 
HETATM   32  C   UNL     1      24.492  48.009  49.476  1.00  0.00     0.006 A 
HETATM   33  C   UNL     1      25.852  47.770  49.657  1.00  0.00     0.045 A 
HETATM   34  C   UNL     1      26.295  46.491  49.999  1.00  0.00     0.146 A 
HETATM   35  F   UNL     1      27.606  46.331  50.240  1.00  0.00    -0.204 F 
ENDBRANCH   2  28
TORSDOF 6
ENDMDL
MODEL 7
REMARK VINA RESULT:      -7.9     12.150     13.739
REMARK  6 active torsions:
REMARK  status: ('A' for Active; 'I' for Inactive)
REMARK    1  A    between atoms: O_2  and  C_3 
REMARK    2  A    between atoms: C_6  and  C_7 
REMARK    3  A    between atoms: C_7  and  N_8 
REMARK       I    between atoms: N_8  and  C_9 
REMARK    4  A    between atoms: C_9  and  C_10 
REMARK    5  A    between atoms: C_10  and  O_11 
REMARK    6  A    between atoms: N_12  and  C_13 
ROOT
HETATM    1  C   UNL     1      25.545  44.053  50.040  1.00  0.00     0.256 C 
HETATM    2  N   UNL     1      26.479  42.923  49.975  1.00  0.00    -0.248 N 
HETATM    3  C   UNL     1      26.597  42.189  48.806  1.00  0.00     0.330 C 
HETATM    4  O   UNL     1      27.571  41.494  48.512  1.00  0.00    -0.246 OA
HETATM    5  N   UNL     1      25.556  42.241  47.928  1.00  0.00    -0.308 N 
HETATM    6  C   UNL     1      24.368  42.925  48.149  1.00  0.00     0.048 A 
HETATM    7  C   UNL     1      24.284  43.806  49.224  1.00  0.00     0.034 A 
HETATM    8  C   UNL     1      23.287  42.713  47.289  1.00  0.00     0.030 A 
HETATM    9  C   UNL     1      22.083  43.374  47.519  1.00  0.00     0.002 A 
HETATM   10  C   UNL     1      21.973  44.256  48.590  1.00  0.00     0.001 A 
HETATM   11  C   UNL     1      23.068  44.483  49.430  1.00  0.00     0.015 A 
HETATM   12  H   UNL     1      25.654  41.634  47.127  1.00  0.00     0.170 HD
ENDROOT
BRANCH   1  13
HETATM   13  C   UNL     1      25.141  44.434  51.535  1.00  0.00     0.279 C 
HETATM   14  N   UNL     1      25.556  45.707  51.902  1.00  0.00    -0.352 N 
HETATM   15  H   UNL     1      25.981  46.280  51.178  1.00  0.00     0.162 HD
HETATM   16  O   UNL     1      24.523  43.693  52.297  1.00  0.00    -0.268 OA
BRANCH  14  17
HETATM   17  C   UNL     1      25.308  46.276  53.201  1.00  0.00     0.161 C 
BRANCH  17  18
HETATM   18  C   UNL     1      26.524  46.184  54.082  1.00  0.00    -0.040 A 
HETATM   19  C   UNL     1      26.911  44.952  54.627  1.00  0.00     0.011 A 
HETATM   20  C   UNL     1      28.055  44.851  55.425  1.00  0.00     0.037 A 
HETATM   21  C   UNL     1      28.824  45.983  55.694  1.00  0.00     0.068 A 
HETATM   22  C   UNL     1      28.419  47.219  55.187  1.00  0.00     0.037 A 
HETATM   23  C   UNL     1      27.279  47.323  54.386  1.00  0.00     0.011 A 
BRANCH  21  24
HETATM   24  O   UNL     1      29.970  46.014  56.440  1.00  0.00    -0.356 OA
HETATM   25  C   UNL     1      29.810  45.935  57.851  1.00  0.00     0.210 C 
ENDBRANCH  21  24
ENDBRANCH  17  18
ENDBRANCH  14  17
ENDBRANCH   1  13
BRANCH   1  26
HETATM   26  O   UNL     1      26.190  45.175  49.420  1.00  0.00    -0.359 OA
HETATM   27  H   UNL     1      25.877  45.941  49.932  1.00  0.00     0.213 HD
ENDBRANCH   1  26
BRANCH   2  28
HETATM   28  C   UNL     1      27.416  42.654  51.031  1.00  0.00     0.120 A 
HETATM   29  C   UNL     1      28.398  43.569  51.425  1.00  0.00     0.146 A 
HETATM   30  F   UNL     1      28.547  44.727  50.762  1.00  0.00    -0.204 F 
HETATM   31  C   UNL     1      29.288  43.293  52.464  1.00  0.00     0.045 A 
HETATM   32  C   UNL     1      29.213  42.076  53.139  1.00  0.00     0.006 A 
HETATM   33  C   UNL     1      28.247  41.145  52.767  1.00  0.00     0.045 A 
HETATM   34  C   UNL     1      27.363  41.436  51.727  1.00  0.00     0.146 A 
HETATM   35  F   UNL     1      26.400  40.539  51.460  1.00  0.00    -0.204 F 
ENDBRANCH   2  28
TORSDOF 6
ENDMDL
MODEL 8
REMARK VINA RESULT:      -7.6     11.912     14.313
REMARK  6 active torsions:
REMARK  status: ('A' for Active; 'I' for Inactive)
REMARK    1  A    between atoms: O_2  and  C_3 
REMARK    2  A    between atoms: C_6  and  C_7 
REMARK    3  A    between atoms: C_7  and  N_8 
REMARK       I    between atoms: N_8  and  C_9 
REMARK    4  A    between atoms: C_9  and  C_10 
REMARK    5  A    between atoms: C_10  and  O_11 
REMARK    6  A    between atoms: N_12  and  C_13 
ROOT
HETATM    1  C   UNL     1      21.313  47.320  47.988  1.00  0.00     0.256 C 
HETATM    2  N   UNL     1      21.631  48.437  48.886  1.00  0.00    -0.248 N 
HETATM    3  C   UNL     1      22.871  48.500  49.501  1.00  0.00     0.330 C 
HETATM    4  O   UNL     1      23.376  49.529  49.951  1.00  0.00    -0.246 OA
HETATM    5  N   UNL     1      23.569  47.336  49.617  1.00  0.00    -0.308 N 
HETATM    6  C   UNL     1      23.104  46.089  49.220  1.00  0.00     0.048 A 
HETATM    7  C   UNL     1      21.948  46.014  48.447  1.00  0.00     0.034 A 
HETATM    8  C   UNL     1      23.805  44.943  49.604  1.00  0.00     0.030 A 
HETATM    9  C   UNL     1      23.330  43.688  49.232  1.00  0.00     0.002 A 
HETATM   10  C   UNL     1      22.174  43.587  48.463  1.00  0.00     0.001 A 
HETATM   11  C   UNL     1      21.493  44.740  48.061  1.00  0.00     0.015 A 
HETATM   12  H   UNL     1      24.432  47.416  50.138  1.00  0.00     0.170 HD
ENDROOT
BRANCH   1  13
HETATM   13  C   UNL     1      19.745  47.108  47.799  1.00  0.00     0.279 C 
HETATM   14  N   UNL     1      19.237  47.772  46.691  1.00  0.00    -0.352 N 
HETATM   15  H   UNL     1      19.907  48.236  46.084  1.00  0.00     0.162 HD
HETATM   16  O   UNL     1      19.041  46.427  48.543  1.00  0.00    -0.268 OA
BRANCH  14  17
HETATM   17  C   UNL     1      17.849  47.731  46.312  1.00  0.00     0.161 C 
BRANCH  17  18
HETATM   18  C   UNL     1      17.135  48.996  46.704  1.00  0.00    -0.040 A 
HETATM   19  C   UNL     1      16.300  49.017  47.830  1.00  0.00     0.011 A 
HETATM   20  C   UNL     1      15.654  50.195  48.219  1.00  0.00     0.037 A 
HETATM   21  C   UNL     1      15.829  51.366  47.483  1.00  0.00     0.068 A 
HETATM   22  C   UNL     1      16.627  51.339  46.338  1.00  0.00     0.037 A 
HETATM   23  C   UNL     1      17.277  50.166  45.948  1.00  0.00     0.011 A 
BRANCH  21  24
HETATM   24  O   UNL     1      15.272  52.583  47.768  1.00  0.00    -0.356 OA
HETATM   25  C   UNL     1      15.194  52.938  49.143  1.00  0.00     0.210 C 
ENDBRANCH  21  24
ENDBRANCH  17  18
ENDBRANCH  14  17
ENDBRANCH   1  13
BRANCH   1  26
HETATM   26  O   UNL     1      21.912  47.611  46.717  1.00  0.00    -0.359 OA
HETATM   27  H   UNL     1      21.301  47.215  46.072  1.00  0.00     0.213 HD
ENDBRANCH   1  26
BRANCH   2  28
HETATM   28  C   UNL     1      20.762  49.574  49.014  1.00  0.00     0.120 A 
HETATM   29  C   UNL     1      19.734  49.641  49.961  1.00  0.00     0.146 A 
HETATM   30  F   UNL     1      19.474  48.587  50.750  1.00  0.00    -0.204 F 
HETATM   31  C   UNL     1      18.911  50.762  50.077  1.00  0.00     0.045 A 
HETATM   32  C   UNL     1      19.102  51.856  49.235  1.00  0.00     0.006 A 
HETATM   33  C   UNL     1      20.116  51.817  48.281  1.00  0.00     0.045 A 
HETATM   34  C   UNL     1      20.932  50.689  48.178  1.00  0.00     0.146 A 
HETATM   35  F   UNL     1      21.945  50.733  47.298  1.00  0.00    -0.204 F 
ENDBRANCH   2  28
TORSDOF 6
ENDMDL
MODEL 9
REMARK VINA RESULT:      -7.6     11.972     14.635
REMARK  6 active torsions:
REMARK  status: ('A' for Active; 'I' for Inactive)
REMARK    1  A    between atoms: O_2  and  C_3 
REMARK    2  A    between atoms: C_6  and  C_7 
REMARK    3  A    between atoms: C_7  and  N_8 
REMARK       I    between atoms: N_8  and  C_9 
REMARK    4  A    between atoms: C_9  and  C_10 
REMARK    5  A    between atoms: C_10  and  O_11 
REMARK    6  A    between atoms: N_12  and  C_13 
ROOT
HETATM    1  C   UNL     1      27.149  41.010  50.802  1.00  0.00     0.256 C 
HETATM    2  N   UNL     1      27.984  39.949  50.226  1.00  0.00    -0.248 N 
HETATM    3  C   UNL     1      28.995  39.376  50.980  1.00  0.00     0.330 C 
HETATM    4  O   UNL     1      29.490  38.270  50.761  1.00  0.00    -0.246 OA
HETATM    5  N   UNL     1      29.472  40.097  52.034  1.00  0.00    -0.308 N 
HETATM    6  C   UNL     1      29.061  41.381  52.366  1.00  0.00     0.048 A 
HETATM    7  C   UNL     1      27.935  41.914  51.742  1.00  0.00     0.034 A 
HETATM    8  C   UNL     1      29.785  42.107  53.315  1.00  0.00     0.030 A 
HETATM    9  C   UNL     1      29.396  43.405  53.634  1.00  0.00     0.002 A 
HETATM   10  C   UNL     1      28.277  43.961  53.021  1.00  0.00     0.001 A 
HETATM   11  C   UNL     1      27.542  43.219  52.091  1.00  0.00     0.015 A 
HETATM   12  H   UNL     1      30.257  39.674  52.508  1.00  0.00     0.170 HD
ENDROOT
BRANCH   1  13
HETATM   13  C   UNL     1      26.430  41.900  49.692  1.00  0.00     0.279 C 
HETATM   14  N   UNL     1      25.049  41.932  49.834  1.00  0.00    -0.352 N 
HETATM   15  H   UNL     1      24.659  41.477  50.654  1.00  0.00     0.162 HD
HETATM   16  O   UNL     1      27.019  42.505  48.798  1.00  0.00    -0.268 OA
BRANCH  14  17
HETATM   17  C   UNL     1      24.181  42.670  48.953  1.00  0.00     0.161 C 
BRANCH  17  18
HETATM   18  C   UNL     1      24.135  44.127  49.323  1.00  0.00    -0.040 A 
HETATM   19  C   UNL     1      24.771  44.582  50.487  1.00  0.00     0.011 A 
HETATM   20  C   UNL     1      24.756  45.940  50.825  1.00  0.00     0.037 A 
HETATM   21  C   UNL     1      24.101  46.859  50.007  1.00  0.00     0.068 A 
HETATM   22  C   UNL     1      23.433  46.404  48.869  1.00  0.00     0.037 A 
HETATM   23  C   UNL     1      23.447  45.051  48.526  1.00  0.00     0.011 A 
BRANCH  21  24
HETATM   24  O   UNL     1      24.031  48.210  50.215  1.00  0.00    -0.356 OA
HETATM   25  C   UNL     1      23.448  48.982  49.172  1.00  0.00     0.210 C 
ENDBRANCH  21  24
ENDBRANCH  17  18
ENDBRANCH  14  17
ENDBRANCH   1  13
BRANCH   1  26
HETATM   26  O   UNL     1      26.157  40.375  51.621  1.00  0.00    -0.359 OA
HETATM   27  H   UNL     1      25.400  40.985  51.591  1.00  0.00     0.213 HD
ENDBRANCH   1  26
BRANCH   2  28
HETATM   28  C   UNL     1      27.674  39.349  48.957  1.00  0.00     0.120 A 
HETATM   29  C   UNL     1      28.280  39.750  47.761  1.00  0.00     0.146 A 
HETATM   30  F   UNL     1      29.135  40.784  47.751  1.00  0.00    -0.204 F 
HETATM   31  C   UNL     1      27.974  39.144  46.541  1.00  0.00     0.045 A 
HETATM   32  C   UNL     1      27.043  38.109  46.493  1.00  0.00     0.006 A 
HETATM   33  C   UNL     1      26.423  37.690  47.667  1.00  0.00     0.045 A 
HETATM   34  C   UNL     1      26.740  38.305  48.880  1.00  0.00     0.146 A 
HETATM   35  F   UNL     1      26.175  37.812  49.994  1.00  0.00    -0.204 F 
ENDBRANCH   2  28
TORSDOF 6
ENDMDL
MODEL 10
REMARK VINA RESULT:      -7.6     12.933     15.625
REMARK  6 active torsions:
REMARK  status: ('A' for Active; 'I' for Inactive)
REMARK    1  A    between atoms: O_2  and  C_3 
REMARK    2  A    between atoms: C_6  and  C_7 
REMARK    3  A    between atoms: C_7  and  N_8 
REMARK       I    between atoms: N_8  and  C_9 
REMARK    4  A    between atoms: C_9  and  C_10 
REMARK    5  A    between atoms: C_10  and  O_11 
REMARK    6  A    between atoms: N_12  and  C_13 
ROOT
HETATM    1  C   UNL     1      28.950  43.707  53.560  1.00  0.00     0.256 C 
HETATM    2  N   UNL     1      27.821  44.636  53.432  1.00  0.00    -0.248 N 
HETATM    3  C   UNL     1      27.888  45.893  54.010  1.00  0.00     0.330 C 
HETATM    4  O   UNL     1      27.203  46.857  53.669  1.00  0.00    -0.246 OA
HETATM    5  N   UNL     1      28.775  46.063  55.031  1.00  0.00    -0.308 N 
HETATM    6  C   UNL     1      29.566  45.057  55.569  1.00  0.00     0.048 A 
HETATM    7  C   UNL     1      29.651  43.835  54.905  1.00  0.00     0.034 A 
HETATM    8  C   UNL     1      30.256  45.293  56.761  1.00  0.00     0.030 A 
HETATM    9  C   UNL     1      31.031  44.281  57.321  1.00  0.00     0.002 A 
HETATM   10  C   UNL     1      31.128  43.049  56.679  1.00  0.00     0.001 A 
HETATM   11  C   UNL     1      30.455  42.830  55.473  1.00  0.00     0.015 A 
HETATM   12  H   UNL     1      28.737  46.972  55.471  1.00  0.00     0.170 HD
ENDROOT
BRANCH   1  13
HETATM   13  C   UNL     1      28.530  42.187  53.326  1.00  0.00     0.279 C 
HETATM   14  N   UNL     1      29.114  41.630  52.197  1.00  0.00    -0.352 N 
HETATM   15  H   UNL     1      29.797  42.198  51.703  1.00  0.00     0.162 HD
HETATM   16  O   UNL     1      27.771  41.556  54.059  1.00  0.00    -0.268 OA
BRANCH  14  17
HETATM   17  C   UNL     1      28.888  40.271  51.778  1.00  0.00     0.161 C 
BRANCH  17  18
HETATM   18  C   UNL     1      27.981  40.211  50.579  1.00  0.00    -0.040 A 
HETATM   19  C   UNL     1      28.492  39.860  49.322  1.00  0.00     0.011 A 
HETATM   20  C   UNL     1      27.651  39.775  48.207  1.00  0.00     0.037 A 
HETATM   21  C   UNL     1      26.289  40.046  48.334  1.00  0.00     0.068 A 
HETATM   22  C   UNL     1      25.784  40.436  49.575  1.00  0.00     0.037 A 
HETATM   23  C   UNL     1      26.619  40.518  50.692  1.00  0.00     0.011 A 
BRANCH  21  24
HETATM   24  O   UNL     1      25.362  39.980  47.330  1.00  0.00    -0.356 OA
HETATM   25  C   UNL     1      24.169  40.730  47.519  1.00  0.00     0.210 C 
ENDBRANCH  21  24
ENDBRANCH  17  18
ENDBRANCH  14  17
ENDBRANCH   1  13
BRANCH   1  26
HETATM   26  O   UNL     1      29.928  44.088  52.581  1.00  0.00    -0.359 OA
HETATM   27  H   UNL     1      30.545  44.658  53.072  1.00  0.00     0.213 HD
ENDBRANCH   1  26
BRANCH   2  28
HETATM   28  C   UNL     1      26.706  44.355  52.569  1.00  0.00     0.120 A 
HETATM   29  C   UNL     1      25.428  44.057  53.054  1.00  0.00     0.146 A 
HETATM   30  F   UNL     1      25.216  43.948  54.375  1.00  0.00    -0.204 F 
HETATM   31  C   UNL     1      24.356  43.802  52.197  1.00  0.00     0.045 A 
HETATM   32  C   UNL     1      24.545  43.839  50.817  1.00  0.00     0.006 A 
HETATM   33  C   UNL     1      25.806  44.132  50.306  1.00  0.00     0.045 A 
HETATM   34  C   UNL     1      26.868  44.386  51.175  1.00  0.00     0.146 A 
HETATM   35  F   UNL     1      28.044  44.741  50.633  1.00  0.00    -0.204 F 
ENDBRANCH   2  28
TORSDOF 6
ENDMDL
