MODEL 1
REMARK VINA RESULT:      -8.5      0.000      0.000
REMARK  5 active torsions:
REMARK  status: ('A' for Active; 'I' for Inactive)
REMARK    1  A    between atoms: C_6  and  C_7 
REMARK    2  A    between atoms: C_7  and  C_8 
REMARK    3  A    between atoms: C_8  and  C_9 
REMARK    4  A    between atoms: C_9  and  N_10 
REMARK    5  A    between atoms: C_9  and  C_14 
ROOT
HETATM    1  C   UNL     1      27.995  41.690  51.796  1.00  0.00     0.253 C 
ENDROOT
BRANCH   1   2
HETATM    2  C   UNL     1      29.007  41.571  52.953  1.00  0.00     0.048 C 
BRANCH   2   3
HETATM    3  C   UNL     1      30.109  42.638  53.026  1.00  0.00     0.081 C 
BRANCH   3   4
HETATM    4  C   UNL     1      30.116  43.336  54.339  1.00  0.00     0.105 A 
HETATM    5  N   UNL     1      30.937  43.054  55.333  1.00  0.00    -0.233 NA
HETATM    6  C   UNL     1      30.672  44.001  56.299  1.00  0.00     0.085 A 
HETATM    7  C   UNL     1      29.660  44.859  55.882  1.00  0.00     0.062 A 
HETATM    8  C   UNL     1      31.275  44.203  57.548  1.00  0.00     0.034 A 
HETATM    9  C   UNL     1      29.202  45.932  56.648  1.00  0.00     0.032 A 
HETATM   10  N   UNL     1      29.293  44.391  54.647  1.00  0.00    -0.343 N 
HETATM   11  C   UNL     1      29.821  46.126  57.888  1.00  0.00     0.002 A 
HETATM   12  C   UNL     1      30.838  45.278  58.334  1.00  0.00     0.002 A 
HETATM   13  H   UNL     1      28.567  44.784  54.062  1.00  0.00     0.167 HD
ENDBRANCH   3   4
ENDBRANCH   2   3
ENDBRANCH   1   2
BRANCH   1  14
HETATM   14  N   UNL     1      26.890  40.713  51.956  1.00  0.00    -0.068 N 
HETATM   15  H   UNL     1      26.531  40.712  52.916  1.00  0.00     0.275 HD
HETATM   16  H   UNL     1      26.102  40.976  51.353  1.00  0.00     0.275 HD
HETATM   17  H   UNL     1      27.216  39.772  51.667  1.00  0.00     0.275 HD
ENDBRANCH   1  14
BRANCH   1  18
HETATM   18  C   UNL     1      27.412  43.063  51.735  1.00  0.00     0.136 A 
HETATM   19  N   UNL     1      26.802  43.668  52.734  1.00  0.00    -0.231 NA
HETATM   20  C   UNL     1      26.393  44.883  52.231  1.00  0.00     0.085 A 
HETATM   21  C   UNL     1      26.737  44.999  50.889  1.00  0.00     0.062 A 
HETATM   22  C   UNL     1      25.715  45.936  52.859  1.00  0.00     0.034 A 
HETATM   23  N   UNL     1      27.390  43.831  50.595  1.00  0.00    -0.341 N 
HETATM   24  C   UNL     1      26.427  46.116  50.112  1.00  0.00     0.032 A 
HETATM   25  H   UNL     1      27.769  43.592  49.688  1.00  0.00     0.167 HD
HETATM   26  C   UNL     1      25.745  47.156  50.753  1.00  0.00     0.002 A 
HETATM   27  C   UNL     1      25.397  47.071  52.104  1.00  0.00     0.002 A 
ENDBRANCH   1  18
TORSDOF 5
ENDMDL
MODEL 2
REMARK VINA RESULT:      -8.4      3.096      4.813
REMARK  5 active torsions:
REMARK  status: ('A' for Active; 'I' for Inactive)
REMARK    1  A    between atoms: C_6  and  C_7 
REMARK    2  A    between atoms: C_7  and  C_8 
REMARK    3  A    between atoms: C_8  and  C_9 
REMARK    4  A    between atoms: C_9  and  N_10 
REMARK    5  A    between atoms: C_9  and  C_14 
ROOT
HETATM    1  C   UNL     1      25.355  46.318  51.002  1.00  0.00     0.253 C 
ENDROOT
BRANCH   1   2
HETATM    2  C   UNL     1      25.995  46.979  52.239  1.00  0.00     0.048 C 
BRANCH   2   3
HETATM    3  C   UNL     1      25.831  46.250  53.580  1.00  0.00     0.081 C 
BRANCH   3   4
HETATM    4  C   UNL     1      27.125  45.711  54.078  1.00  0.00     0.105 A 
HETATM    5  N   UNL     1      27.881  46.299  54.986  1.00  0.00    -0.233 NA
HETATM    6  C   UNL     1      28.912  45.415  55.222  1.00  0.00     0.085 A 
HETATM    7  C   UNL     1      28.781  44.281  54.429  1.00  0.00     0.062 A 
HETATM    8  C   UNL     1      29.984  45.505  56.121  1.00  0.00     0.034 A 
HETATM    9  C   UNL     1      29.669  43.206  54.476  1.00  0.00     0.032 A 
HETATM   10  N   UNL     1      27.657  44.511  53.678  1.00  0.00    -0.343 N 
HETATM   11  C   UNL     1      30.727  43.307  55.385  1.00  0.00     0.002 A 
HETATM   12  C   UNL     1      30.887  44.436  56.193  1.00  0.00     0.002 A 
HETATM   13  H   UNL     1      27.277  43.882  52.981  1.00  0.00     0.167 HD
ENDBRANCH   3   4
ENDBRANCH   2   3
ENDBRANCH   1   2
BRANCH   1  14
HETATM   14  N   UNL     1      24.375  45.279  51.404  1.00  0.00    -0.068 N 
HETATM   15  H   UNL     1      23.412  45.622  51.317  1.00  0.00     0.275 HD
HETATM   16  H   UNL     1      24.449  44.468  50.780  1.00  0.00     0.275 HD
HETATM   17  H   UNL     1      24.583  44.962  52.369  1.00  0.00     0.275 HD
ENDBRANCH   1  14
BRANCH   1  18
HETATM   18  C   UNL     1      24.656  47.330  50.155  1.00  0.00     0.136 A 
HETATM   19  N   UNL     1      25.217  48.413  49.657  1.00  0.00    -0.231 NA
HETATM   20  C   UNL     1      24.211  49.070  48.985  1.00  0.00     0.085 A 
HETATM   21  C   UNL     1      23.008  48.384  49.109  1.00  0.00     0.062 A 
HETATM   22  C   UNL     1      24.248  50.264  48.253  1.00  0.00     0.034 A 
HETATM   23  N   UNL     1      23.316  47.275  49.853  1.00  0.00    -0.341 N 
HETATM   24  C   UNL     1      21.810  48.830  48.550  1.00  0.00     0.032 A 
HETATM   25  H   UNL     1      22.654  46.563  50.131  1.00  0.00     0.167 HD
HETATM   26  C   UNL     1      21.863  50.026  47.827  1.00  0.00     0.002 A 
HETATM   27  C   UNL     1      23.060  50.731  47.676  1.00  0.00     0.002 A 
ENDBRANCH   1  18
TORSDOF 5
ENDMDL
MODEL 3
REMARK VINA RESULT:      -8.3      2.262      7.316
REMARK  5 active torsions:
REMARK  status: ('A' for Active; 'I' for Inactive)
REMARK    1  A    between atoms: C_6  and  C_7 
REMARK    2  A    between atoms: C_7  and  C_8 
REMARK    3  A    between atoms: C_8  and  C_9 
REMARK    4  A    between atoms: C_9  and  N_10 
REMARK    5  A    between atoms: C_9  and  C_14 
ROOT
HETATM    1  C   UNL     1      26.631  43.889  52.502  1.00  0.00     0.253 C 
ENDROOT
BRANCH   1   2
HETATM    2  C   UNL     1      25.558  44.986  52.658  1.00  0.00     0.048 C 
BRANCH   2   3
HETATM    3  C   UNL     1      24.585  45.178  51.486  1.00  0.00     0.081 C 
BRANCH   3   4
HETATM    4  C   UNL     1      24.871  46.426  50.730  1.00  0.00     0.105 A 
HETATM    5  N   UNL     1      26.081  46.884  50.472  1.00  0.00    -0.233 NA
HETATM    6  C   UNL     1      25.884  47.987  49.668  1.00  0.00     0.085 A 
HETATM    7  C   UNL     1      24.528  48.203  49.452  1.00  0.00     0.062 A 
HETATM    8  C   UNL     1      26.821  48.837  49.064  1.00  0.00     0.034 A 
HETATM    9  C   UNL     1      24.034  49.235  48.653  1.00  0.00     0.032 A 
HETATM   10  N   UNL     1      23.900  47.220  50.172  1.00  0.00    -0.343 N 
HETATM   11  C   UNL     1      24.983  50.069  48.050  1.00  0.00     0.002 A 
HETATM   12  C   UNL     1      26.352  49.878  48.251  1.00  0.00     0.002 A 
HETATM   13  H   UNL     1      22.899  47.092  50.243  1.00  0.00     0.167 HD
ENDBRANCH   3   4
ENDBRANCH   2   3
ENDBRANCH   1   2
BRANCH   1  14
HETATM   14  N   UNL     1      27.218  43.912  51.140  1.00  0.00    -0.068 N 
HETATM   15  H   UNL     1      26.992  44.786  50.653  1.00  0.00     0.275 HD
HETATM   16  H   UNL     1      28.241  43.873  51.201  1.00  0.00     0.275 HD
HETATM   17  H   UNL     1      26.895  43.082  50.610  1.00  0.00     0.275 HD
ENDBRANCH   1  14
BRANCH   1  18
HETATM   18  C   UNL     1      27.729  44.069  53.497  1.00  0.00     0.136 A 
HETATM   19  N   UNL     1      28.654  43.171  53.770  1.00  0.00    -0.231 NA
HETATM   20  C   UNL     1      29.428  43.732  54.761  1.00  0.00     0.085 A 
HETATM   21  C   UNL     1      28.938  44.984  55.117  1.00  0.00     0.062 A 
HETATM   22  C   UNL     1      30.561  43.228  55.414  1.00  0.00     0.034 A 
HETATM   23  N   UNL     1      27.859  45.180  54.295  1.00  0.00    -0.341 N 
HETATM   24  C   UNL     1      29.508  45.775  56.115  1.00  0.00     0.032 A 
HETATM   25  H   UNL     1      27.268  46.002  54.302  1.00  0.00     0.167 HD
HETATM   26  C   UNL     1      30.635  45.255  56.760  1.00  0.00     0.002 A 
HETATM   27  C   UNL     1      31.156  44.005  56.415  1.00  0.00     0.002 A 
ENDBRANCH   1  18
TORSDOF 5
ENDMDL
MODEL 4
REMARK VINA RESULT:      -8.2      1.664      6.563
REMARK  5 active torsions:
REMARK  status: ('A' for Active; 'I' for Inactive)
REMARK    1  A    between atoms: C_6  and  C_7 
REMARK    2  A    between atoms: C_7  and  C_8 
REMARK    3  A    between atoms: C_8  and  C_9 
REMARK    4  A    between atoms: C_9  and  N_10 
REMARK    5  A    between atoms: C_9  and  C_14 
ROOT
HETATM    1  C   UNL     1      26.931  46.756  54.435  1.00  0.00     0.253 C 
ENDROOT
BRANCH   1   2
HETATM    2  C   UNL     1      25.756  45.766  54.298  1.00  0.00     0.048 C 
BRANCH   2   3
HETATM    3  C   UNL     1      25.441  45.253  52.885  1.00  0.00     0.081 C 
BRANCH   3   4
HETATM    4  C   UNL     1      26.167  43.991  52.582  1.00  0.00     0.105 A 
HETATM    5  N   UNL     1      26.273  43.458  51.379  1.00  0.00    -0.233 NA
HETATM    6  C   UNL     1      27.107  42.372  51.539  1.00  0.00     0.085 A 
HETATM    7  C   UNL     1      27.497  42.241  52.867  1.00  0.00     0.062 A 
HETATM    8  C   UNL     1      27.594  41.466  50.587  1.00  0.00     0.034 A 
HETATM    9  C   UNL     1      28.362  41.243  53.317  1.00  0.00     0.032 A 
HETATM   10  N   UNL     1      26.852  43.260  53.521  1.00  0.00    -0.343 N 
HETATM   11  C   UNL     1      28.847  40.353  52.352  1.00  0.00     0.002 A 
HETATM   12  C   UNL     1      28.470  40.458  51.011  1.00  0.00     0.002 A 
HETATM   13  H   UNL     1      26.909  43.449  54.513  1.00  0.00     0.167 HD
ENDBRANCH   3   4
ENDBRANCH   2   3
ENDBRANCH   1   2
BRANCH   1  14
HETATM   14  N   UNL     1      26.508  47.985  55.150  1.00  0.00    -0.068 N 
HETATM   15  H   UNL     1      27.251  48.691  55.147  1.00  0.00     0.275 HD
HETATM   16  H   UNL     1      25.706  48.408  54.670  1.00  0.00     0.275 HD
HETATM   17  H   UNL     1      26.214  47.740  56.114  1.00  0.00     0.275 HD
ENDBRANCH   1  14
BRANCH   1  18
HETATM   18  C   UNL     1      28.067  46.137  55.181  1.00  0.00     0.136 A 
HETATM   19  N   UNL     1      28.809  45.144  54.736  1.00  0.00    -0.231 NA
HETATM   20  C   UNL     1      29.699  44.869  55.750  1.00  0.00     0.085 A 
HETATM   21  C   UNL     1      29.466  45.694  56.845  1.00  0.00     0.062 A 
HETATM   22  C   UNL     1      30.729  43.922  55.813  1.00  0.00     0.034 A 
HETATM   23  N   UNL     1      28.426  46.499  56.458  1.00  0.00    -0.341 N 
HETATM   24  C   UNL     1      30.200  45.624  58.030  1.00  0.00     0.032 A 
HETATM   25  H   UNL     1      28.003  47.215  57.033  1.00  0.00     0.167 HD
HETATM   26  C   UNL     1      31.221  44.669  58.077  1.00  0.00     0.002 A 
HETATM   27  C   UNL     1      31.486  43.834  56.989  1.00  0.00     0.002 A 
ENDBRANCH   1  18
TORSDOF 5
ENDMDL
MODEL 5
REMARK VINA RESULT:      -8.2      3.014      8.246
REMARK  5 active torsions:
REMARK  status: ('A' for Active; 'I' for Inactive)
REMARK    1  A    between atoms: C_6  and  C_7 
REMARK    2  A    between atoms: C_7  and  C_8 
REMARK    3  A    between atoms: C_8  and  C_9 
REMARK    4  A    between atoms: C_9  and  N_10 
REMARK    5  A    between atoms: C_9  and  C_14 
ROOT
HETATM    1  C   UNL     1      25.779  45.892  53.373  1.00  0.00     0.253 C 
ENDROOT
BRANCH   1   2
HETATM    2  C   UNL     1      26.096  46.966  52.313  1.00  0.00     0.048 C 
BRANCH   2   3
HETATM    3  C   UNL     1      25.879  46.578  50.844  1.00  0.00     0.081 C 
BRANCH   3   4
HETATM    4  C   UNL     1      24.983  47.538  50.145  1.00  0.00     0.105 A 
HETATM    5  N   UNL     1      25.396  48.609  49.493  1.00  0.00    -0.233 NA
HETATM    6  C   UNL     1      24.261  49.140  48.919  1.00  0.00     0.085 A 
HETATM    7  C   UNL     1      23.142  48.382  49.246  1.00  0.00     0.062 A 
HETATM    8  C   UNL     1      24.115  50.256  48.084  1.00  0.00     0.034 A 
HETATM    9  C   UNL     1      21.858  48.670  48.782  1.00  0.00     0.032 A 
HETATM   10  N   UNL     1      23.621  47.389  50.062  1.00  0.00    -0.343 N 
HETATM   11  C   UNL     1      21.732  49.782  47.941  1.00  0.00     0.002 A 
HETATM   12  C   UNL     1      22.837  50.565  47.599  1.00  0.00     0.002 A 
HETATM   13  H   UNL     1      23.064  46.662  50.491  1.00  0.00     0.167 HD
ENDBRANCH   3   4
ENDBRANCH   2   3
ENDBRANCH   1   2
BRANCH   1  14
HETATM   14  N   UNL     1      25.079  44.736  52.762  1.00  0.00    -0.068 N 
HETATM   15  H   UNL     1      25.720  43.950  52.612  1.00  0.00     0.275 HD
HETATM   16  H   UNL     1      24.349  44.394  53.397  1.00  0.00     0.275 HD
HETATM   17  H   UNL     1      24.624  45.034  51.880  1.00  0.00     0.275 HD
ENDBRANCH   1  14
BRANCH   1  18
HETATM   18  C   UNL     1      27.028  45.402  54.028  1.00  0.00     0.136 A 
HETATM   19  N   UNL     1      27.735  46.082  54.907  1.00  0.00    -0.231 NA
HETATM   20  C   UNL     1      28.810  45.278  55.213  1.00  0.00     0.085 A 
HETATM   21  C   UNL     1      28.766  44.099  54.477  1.00  0.00     0.062 A 
HETATM   22  C   UNL     1      29.870  45.491  56.104  1.00  0.00     0.034 A 
HETATM   23  N   UNL     1      27.619  44.196  53.734  1.00  0.00    -0.341 N 
HETATM   24  C   UNL     1      29.741  43.104  54.563  1.00  0.00     0.032 A 
HETATM   25  H   UNL     1      27.293  43.498  53.079  1.00  0.00     0.167 HD
HETATM   26  C   UNL     1      30.795  43.335  55.453  1.00  0.00     0.002 A 
HETATM   27  C   UNL     1      30.859  44.505  56.214  1.00  0.00     0.002 A 
ENDBRANCH   1  18
TORSDOF 5
ENDMDL
MODEL 6
REMARK VINA RESULT:      -7.9      3.667      8.662
REMARK  5 active torsions:
REMARK  status: ('A' for Active; 'I' for Inactive)
REMARK    1  A    between atoms: C_6  and  C_7 
REMARK    2  A    between atoms: C_7  and  C_8 
REMARK    3  A    between atoms: C_8  and  C_9 
REMARK    4  A    between atoms: C_9  and  N_10 
REMARK    5  A    between atoms: C_9  and  C_14 
ROOT
HETATM    1  C   UNL     1      25.298  45.907  52.321  1.00  0.00     0.253 C 
ENDROOT
BRANCH   1   2
HETATM    2  C   UNL     1      25.576  46.999  51.269  1.00  0.00     0.048 C 
BRANCH   2   3
HETATM    3  C   UNL     1      24.966  46.793  49.875  1.00  0.00     0.081 C 
BRANCH   3   4
HETATM    4  C   UNL     1      23.898  47.787  49.587  1.00  0.00     0.105 A 
HETATM    5  N   UNL     1      24.072  49.096  49.597  1.00  0.00    -0.233 NA
HETATM    6  C   UNL     1      22.869  49.621  49.174  1.00  0.00     0.085 A 
HETATM    7  C   UNL     1      21.951  48.608  48.921  1.00  0.00     0.062 A 
HETATM    8  C   UNL     1      22.497  50.955  48.960  1.00  0.00     0.034 A 
HETATM    9  C   UNL     1      20.657  48.846  48.455  1.00  0.00     0.032 A 
HETATM   10  N   UNL     1      22.617  47.450  49.230  1.00  0.00    -0.343 N 
HETATM   11  C   UNL     1      20.306  50.183  48.237  1.00  0.00     0.002 A 
HETATM   12  C   UNL     1      21.206  51.221  48.486  1.00  0.00     0.002 A 
HETATM   13  H   UNL     1      22.231  46.516  49.168  1.00  0.00     0.167 HD
ENDBRANCH   3   4
ENDBRANCH   2   3
ENDBRANCH   1   2
BRANCH   1  14
HETATM   14  N   UNL     1      24.333  44.906  51.803  1.00  0.00    -0.068 N 
HETATM   15  H   UNL     1      24.041  45.131  50.847  1.00  0.00     0.275 HD
HETATM   16  H   UNL     1      24.780  43.983  51.757  1.00  0.00     0.275 HD
HETATM   17  H   UNL     1      23.524  44.840  52.447  1.00  0.00     0.275 HD
ENDBRANCH   1  14
BRANCH   1  18
HETATM   18  C   UNL     1      26.557  45.202  52.706  1.00  0.00     0.136 A 
HETATM   19  N   UNL     1      27.181  44.314  51.958  1.00  0.00    -0.231 NA
HETATM   20  C   UNL     1      28.258  43.897  52.709  1.00  0.00     0.085 A 
HETATM   21  C   UNL     1      28.264  44.524  53.950  1.00  0.00     0.062 A 
HETATM   22  C   UNL     1      29.269  42.978  52.400  1.00  0.00     0.034 A 
HETATM   23  N   UNL     1      27.175  45.356  53.923  1.00  0.00    -0.341 N 
HETATM   24  C   UNL     1      29.226  44.277  54.930  1.00  0.00     0.032 A 
HETATM   25  H   UNL     1      26.887  45.957  54.685  1.00  0.00     0.167 HD
HETATM   26  C   UNL     1      30.225  43.353  54.608  1.00  0.00     0.002 A 
HETATM   27  C   UNL     1      30.251  42.716  53.364  1.00  0.00     0.002 A 
ENDBRANCH   1  18
TORSDOF 5
ENDMDL
MODEL 7
REMARK VINA RESULT:      -7.8      3.141      4.828
REMARK  5 active torsions:
REMARK  status: ('A' for Active; 'I' for Inactive)
REMARK    1  A    between atoms: C_6  and  C_7 
REMARK    2  A    between atoms: C_7  and  C_8 
REMARK    3  A    between atoms: C_8  and  C_9 
REMARK    4  A    between atoms: C_9  and  N_10 
REMARK    5  A    between atoms: C_9  and  C_14 
ROOT
HETATM    1  C   UNL     1      26.189  46.933  50.306  1.00  0.00     0.253 C 
ENDROOT
BRANCH   1   2
HETATM    2  C   UNL     1      26.147  46.952  51.847  1.00  0.00     0.048 C 
BRANCH   2   3
HETATM    3  C   UNL     1      25.832  45.623  52.551  1.00  0.00     0.081 C 
BRANCH   3   4
HETATM    4  C   UNL     1      26.979  45.148  53.370  1.00  0.00     0.105 A 
HETATM    5  N   UNL     1      27.636  44.023  53.157  1.00  0.00    -0.233 NA
HETATM    6  C   UNL     1      28.670  44.033  54.068  1.00  0.00     0.085 A 
HETATM    7  C   UNL     1      28.624  45.179  54.854  1.00  0.00     0.062 A 
HETATM    8  C   UNL     1      29.704  43.106  54.264  1.00  0.00     0.034 A 
HETATM    9  C   UNL     1      29.563  45.467  55.845  1.00  0.00     0.032 A 
HETATM   10  N   UNL     1      27.513  45.854  54.418  1.00  0.00    -0.343 N 
HETATM   11  C   UNL     1      30.594  44.537  56.020  1.00  0.00     0.002 A 
HETATM   12  C   UNL     1      30.665  43.375  55.247  1.00  0.00     0.002 A 
HETATM   13  H   UNL     1      27.178  46.734  54.789  1.00  0.00     0.167 HD
ENDBRANCH   3   4
ENDBRANCH   2   3
ENDBRANCH   1   2
BRANCH   1  14
HETATM   14  N   UNL     1      26.117  45.543  49.792  1.00  0.00    -0.068 N 
HETATM   15  H   UNL     1      25.428  44.990  50.310  1.00  0.00     0.275 HD
HETATM   16  H   UNL     1      25.805  45.549  48.814  1.00  0.00     0.275 HD
HETATM   17  H   UNL     1      27.060  45.113  49.826  1.00  0.00     0.275 HD
ENDBRANCH   1  14
BRANCH   1  18
HETATM   18  C   UNL     1      25.054  47.713  49.730  1.00  0.00     0.136 A 
HETATM   19  N   UNL     1      23.799  47.310  49.703  1.00  0.00    -0.231 NA
HETATM   20  C   UNL     1      23.108  48.309  49.055  1.00  0.00     0.085 A 
HETATM   21  C   UNL     1      23.972  49.323  48.654  1.00  0.00     0.062 A 
HETATM   22  C   UNL     1      21.742  48.417  48.763  1.00  0.00     0.034 A 
HETATM   23  N   UNL     1      25.204  48.925  49.100  1.00  0.00    -0.341 N 
HETATM   24  C   UNL     1      23.553  50.454  47.952  1.00  0.00     0.032 A 
HETATM   25  H   UNL     1      26.064  49.443  48.965  1.00  0.00     0.167 HD
HETATM   26  C   UNL     1      22.187  50.543  47.664  1.00  0.00     0.002 A 
HETATM   27  C   UNL     1      21.294  49.545  48.065  1.00  0.00     0.002 A 
ENDBRANCH   1  18
TORSDOF 5
ENDMDL
MODEL 8
REMARK VINA RESULT:      -7.7      1.839      6.287
REMARK  5 active torsions:
REMARK  status: ('A' for Active; 'I' for Inactive)
REMARK    1  A    between atoms: C_6  and  C_7 
REMARK    2  A    between atoms: C_7  and  C_8 
REMARK    3  A    between atoms: C_8  and  C_9 
REMARK    4  A    between atoms: C_9  and  N_10 
REMARK    5  A    between atoms: C_9  and  C_14 
ROOT
HETATM    1  C   UNL     1      27.674  41.140  51.853  1.00  0.00     0.253 C 
ENDROOT
BRANCH   1   2
HETATM    2  C   UNL     1      26.551  41.808  51.033  1.00  0.00     0.048 C 
BRANCH   2   3
HETATM    3  C   UNL     1      26.973  42.561  49.762  1.00  0.00     0.081 C 
BRANCH   3   4
HETATM    4  C   UNL     1      26.533  43.981  49.791  1.00  0.00     0.105 A 
HETATM    5  N   UNL     1      27.348  45.018  49.743  1.00  0.00    -0.233 NA
HETATM    6  C   UNL     1      26.523  46.121  49.685  1.00  0.00     0.085 A 
HETATM    7  C   UNL     1      25.186  45.739  49.714  1.00  0.00     0.062 A 
HETATM    8  C   UNL     1      26.847  47.481  49.580  1.00  0.00     0.034 A 
HETATM    9  C   UNL     1      24.128  46.646  49.643  1.00  0.00     0.032 A 
HETATM   10  N   UNL     1      25.218  44.373  49.824  1.00  0.00    -0.343 N 
HETATM   11  C   UNL     1      24.470  47.999  49.529  1.00  0.00     0.002 A 
HETATM   12  C   UNL     1      25.803  48.412  49.500  1.00  0.00     0.002 A 
HETATM   13  H   UNL     1      24.408  43.769  49.881  1.00  0.00     0.167 HD
ENDBRANCH   3   4
ENDBRANCH   2   3
ENDBRANCH   1   2
BRANCH   1  14
HETATM   14  N   UNL     1      28.751  40.637  50.965  1.00  0.00    -0.068 N 
HETATM   15  H   UNL     1      28.382  40.374  50.045  1.00  0.00     0.275 HD
HETATM   16  H   UNL     1      29.439  41.380  50.797  1.00  0.00     0.275 HD
HETATM   17  H   UNL     1      29.237  39.846  51.425  1.00  0.00     0.275 HD
ENDBRANCH   1  14
BRANCH   1  18
HETATM   18  C   UNL     1      28.270  42.103  52.827  1.00  0.00     0.136 A 
HETATM   19  N   UNL     1      29.412  41.925  53.459  1.00  0.00    -0.231 NA
HETATM   20  C   UNL     1      29.553  43.025  54.275  1.00  0.00     0.085 A 
HETATM   21  C   UNL     1      28.454  43.869  54.156  1.00  0.00     0.062 A 
HETATM   22  C   UNL     1      30.589  43.368  55.154  1.00  0.00     0.034 A 
HETATM   23  N   UNL     1      27.652  43.265  53.224  1.00  0.00    -0.341 N 
HETATM   24  C   UNL     1      28.312  45.050  54.885  1.00  0.00     0.032 A 
HETATM   25  H   UNL     1      26.760  43.623  52.909  1.00  0.00     0.167 HD
HETATM   26  C   UNL     1      29.352  45.374  55.762  1.00  0.00     0.002 A 
HETATM   27  C   UNL     1      30.474  44.552  55.894  1.00  0.00     0.002 A 
ENDBRANCH   1  18
TORSDOF 5
ENDMDL
MODEL 9
REMARK VINA RESULT:      -7.6      3.647      5.731
REMARK  5 active torsions:
REMARK  status: ('A' for Active; 'I' for Inactive)
REMARK    1  A    between atoms: C_6  and  C_7 
REMARK    2  A    between atoms: C_7  and  C_8 
REMARK    3  A    between atoms: C_8  and  C_9 
REMARK    4  A    between atoms: C_9  and  N_10 
REMARK    5  A    between atoms: C_9  and  C_14 
ROOT
HETATM    1  C   UNL     1      25.491  47.514  50.436  1.00  0.00     0.253 C 
ENDROOT
BRANCH   1   2
HETATM    2  C   UNL     1      25.362  45.977  50.463  1.00  0.00     0.048 C 
BRANCH   2   3
HETATM    3  C   UNL     1      25.177  45.319  51.839  1.00  0.00     0.081 C 
BRANCH   3   4
HETATM    4  C   UNL     1      26.475  44.883  52.421  1.00  0.00     0.105 A 
HETATM    5  N   UNL     1      26.904  45.214  53.624  1.00  0.00    -0.233 NA
HETATM    6  C   UNL     1      28.080  44.515  53.791  1.00  0.00     0.085 A 
HETATM    7  C   UNL     1      28.370  43.761  52.660  1.00  0.00     0.062 A 
HETATM    8  C   UNL     1      28.941  44.456  54.896  1.00  0.00     0.034 A 
HETATM    9  C   UNL     1      29.488  42.932  52.557  1.00  0.00     0.032 A 
HETATM   10  N   UNL     1      27.354  44.044  51.784  1.00  0.00    -0.343 N 
HETATM   11  C   UNL     1      30.332  42.878  53.672  1.00  0.00     0.002 A 
HETATM   12  C   UNL     1      30.068  43.626  54.821  1.00  0.00     0.002 A 
HETATM   13  H   UNL     1      27.262  43.667  50.849  1.00  0.00     0.167 HD
ENDBRANCH   3   4
ENDBRANCH   2   3
ENDBRANCH   1   2
BRANCH   1  14
HETATM   14  N   UNL     1      26.721  47.929  49.718  1.00  0.00    -0.068 N 
HETATM   15  H   UNL     1      26.496  48.443  48.860  1.00  0.00     0.275 HD
HETATM   16  H   UNL     1      27.267  48.571  50.304  1.00  0.00     0.275 HD
HETATM   17  H   UNL     1      27.306  47.095  49.524  1.00  0.00     0.275 HD
ENDBRANCH   1  14
BRANCH   1  18
HETATM   18  C   UNL     1      24.313  48.137  49.764  1.00  0.00     0.136 A 
HETATM   19  N   UNL     1      24.290  49.355  49.261  1.00  0.00    -0.231 NA
HETATM   20  C   UNL     1      23.011  49.528  48.781  1.00  0.00     0.085 A 
HETATM   21  C   UNL     1      22.236  48.400  49.030  1.00  0.00     0.062 A 
HETATM   22  C   UNL     1      22.434  50.626  48.129  1.00  0.00     0.034 A 
HETATM   23  N   UNL     1      23.088  47.524  49.650  1.00  0.00    -0.341 N 
HETATM   24  C   UNL     1      20.890  48.300  48.675  1.00  0.00     0.032 A 
HETATM   25  H   UNL     1      22.833  46.600  49.973  1.00  0.00     0.167 HD
HETATM   26  C   UNL     1      20.329  49.407  48.030  1.00  0.00     0.002 A 
HETATM   27  C   UNL     1      21.086  50.550  47.757  1.00  0.00     0.002 A 
ENDBRANCH   1  18
TORSDOF 5
ENDMDL
MODEL 10
REMARK VINA RESULT:      -7.5      2.019      4.409
REMARK  5 active torsions:
REMARK  status: ('A' for Active; 'I' for Inactive)
REMARK    1  A    between atoms: C_6  and  C_7 
REMARK    2  A    between atoms: C_7  and  C_8 
REMARK    3  A    between atoms: C_8  and  C_9 
REMARK    4  A    between atoms: C_9  and  N_10 
REMARK    5  A    between atoms: C_9  and  C_14 
ROOT
HETATM    1  C   UNL     1      25.236  44.605  50.790  1.00  0.00     0.253 C 
ENDROOT
BRANCH   1   2
HETATM    2  C   UNL     1      25.189  44.695  52.329  1.00  0.00     0.048 C 
BRANCH   2   3
HETATM    3  C   UNL     1      25.924  45.876  52.979  1.00  0.00     0.081 C 
BRANCH   3   4
HETATM    4  C   UNL     1      27.179  45.444  53.649  1.00  0.00     0.105 A 
HETATM    5  N   UNL     1      27.747  46.079  54.657  1.00  0.00    -0.233 NA
HETATM    6  C   UNL     1      28.810  45.284  55.031  1.00  0.00     0.085 A 
HETATM    7  C   UNL     1      28.891  44.157  54.220  1.00  0.00     0.062 A 
HETATM    8  C   UNL     1      29.735  45.451  56.071  1.00  0.00     0.034 A 
HETATM    9  C   UNL     1      29.855  43.162  54.385  1.00  0.00     0.032 A 
HETATM   10  N   UNL     1      27.865  44.301  53.321  1.00  0.00    -0.343 N 
HETATM   11  C   UNL     1      30.764  43.340  55.434  1.00  0.00     0.002 A 
HETATM   12  C   UNL     1      30.710  44.463  56.263  1.00  0.00     0.002 A 
HETATM   13  H   UNL     1      27.644  43.655  52.575  1.00  0.00     0.167 HD
ENDBRANCH   3   4
ENDBRANCH   2   3
ENDBRANCH   1   2
BRANCH   1  14
HETATM   14  N   UNL     1      25.863  45.817  50.208  1.00  0.00    -0.068 N 
HETATM   15  H   UNL     1      26.079  46.509  50.933  1.00  0.00     0.275 HD
HETATM   16  H   UNL     1      26.758  45.570  49.771  1.00  0.00     0.275 HD
HETATM   17  H   UNL     1      25.244  46.208  49.475  1.00  0.00     0.275 HD
ENDBRANCH   1  14
BRANCH   1  18
HETATM   18  C   UNL     1      26.012  43.408  50.348  1.00  0.00     0.136 A 
HETATM   19  N   UNL     1      26.603  42.553  51.158  1.00  0.00    -0.231 NA
HETATM   20  C   UNL     1      27.226  41.642  50.334  1.00  0.00     0.085 A 
HETATM   21  C   UNL     1      27.033  41.974  48.998  1.00  0.00     0.062 A 
HETATM   22  C   UNL     1      27.984  40.508  50.655  1.00  0.00     0.034 A 
HETATM   23  N   UNL     1      26.251  43.099  49.031  1.00  0.00    -0.341 N 
HETATM   24  C   UNL     1      27.571  41.242  47.939  1.00  0.00     0.032 A 
HETATM   25  H   UNL     1      25.931  43.605  48.215  1.00  0.00     0.167 HD
HETATM   26  C   UNL     1      28.329  40.116  48.278  1.00  0.00     0.002 A 
HETATM   27  C   UNL     1      28.531  39.751  49.611  1.00  0.00     0.002 A 
ENDBRANCH   1  18
TORSDOF 5
ENDMDL
