MODEL 1
REMARK VINA RESULT:      -8.3      0.000      0.000
REMARK  4 active torsions:
REMARK  status: ('A' for Active; 'I' for Inactive)
REMARK    1  A    between atoms: C_9  and  C_10 
REMARK    2  A    between atoms: C_11  and  O_12 
REMARK    3  A    between atoms: C_18  and  C_19 
REMARK       I    between atoms: C_19  and  N_20 
REMARK    4  A    between atoms: N_20  and  C_21 
ROOT
HETATM    1  C   UNL     1      25.577  42.860  50.231  1.00  0.00     0.070 C 
HETATM    2  C   UNL     1      25.588  44.273  50.759  1.00  0.00     0.037 C 
HETATM    3  N   UNL     1      26.367  44.483  51.894  1.00  0.00    -0.192 N 
HETATM    4  C   UNL     1      26.244  45.584  52.663  1.00  0.00     0.725 A 
HETATM    5  N   UNL     1      25.489  46.636  52.218  1.00  0.00    -0.084 N 
HETATM    6  N   UNL     1      25.418  47.613  53.147  1.00  0.00    -0.149 NA
HETATM    7  C   UNL     1      26.186  47.093  54.112  1.00  0.00     0.275 A 
HETATM    8  N   UNL     1      26.716  45.856  53.853  1.00  0.00    -0.054 NA
HETATM    9  C   UNL     1      24.826  46.674  50.905  1.00  0.00     0.205 C 
HETATM   10  C   UNL     1      24.847  45.293  50.255  1.00  0.00     0.063 C 
HETATM   11  H   UNL     1      26.820  43.671  52.306  1.00  0.00     0.184 HD
ENDROOT
BRANCH  10  12
HETATM   12  C   UNL     1      23.882  45.122  49.140  1.00  0.00     0.256 C 
HETATM   13  N   UNL     1      22.667  45.734  49.371  1.00  0.00    -0.323 N 
HETATM   14  H   UNL     1      22.549  46.192  50.266  1.00  0.00     0.169 HD
HETATM   15  O   UNL     1      24.226  44.495  48.148  1.00  0.00    -0.267 OA
BRANCH  13  16
HETATM   16  C   UNL     1      21.594  45.855  48.463  1.00  0.00     0.035 A 
HETATM   17  C   UNL     1      21.634  46.645  47.311  1.00  0.00     0.031 A 
HETATM   18  C   UNL     1      20.516  46.741  46.474  1.00  0.00     0.026 A 
HETATM   19  C   UNL     1      19.351  46.051  46.790  1.00  0.00     0.034 A 
HETATM   20 CL   UNL     1      17.972  46.182  45.771  1.00  0.00    -0.084 Cl
HETATM   21  C   UNL     1      19.297  45.255  47.931  1.00  0.00     0.026 A 
HETATM   22  C   UNL     1      20.419  45.154  48.761  1.00  0.00     0.031 A 
ENDBRANCH  13  16
ENDBRANCH  10  12
BRANCH   9  23
HETATM   23  C   UNL     1      25.486  47.729  50.012  1.00  0.00     0.005 A 
HETATM   24  C   UNL     1      24.713  48.736  49.402  1.00  0.00     0.076 A 
HETATM   25  C   UNL     1      25.332  49.703  48.602  1.00  0.00     0.037 A 
HETATM   26  C   UNL     1      26.711  49.666  48.382  1.00  0.00     0.003 A 
HETATM   27  C   UNL     1      27.480  48.660  48.954  1.00  0.00     0.001 A 
HETATM   28  C   UNL     1      26.874  47.695  49.758  1.00  0.00     0.012 A 
BRANCH  24  29
HETATM   29  O   UNL     1      23.369  48.698  49.660  1.00  0.00    -0.355 OA
HETATM   30  C   UNL     1      22.590  49.814  49.247  1.00  0.00     0.210 C 
ENDBRANCH  24  29
ENDBRANCH   9  23
TORSDOF 4
ENDMDL
MODEL 2
REMARK VINA RESULT:      -8.2      4.065      7.295
REMARK  4 active torsions:
REMARK  status: ('A' for Active; 'I' for Inactive)
REMARK    1  A    between atoms: C_9  and  C_10 
REMARK    2  A    between atoms: C_11  and  O_12 
REMARK    3  A    between atoms: C_18  and  C_19 
REMARK       I    between atoms: C_19  and  N_20 
REMARK    4  A    between atoms: N_20  and  C_21 
ROOT
HETATM    1  C   UNL     1      28.455  40.768  53.324  1.00  0.00     0.070 C 
HETATM    2  C   UNL     1      27.973  41.103  51.934  1.00  0.00     0.037 C 
HETATM    3  N   UNL     1      27.799  40.015  51.081  1.00  0.00    -0.192 N 
HETATM    4  C   UNL     1      27.681  40.154  49.745  1.00  0.00     0.725 A 
HETATM    5  N   UNL     1      27.512  41.403  49.210  1.00  0.00    -0.084 N 
HETATM    6  N   UNL     1      27.490  41.358  47.861  1.00  0.00    -0.149 NA
HETATM    7  C   UNL     1      27.615  40.041  47.657  1.00  0.00     0.275 A 
HETATM    8  N   UNL     1      27.728  39.268  48.783  1.00  0.00    -0.054 NA
HETATM    9  C   UNL     1      27.397  42.632  50.012  1.00  0.00     0.205 C 
HETATM   10  C   UNL     1      27.784  42.362  51.463  1.00  0.00     0.063 C 
HETATM   11  H   UNL     1      28.056  39.097  51.437  1.00  0.00     0.184 HD
ENDROOT
BRANCH  10  12
HETATM   12  C   UNL     1      28.085  43.579  52.258  1.00  0.00     0.256 C 
HETATM   13  N   UNL     1      26.956  44.277  52.636  1.00  0.00    -0.323 N 
HETATM   14  H   UNL     1      26.067  43.918  52.312  1.00  0.00     0.169 HD
HETATM   15  O   UNL     1      29.250  43.849  52.513  1.00  0.00    -0.267 OA
BRANCH  13  16
HETATM   16  C   UNL     1      26.900  45.398  53.490  1.00  0.00     0.035 A 
HETATM   17  C   UNL     1      27.695  45.550  54.630  1.00  0.00     0.031 A 
HETATM   18  C   UNL     1      27.560  46.677  55.448  1.00  0.00     0.026 A 
HETATM   19  C   UNL     1      26.624  47.656  55.132  1.00  0.00     0.034 A 
HETATM   20 CL   UNL     1      26.446  49.033  56.147  1.00  0.00    -0.084 Cl
HETATM   21  C   UNL     1      25.829  47.523  53.998  1.00  0.00     0.026 A 
HETATM   22  C   UNL     1      25.973  46.399  53.176  1.00  0.00     0.031 A 
ENDBRANCH  13  16
ENDBRANCH  10  12
BRANCH   9  23
HETATM   23  C   UNL     1      25.978  43.201  49.901  1.00  0.00     0.005 A 
HETATM   24  C   UNL     1      25.772  44.539  49.513  1.00  0.00     0.076 A 
HETATM   25  C   UNL     1      24.470  45.040  49.400  1.00  0.00     0.037 A 
HETATM   26  C   UNL     1      23.370  44.231  49.694  1.00  0.00     0.003 A 
HETATM   27  C   UNL     1      23.562  42.919  50.108  1.00  0.00     0.001 A 
HETATM   28  C   UNL     1      24.854  42.407  50.217  1.00  0.00     0.012 A 
BRANCH  24  29
HETATM   29  O   UNL     1      26.901  45.268  49.251  1.00  0.00    -0.355 OA
HETATM   30  C   UNL     1      26.894  46.643  49.616  1.00  0.00     0.210 C 
ENDBRANCH  24  29
ENDBRANCH   9  23
TORSDOF 4
ENDMDL
MODEL 3
REMARK VINA RESULT:      -7.6      5.310      8.762
REMARK  4 active torsions:
REMARK  status: ('A' for Active; 'I' for Inactive)
REMARK    1  A    between atoms: C_9  and  C_10 
REMARK    2  A    between atoms: C_11  and  O_12 
REMARK    3  A    between atoms: C_18  and  C_19 
REMARK       I    between atoms: C_19  and  N_20 
REMARK    4  A    between atoms: N_20  and  C_21 
ROOT
HETATM    1  C   UNL     1      28.554  37.923  50.550  1.00  0.00     0.070 C 
HETATM    2  C   UNL     1      28.149  38.965  49.538  1.00  0.00     0.037 C 
HETATM    3  N   UNL     1      28.166  38.550  48.209  1.00  0.00    -0.192 N 
HETATM    4  C   UNL     1      28.138  39.418  47.177  1.00  0.00     0.725 A 
HETATM    5  N   UNL     1      27.873  40.740  47.416  1.00  0.00    -0.084 N 
HETATM    6  N   UNL     1      27.962  41.469  46.283  1.00  0.00    -0.149 NA
HETATM    7  C   UNL     1      28.250  40.510  45.396  1.00  0.00     0.275 A 
HETATM    8  N   UNL     1      28.360  39.240  45.900  1.00  0.00    -0.054 NA
HETATM    9  C   UNL     1      27.557  41.287  48.745  1.00  0.00     0.205 C 
HETATM   10  C   UNL     1      27.857  40.258  49.833  1.00  0.00     0.063 C 
HETATM   11  H   UNL     1      28.496  37.606  48.019  1.00  0.00     0.184 HD
ENDROOT
BRANCH  10  12
HETATM   12  C   UNL     1      27.955  40.820  51.203  1.00  0.00     0.256 C 
HETATM   13  N   UNL     1      28.892  41.828  51.313  1.00  0.00    -0.323 N 
HETATM   14  H   UNL     1      29.426  42.049  50.482  1.00  0.00     0.169 HD
HETATM   15  O   UNL     1      27.226  40.378  52.080  1.00  0.00    -0.267 OA
BRANCH  13  16
HETATM   16  C   UNL     1      29.135  42.637  52.443  1.00  0.00     0.035 A 
HETATM   17  C   UNL     1      30.225  42.470  53.301  1.00  0.00     0.031 A 
HETATM   18  C   UNL     1      30.382  43.292  54.422  1.00  0.00     0.026 A 
HETATM   19  C   UNL     1      29.446  44.285  54.692  1.00  0.00     0.034 A 
HETATM   20 CL   UNL     1      29.631  45.285  56.078  1.00  0.00    -0.084 Cl
HETATM   21  C   UNL     1      28.358  44.468  53.844  1.00  0.00     0.026 A 
HETATM   22  C   UNL     1      28.208  43.650  52.718  1.00  0.00     0.031 A 
ENDBRANCH  13  16
ENDBRANCH  10  12
BRANCH   9  23
HETATM   23  C   UNL     1      26.097  41.749  48.791  1.00  0.00     0.005 A 
HETATM   24  C   UNL     1      25.776  43.072  49.153  1.00  0.00     0.076 A 
HETATM   25  C   UNL     1      24.438  43.484  49.174  1.00  0.00     0.037 A 
HETATM   26  C   UNL     1      23.414  42.587  48.863  1.00  0.00     0.003 A 
HETATM   27  C   UNL     1      23.716  41.271  48.535  1.00  0.00     0.001 A 
HETATM   28  C   UNL     1      25.045  40.852  48.504  1.00  0.00     0.012 A 
BRANCH  24  29
HETATM   29  O   UNL     1      26.835  43.885  49.451  1.00  0.00    -0.355 OA
HETATM   30  C   UNL     1      26.555  45.251  49.734  1.00  0.00     0.210 C 
ENDBRANCH  24  29
ENDBRANCH   9  23
TORSDOF 4
ENDMDL
MODEL 4
REMARK VINA RESULT:      -7.6      1.838      2.049
REMARK  4 active torsions:
REMARK  status: ('A' for Active; 'I' for Inactive)
REMARK    1  A    between atoms: C_9  and  C_10 
REMARK    2  A    between atoms: C_11  and  O_12 
REMARK    3  A    between atoms: C_18  and  C_19 
REMARK       I    between atoms: C_19  and  N_20 
REMARK    4  A    between atoms: N_20  and  C_21 
ROOT
HETATM    1  C   UNL     1      23.430  43.741  48.717  1.00  0.00     0.070 C 
HETATM    2  C   UNL     1      24.016  44.871  49.527  1.00  0.00     0.037 C 
HETATM    3  N   UNL     1      24.935  44.494  50.503  1.00  0.00    -0.192 N 
HETATM    4  C   UNL     1      25.310  45.319  51.502  1.00  0.00     0.725 A 
HETATM    5  N   UNL     1      24.951  46.640  51.456  1.00  0.00    -0.084 N 
HETATM    6  N   UNL     1      25.345  47.293  52.570  1.00  0.00    -0.149 NA
HETATM    7  C   UNL     1      25.966  46.306  53.227  1.00  0.00     0.275 A 
HETATM    8  N   UNL     1      25.973  45.084  52.606  1.00  0.00    -0.054 NA
HETATM    9  C   UNL     1      24.212  47.251  50.340  1.00  0.00     0.205 C 
HETATM   10  C   UNL     1      23.653  46.174  49.414  1.00  0.00     0.063 C 
HETATM   11  H   UNL     1      25.099  43.498  50.631  1.00  0.00     0.184 HD
ENDROOT
BRANCH  10  12
HETATM   12  C   UNL     1      22.580  46.641  48.501  1.00  0.00     0.256 C 
HETATM   13  N   UNL     1      21.444  47.059  49.164  1.00  0.00    -0.323 N 
HETATM   14  H   UNL     1      21.445  46.973  50.173  1.00  0.00     0.169 HD
HETATM   15  O   UNL     1      22.780  46.632  47.295  1.00  0.00    -0.267 OA
BRANCH  13  16
HETATM   16  C   UNL     1      20.306  47.666  48.593  1.00  0.00     0.035 A 
HETATM   17  C   UNL     1      19.925  47.507  47.258  1.00  0.00     0.031 A 
HETATM   18  C   UNL     1      18.799  48.169  46.755  1.00  0.00     0.026 A 
HETATM   19  C   UNL     1      18.050  48.996  47.585  1.00  0.00     0.034 A 
HETATM   20 CL   UNL     1      16.676  49.821  46.962  1.00  0.00    -0.084 Cl
HETATM   21  C   UNL     1      18.412  49.159  48.919  1.00  0.00     0.026 A 
HETATM   22  C   UNL     1      19.534  48.490  49.422  1.00  0.00     0.031 A 
ENDBRANCH  13  16
ENDBRANCH  10  12
BRANCH   9  23
HETATM   23  C   UNL     1      25.114  48.233  49.585  1.00  0.00     0.005 A 
HETATM   24  C   UNL     1      24.569  49.375  48.967  1.00  0.00     0.076 A 
HETATM   25  C   UNL     1      25.408  50.272  48.295  1.00  0.00     0.037 A 
HETATM   26  C   UNL     1      26.781  50.033  48.211  1.00  0.00     0.003 A 
HETATM   27  C   UNL     1      27.326  48.893  48.790  1.00  0.00     0.001 A 
HETATM   28  C   UNL     1      26.501  47.997  49.467  1.00  0.00     0.012 A 
BRANCH  24  29
HETATM   29  O   UNL     1      23.215  49.534  49.088  1.00  0.00    -0.355 OA
HETATM   30  C   UNL     1      22.702  50.860  49.035  1.00  0.00     0.210 C 
ENDBRANCH  24  29
ENDBRANCH   9  23
TORSDOF 4
ENDMDL
MODEL 5
REMARK VINA RESULT:      -7.5      3.115      5.213
REMARK  4 active torsions:
REMARK  status: ('A' for Active; 'I' for Inactive)
REMARK    1  A    between atoms: C_9  and  C_10 
REMARK    2  A    between atoms: C_11  and  O_12 
REMARK    3  A    between atoms: C_18  and  C_19 
REMARK       I    between atoms: C_19  and  N_20 
REMARK    4  A    between atoms: N_20  and  C_21 
ROOT
HETATM    1  C   UNL     1      22.132  47.273  48.761  1.00  0.00     0.070 C 
HETATM    2  C   UNL     1      23.592  47.327  49.137  1.00  0.00     0.037 C 
HETATM    3  N   UNL     1      24.181  48.588  49.075  1.00  0.00    -0.192 N 
HETATM    4  C   UNL     1      25.518  48.764  49.072  1.00  0.00     0.725 A 
HETATM    5  N   UNL     1      26.338  47.703  49.350  1.00  0.00    -0.084 N 
HETATM    6  N   UNL     1      27.638  48.045  49.226  1.00  0.00    -0.149 NA
HETATM    7  C   UNL     1      27.523  49.339  48.905  1.00  0.00     0.275 A 
HETATM    8  N   UNL     1      26.244  49.820  48.807  1.00  0.00    -0.054 NA
HETATM    9  C   UNL     1      25.852  46.362  49.711  1.00  0.00     0.205 C 
HETATM   10  C   UNL     1      24.353  46.246  49.444  1.00  0.00     0.063 C 
HETATM   11  H   UNL     1      23.606  49.356  48.735  1.00  0.00     0.184 HD
ENDROOT
BRANCH  10  12
HETATM   12  C   UNL     1      23.842  44.853  49.392  1.00  0.00     0.256 C 
HETATM   13  N   UNL     1      24.044  44.242  48.172  1.00  0.00    -0.323 N 
HETATM   14  H   UNL     1      24.474  44.802  47.446  1.00  0.00     0.169 HD
HETATM   15  O   UNL     1      23.321  44.375  50.390  1.00  0.00    -0.267 OA
BRANCH  13  16
HETATM   16  C   UNL     1      23.784  42.895  47.846  1.00  0.00     0.035 A 
HETATM   17  C   UNL     1      24.692  41.853  48.053  1.00  0.00     0.031 A 
HETATM   18  C   UNL     1      24.375  40.544  47.672  1.00  0.00     0.026 A 
HETATM   19  C   UNL     1      23.147  40.272  47.079  1.00  0.00     0.034 A 
HETATM   20 CL   UNL     1      22.763  38.667  46.598  1.00  0.00    -0.084 Cl
HETATM   21  C   UNL     1      22.228  41.297  46.872  1.00  0.00     0.026 A 
HETATM   22  C   UNL     1      22.545  42.604  47.262  1.00  0.00     0.031 A 
ENDBRANCH  13  16
ENDBRANCH  10  12
BRANCH   9  23
HETATM   23  C   UNL     1      26.190  46.056  51.174  1.00  0.00     0.005 A 
HETATM   24  C   UNL     1      26.927  44.904  51.512  1.00  0.00     0.076 A 
HETATM   25  C   UNL     1      27.243  44.646  52.851  1.00  0.00     0.037 A 
HETATM   26  C   UNL     1      26.813  45.509  53.861  1.00  0.00     0.003 A 
HETATM   27  C   UNL     1      26.058  46.632  53.543  1.00  0.00     0.001 A 
HETATM   28  C   UNL     1      25.743  46.902  52.212  1.00  0.00     0.012 A 
BRANCH  24  29
HETATM   29  O   UNL     1      27.305  44.106  50.466  1.00  0.00    -0.355 OA
HETATM   30  C   UNL     1      27.091  42.706  50.598  1.00  0.00     0.210 C 
ENDBRANCH  24  29
ENDBRANCH   9  23
TORSDOF 4
ENDMDL
MODEL 6
REMARK VINA RESULT:      -7.5      3.423      6.225
REMARK  4 active torsions:
REMARK  status: ('A' for Active; 'I' for Inactive)
REMARK    1  A    between atoms: C_9  and  C_10 
REMARK    2  A    between atoms: C_11  and  O_12 
REMARK    3  A    between atoms: C_18  and  C_19 
REMARK       I    between atoms: C_19  and  N_20 
REMARK    4  A    between atoms: N_20  and  C_21 
ROOT
HETATM    1  C   UNL     1      22.232  45.376  49.025  1.00  0.00     0.070 C 
HETATM    2  C   UNL     1      23.528  46.018  49.452  1.00  0.00     0.037 C 
HETATM    3  N   UNL     1      23.645  47.378  49.172  1.00  0.00    -0.192 N 
HETATM    4  C   UNL     1      24.828  48.024  49.199  1.00  0.00     0.725 A 
HETATM    5  N   UNL     1      25.928  47.395  49.719  1.00  0.00    -0.084 N 
HETATM    6  N   UNL     1      27.033  48.160  49.593  1.00  0.00    -0.149 NA
HETATM    7  C   UNL     1      26.513  49.251  49.019  1.00  0.00     0.275 A 
HETATM    8  N   UNL     1      25.167  49.212  48.767  1.00  0.00    -0.054 NA
HETATM    9  C   UNL     1      25.900  46.049  50.313  1.00  0.00     0.205 C 
HETATM   10  C   UNL     1      24.577  45.354  50.002  1.00  0.00     0.063 C 
HETATM   11  H   UNL     1      22.882  47.816  48.661  1.00  0.00     0.184 HD
ENDROOT
BRANCH  10  12
HETATM   12  C   UNL     1      24.591  43.883  50.200  1.00  0.00     0.256 C 
HETATM   13  N   UNL     1      25.482  43.229  49.373  1.00  0.00    -0.323 N 
HETATM   14  H   UNL     1      25.992  43.799  48.710  1.00  0.00     0.169 HD
HETATM   15  O   UNL     1      23.860  43.391  51.048  1.00  0.00    -0.267 OA
BRANCH  13  16
HETATM   16  C   UNL     1      25.814  41.859  49.402  1.00  0.00     0.035 A 
HETATM   17  C   UNL     1      26.181  41.170  50.561  1.00  0.00     0.031 A 
HETATM   18  C   UNL     1      26.530  39.816  50.505  1.00  0.00     0.026 A 
HETATM   19  C   UNL     1      26.518  39.145  49.287  1.00  0.00     0.034 A 
HETATM   20 CL   UNL     1      26.963  37.486  49.216  1.00  0.00    -0.084 Cl
HETATM   21  C   UNL     1      26.149  39.815  48.124  1.00  0.00     0.026 A 
HETATM   22  C   UNL     1      25.792  41.167  48.184  1.00  0.00     0.031 A 
ENDBRANCH  13  16
ENDBRANCH  10  12
BRANCH   9  23
HETATM   23  C   UNL     1      26.152  46.134  51.821  1.00  0.00     0.005 A 
HETATM   24  C   UNL     1      26.982  45.193  52.462  1.00  0.00     0.076 A 
HETATM   25  C   UNL     1      27.217  45.293  53.838  1.00  0.00     0.037 A 
HETATM   26  C   UNL     1      26.616  46.305  54.590  1.00  0.00     0.003 A 
HETATM   27  C   UNL     1      25.770  47.221  53.974  1.00  0.00     0.001 A 
HETATM   28  C   UNL     1      25.534  47.134  52.603  1.00  0.00     0.012 A 
BRANCH  24  29
HETATM   29  O   UNL     1      27.527  44.229  51.659  1.00  0.00    -0.355 OA
HETATM   30  C   UNL     1      28.581  43.441  52.199  1.00  0.00     0.210 C 
ENDBRANCH  24  29
ENDBRANCH   9  23
TORSDOF 4
ENDMDL
MODEL 7
REMARK VINA RESULT:      -7.5      3.833      7.484
REMARK  4 active torsions:
REMARK  status: ('A' for Active; 'I' for Inactive)
REMARK    1  A    between atoms: C_9  and  C_10 
REMARK    2  A    between atoms: C_11  and  O_12 
REMARK    3  A    between atoms: C_18  and  C_19 
REMARK       I    between atoms: C_19  and  N_20 
REMARK    4  A    between atoms: N_20  and  C_21 
ROOT
HETATM    1  C   UNL     1      23.150  51.299  48.164  1.00  0.00     0.070 C 
HETATM    2  C   UNL     1      21.761  50.751  48.377  1.00  0.00     0.037 C 
HETATM    3  N   UNL     1      20.768  51.702  48.599  1.00  0.00    -0.192 N 
HETATM    4  C   UNL     1      19.561  51.384  49.108  1.00  0.00     0.725 A 
HETATM    5  N   UNL     1      19.202  50.067  49.218  1.00  0.00    -0.084 N 
HETATM    6  N   UNL     1      17.998  49.937  49.815  1.00  0.00    -0.149 NA
HETATM    7  C   UNL     1      17.677  51.222  50.004  1.00  0.00     0.275 A 
HETATM    8  N   UNL     1      18.602  52.140  49.579  1.00  0.00    -0.054 NA
HETATM    9  C   UNL     1      20.040  48.946  48.763  1.00  0.00     0.205 C 
HETATM   10  C   UNL     1      21.451  49.430  48.439  1.00  0.00     0.063 C 
HETATM   11  H   UNL     1      21.059  52.675  48.654  1.00  0.00     0.184 HD
ENDROOT
BRANCH  10  12
HETATM   12  C   UNL     1      22.469  48.353  48.358  1.00  0.00     0.256 C 
HETATM   13  N   UNL     1      23.208  48.212  49.514  1.00  0.00    -0.323 N 
HETATM   14  H   UNL     1      23.012  48.862  50.264  1.00  0.00     0.169 HD
HETATM   15  O   UNL     1      22.559  47.698  47.329  1.00  0.00    -0.267 OA
BRANCH  13  16
HETATM   16  C   UNL     1      24.160  47.209  49.793  1.00  0.00     0.035 A 
HETATM   17  C   UNL     1      23.843  45.858  49.961  1.00  0.00     0.031 A 
HETATM   18  C   UNL     1      24.839  44.925  50.270  1.00  0.00     0.026 A 
HETATM   19  C   UNL     1      26.158  45.340  50.416  1.00  0.00     0.034 A 
HETATM   20 CL   UNL     1      27.380  44.197  50.811  1.00  0.00    -0.084 Cl
HETATM   21  C   UNL     1      26.492  46.681  50.246  1.00  0.00     0.026 A 
HETATM   22  C   UNL     1      25.495  47.611  49.929  1.00  0.00     0.031 A 
ENDBRANCH  13  16
ENDBRANCH  10  12
BRANCH   9  23
HETATM   23  C   UNL     1      19.389  48.256  47.560  1.00  0.00     0.005 A 
HETATM   24  C   UNL     1      19.118  46.875  47.587  1.00  0.00     0.076 A 
HETATM   25  C   UNL     1      18.508  46.261  46.487  1.00  0.00     0.037 A 
HETATM   26  C   UNL     1      18.185  47.004  45.349  1.00  0.00     0.003 A 
HETATM   27  C   UNL     1      18.476  48.361  45.298  1.00  0.00     0.001 A 
HETATM   28  C   UNL     1      19.078  48.984  46.391  1.00  0.00     0.012 A 
BRANCH  24  29
HETATM   29  O   UNL     1      19.471  46.217  48.734  1.00  0.00    -0.355 OA
HETATM   30  C   UNL     1      20.432  45.174  48.625  1.00  0.00     0.210 C 
ENDBRANCH  24  29
ENDBRANCH   9  23
TORSDOF 4
ENDMDL
MODEL 8
REMARK VINA RESULT:      -7.2      6.353      9.201
REMARK  4 active torsions:
REMARK  status: ('A' for Active; 'I' for Inactive)
REMARK    1  A    between atoms: C_9  and  C_10 
REMARK    2  A    between atoms: C_11  and  O_12 
REMARK    3  A    between atoms: C_18  and  C_19 
REMARK       I    between atoms: C_19  and  N_20 
REMARK    4  A    between atoms: N_20  and  C_21 
ROOT
HETATM    1  C   UNL     1      17.283  51.858  44.805  1.00  0.00     0.070 C 
HETATM    2  C   UNL     1      17.950  50.832  45.687  1.00  0.00     0.037 C 
HETATM    3  N   UNL     1      18.434  49.702  45.033  1.00  0.00    -0.192 N 
HETATM    4  C   UNL     1      18.766  48.572  45.689  1.00  0.00     0.725 A 
HETATM    5  N   UNL     1      18.839  48.583  47.057  1.00  0.00    -0.084 N 
HETATM    6  N   UNL     1      19.109  47.353  47.541  1.00  0.00    -0.149 NA
HETATM    7  C   UNL     1      19.220  46.658  46.403  1.00  0.00     0.275 A 
HETATM    8  N   UNL     1      19.025  47.368  45.247  1.00  0.00    -0.054 NA
HETATM    9  C   UNL     1      18.625  49.783  47.880  1.00  0.00     0.205 C 
HETATM   10  C   UNL     1      18.030  50.910  47.040  1.00  0.00     0.063 C 
HETATM   11  H   UNL     1      18.257  49.630  44.034  1.00  0.00     0.184 HD
ENDROOT
BRANCH  10  12
HETATM   12  C   UNL     1      17.414  52.007  47.828  1.00  0.00     0.256 C 
HETATM   13  N   UNL     1      16.041  51.906  47.924  1.00  0.00    -0.323 N 
HETATM   14  H   UNL     1      15.604  51.138  47.430  1.00  0.00     0.169 HD
HETATM   15  O   UNL     1      18.136  52.864  48.318  1.00  0.00    -0.267 OA
BRANCH  13  16
HETATM   16  C   UNL     1      15.184  52.716  48.697  1.00  0.00     0.035 A 
HETATM   17  C   UNL     1      14.946  52.520  50.060  1.00  0.00     0.031 A 
HETATM   18  C   UNL     1      14.055  53.347  50.754  1.00  0.00     0.026 A 
HETATM   19  C   UNL     1      13.395  54.373  50.086  1.00  0.00     0.034 A 
HETATM   20 CL   UNL     1      12.289  55.378  50.936  1.00  0.00    -0.084 Cl
HETATM   21  C   UNL     1      13.626  54.585  48.730  1.00  0.00     0.026 A 
HETATM   22  C   UNL     1      14.524  53.763  48.040  1.00  0.00     0.031 A 
ENDBRANCH  13  16
ENDBRANCH  10  12
BRANCH   9  23
HETATM   23  C   UNL     1      19.939  50.207  48.545  1.00  0.00     0.005 A 
HETATM   24  C   UNL     1      20.013  50.379  49.941  1.00  0.00     0.076 A 
HETATM   25  C   UNL     1      21.224  50.750  50.535  1.00  0.00     0.037 A 
HETATM   26  C   UNL     1      22.359  50.977  49.753  1.00  0.00     0.003 A 
HETATM   27  C   UNL     1      22.291  50.841  48.372  1.00  0.00     0.001 A 
HETATM   28  C   UNL     1      21.091  50.466  47.770  1.00  0.00     0.012 A 
BRANCH  24  29
HETATM   29  O   UNL     1      18.857  50.145  50.635  1.00  0.00    -0.355 OA
HETATM   30  C   UNL     1      18.702  48.869  51.244  1.00  0.00     0.210 C 
ENDBRANCH  24  29
ENDBRANCH   9  23
TORSDOF 4
ENDMDL
MODEL 9
REMARK VINA RESULT:      -7.2     10.350     13.247
REMARK  4 active torsions:
REMARK  status: ('A' for Active; 'I' for Inactive)
REMARK    1  A    between atoms: C_9  and  C_10 
REMARK    2  A    between atoms: C_11  and  O_12 
REMARK    3  A    between atoms: C_18  and  C_19 
REMARK       I    between atoms: C_19  and  N_20 
REMARK    4  A    between atoms: N_20  and  C_21 
ROOT
HETATM    1  C   UNL     1      28.192  52.103  38.498  1.00  0.00     0.070 C 
HETATM    2  C   UNL     1      27.448  50.818  38.766  1.00  0.00     0.037 C 
HETATM    3  N   UNL     1      26.261  50.654  38.058  1.00  0.00    -0.192 N 
HETATM    4  C   UNL     1      25.334  49.736  38.400  1.00  0.00     0.725 A 
HETATM    5  N   UNL     1      25.641  48.785  39.337  1.00  0.00    -0.084 N 
HETATM    6  N   UNL     1      24.575  48.003  39.608  1.00  0.00    -0.149 NA
HETATM    7  C   UNL     1      23.670  48.521  38.769  1.00  0.00     0.275 A 
HETATM    8  N   UNL     1      24.096  49.578  38.007  1.00  0.00    -0.054 NA
HETATM    9  C   UNL     1      26.961  48.659  39.976  1.00  0.00     0.205 C 
HETATM   10  C   UNL     1      27.819  49.887  39.681  1.00  0.00     0.063 C 
HETATM   11  H   UNL     1      25.961  51.423  37.463  1.00  0.00     0.184 HD
ENDROOT
BRANCH  10  12
HETATM   12  C   UNL     1      28.989  50.051  40.579  1.00  0.00     0.256 C 
HETATM   13  N   UNL     1      30.194  49.795  39.958  1.00  0.00    -0.323 N 
HETATM   14  H   UNL     1      30.156  49.495  38.992  1.00  0.00     0.169 HD
HETATM   15  O   UNL     1      28.804  50.396  41.738  1.00  0.00    -0.267 OA
BRANCH  13  16
HETATM   16  C   UNL     1      31.483  49.979  40.501  1.00  0.00     0.035 A 
HETATM   17  C   UNL     1      32.099  51.226  40.643  1.00  0.00     0.031 A 
HETATM   18  C   UNL     1      33.395  51.325  41.161  1.00  0.00     0.026 A 
HETATM   19  C   UNL     1      34.083  50.177  41.537  1.00  0.00     0.034 A 
HETATM   20 CL   UNL     1      35.681  50.298  42.159  1.00  0.00    -0.084 Cl
HETATM   21  C   UNL     1      33.481  48.928  41.409  1.00  0.00     0.026 A 
HETATM   22  C   UNL     1      32.181  48.832  40.898  1.00  0.00     0.031 A 
ENDBRANCH  13  16
ENDBRANCH  10  12
BRANCH   9  23
HETATM   23  C   UNL     1      27.646  47.367  39.518  1.00  0.00     0.005 A 
HETATM   24  C   UNL     1      27.638  46.223  40.339  1.00  0.00     0.076 A 
HETATM   25  C   UNL     1      28.254  45.045  39.900  1.00  0.00     0.037 A 
HETATM   26  C   UNL     1      28.900  45.000  38.662  1.00  0.00     0.003 A 
HETATM   27  C   UNL     1      28.942  46.132  37.857  1.00  0.00     0.001 A 
HETATM   28  C   UNL     1      28.326  47.309  38.282  1.00  0.00     0.012 A 
BRANCH  24  29
HETATM   29  O   UNL     1      26.992  46.350  41.538  1.00  0.00    -0.355 OA
HETATM   30  C   UNL     1      26.189  45.258  41.971  1.00  0.00     0.210 C 
ENDBRANCH  24  29
ENDBRANCH   9  23
TORSDOF 4
ENDMDL
MODEL 10
REMARK VINA RESULT:      -7.1      9.896     11.122
REMARK  4 active torsions:
REMARK  status: ('A' for Active; 'I' for Inactive)
REMARK    1  A    between atoms: C_9  and  C_10 
REMARK    2  A    between atoms: C_11  and  O_12 
REMARK    3  A    between atoms: C_18  and  C_19 
REMARK       I    between atoms: C_19  and  N_20 
REMARK    4  A    between atoms: N_20  and  C_21 
ROOT
HETATM    1  C   UNL     1      29.787  45.620  39.020  1.00  0.00     0.070 C 
HETATM    2  C   UNL     1      30.026  46.982  39.623  1.00  0.00     0.037 C 
HETATM    3  N   UNL     1      31.279  47.170  40.202  1.00  0.00    -0.192 N 
HETATM    4  C   UNL     1      31.543  48.191  41.042  1.00  0.00     0.725 A 
HETATM    5  N   UNL     1      30.632  49.204  41.179  1.00  0.00    -0.084 N 
HETATM    6  N   UNL     1      31.027  50.094  42.114  1.00  0.00    -0.149 NA
HETATM    7  C   UNL     1      32.205  49.568  42.472  1.00  0.00     0.275 A 
HETATM    8  N   UNL     1      32.561  48.408  41.835  1.00  0.00    -0.054 NA
HETATM    9  C   UNL     1      29.376  49.287  40.417  1.00  0.00     0.205 C 
HETATM   10  C   UNL     1      29.097  47.969  39.698  1.00  0.00     0.063 C 
HETATM   11  H   UNL     1      31.908  46.371  40.222  1.00  0.00     0.184 HD
ENDROOT
BRANCH  10  12
HETATM   12  C   UNL     1      27.696  47.803  39.237  1.00  0.00     0.256 C 
HETATM   13  N   UNL     1      26.764  48.236  40.157  1.00  0.00    -0.323 N 
HETATM   14  H   UNL     1      27.118  48.578  41.041  1.00  0.00     0.169 HD
HETATM   15  O   UNL     1      27.489  47.331  38.128  1.00  0.00    -0.267 OA
BRANCH  13  16
HETATM   16  C   UNL     1      25.368  48.322  39.971  1.00  0.00     0.035 A 
HETATM   17  C   UNL     1      24.743  49.314  39.209  1.00  0.00     0.031 A 
HETATM   18  C   UNL     1      23.349  49.355  39.098  1.00  0.00     0.026 A 
HETATM   19  C   UNL     1      22.572  48.404  39.752  1.00  0.00     0.034 A 
HETATM   20 CL   UNL     1      20.858  48.463  39.628  1.00  0.00    -0.084 Cl
HETATM   21  C   UNL     1      23.179  47.406  40.509  1.00  0.00     0.026 A 
HETATM   22  C   UNL     1      24.574  47.363  40.611  1.00  0.00     0.031 A 
ENDBRANCH  13  16
ENDBRANCH  10  12
BRANCH   9  23
HETATM   23  C   UNL     1      29.430  50.464  39.438  1.00  0.00     0.005 A 
HETATM   24  C   UNL     1      28.462  51.486  39.493  1.00  0.00     0.076 A 
HETATM   25  C   UNL     1      28.535  52.564  38.603  1.00  0.00     0.037 A 
HETATM   26  C   UNL     1      29.547  52.625  37.642  1.00  0.00     0.003 A 
HETATM   27  C   UNL     1      30.490  51.607  37.559  1.00  0.00     0.001 A 
HETATM   28  C   UNL     1      30.431  50.532  38.444  1.00  0.00     0.012 A 
BRANCH  24  29
HETATM   29  O   UNL     1      27.500  51.349  40.456  1.00  0.00    -0.355 OA
HETATM   30  C   UNL     1      27.417  52.362  41.451  1.00  0.00     0.210 C 
ENDBRANCH  24  29
ENDBRANCH   9  23
TORSDOF 4
ENDMDL
