MODEL 1
REMARK VINA RESULT:      -9.8      0.000      0.000
REMARK  6 active torsions:
REMARK  status: ('A' for Active; 'I' for Inactive)
REMARK    1  A    between atoms: C_3  and  C_4 
REMARK    2  A    between atoms: N_5  and  C_6 
REMARK    3  A    between atoms: C_11  and  S_12 
REMARK    4  A    between atoms: S_12  and  C_13 
REMARK    5  A    between atoms: C_13  and  C_14 
REMARK       I    between atoms: C_14  and  N_15 
REMARK    6  A    between atoms: N_15  and  C_16 
ROOT
HETATM    1  S   UNL     1      27.410  41.564  52.278  1.00  0.00    -0.081 SA
ENDROOT
BRANCH   1   2
HETATM    2  C   UNL     1      28.673  42.622  52.804  1.00  0.00     0.192 C 
HETATM    3  N   UNL     1      28.571  43.529  53.828  1.00  0.00    -0.302 N 
HETATM    4  C   UNL     1      29.872  43.624  54.312  1.00  0.00     0.166 C 
HETATM    5  N   UNL     1      30.689  43.085  53.424  1.00  0.00    -0.128 NA
HETATM    6  N   UNL     1      29.934  42.445  52.482  1.00  0.00    -0.122 NA
BRANCH   3   7
HETATM    7  C   UNL     1      27.401  44.179  54.395  1.00  0.00     0.094 C 
HETATM    8  C   UNL     1      26.721  45.164  53.424  1.00  0.00     0.026 C 
HETATM    9  C   UNL     1      25.353  45.446  54.027  1.00  0.00     0.002 C 
HETATM   10  C   UNL     1      25.005  44.223  54.859  1.00  0.00     0.002 C 
HETATM   11  C   UNL     1      26.202  43.285  54.757  1.00  0.00     0.026 C 
ENDBRANCH   3   7
BRANCH   4  12
HETATM   12  C   UNL     1      30.271  44.095  55.637  1.00  0.00     0.034 A 
HETATM   13  C   UNL     1      30.981  43.218  56.477  1.00  0.00     0.017 A 
HETATM   14  C   UNL     1      31.423  43.628  57.737  1.00  0.00     0.001 A 
HETATM   15  C   UNL     1      31.163  44.922  58.173  1.00  0.00     0.002 A 
HETATM   16  C   UNL     1      30.465  45.808  57.350  1.00  0.00     0.025 A 
HETATM   17  C   UNL     1      30.024  45.401  56.085  1.00  0.00     0.048 A 
HETATM   18 CL   UNL     1      29.140  46.546  55.140  1.00  0.00    -0.083 Cl
ENDBRANCH   4  12
ENDBRANCH   1   2
BRANCH   1  19
HETATM   19  C   UNL     1      27.129  42.233  50.607  1.00  0.00     0.185 C 
BRANCH  19  20
HETATM   20  C   UNL     1      26.048  43.312  50.623  1.00  0.00     0.231 C 
HETATM   21  N   UNL     1      26.435  44.472  49.972  1.00  0.00    -0.326 N 
HETATM   22  H   UNL     1      27.258  44.390  49.373  1.00  0.00     0.169 HD
HETATM   23  O   UNL     1      24.951  43.107  51.139  1.00  0.00    -0.272 OA
BRANCH  21  24
HETATM   24  C   UNL     1      25.693  45.659  49.802  1.00  0.00     0.037 A 
HETATM   25  C   UNL     1      24.310  45.689  49.598  1.00  0.00     0.061 A 
HETATM   26  C   UNL     1      23.736  46.926  49.406  1.00  0.00     0.065 A 
HETATM   27  C   UNL     1      24.473  48.107  49.428  1.00  0.00     0.063 A 
HETATM   28  N   UNL     1      22.409  47.258  49.155  1.00  0.00    -0.306 N 
HETATM   29  N   UNL     1      23.601  49.164  49.196  1.00  0.00    -0.307 N 
HETATM   30  C   UNL     1      25.826  48.118  49.643  1.00  0.00     0.034 A 
HETATM   31  C   UNL     1      22.309  48.650  49.020  1.00  0.00     0.325 A 
HETATM   32  H   UNL     1      23.827  50.144  49.152  1.00  0.00     0.170 HD
HETATM   33  O   UNL     1      21.297  49.288  48.788  1.00  0.00    -0.247 OA
HETATM   34  C   UNL     1      26.436  46.872  49.830  1.00  0.00     0.032 A 
HETATM   35  H   UNL     1      21.626  46.627  49.079  1.00  0.00     0.170 HD
ENDBRANCH  21  24
ENDBRANCH  19  20
ENDBRANCH   1  19
TORSDOF 6
ENDMDL
MODEL 2
REMARK VINA RESULT:      -9.6      2.769      4.246
REMARK  6 active torsions:
REMARK  status: ('A' for Active; 'I' for Inactive)
REMARK    1  A    between atoms: C_3  and  C_4 
REMARK    2  A    between atoms: N_5  and  C_6 
REMARK    3  A    between atoms: C_11  and  S_12 
REMARK    4  A    between atoms: S_12  and  C_13 
REMARK    5  A    between atoms: C_13  and  C_14 
REMARK       I    between atoms: C_14  and  N_15 
REMARK    6  A    between atoms: N_15  and  C_16 
ROOT
HETATM    1  S   UNL     1      23.514  43.925  50.295  1.00  0.00    -0.081 SA
ENDROOT
BRANCH   1   2
HETATM    2  C   UNL     1      25.059  43.184  50.526  1.00  0.00     0.192 C 
HETATM    3  N   UNL     1      26.178  43.818  51.005  1.00  0.00    -0.302 N 
HETATM    4  C   UNL     1      26.887  42.799  51.632  1.00  0.00     0.166 C 
HETATM    5  N   UNL     1      26.386  41.639  51.244  1.00  0.00    -0.128 NA
HETATM    6  N   UNL     1      25.229  41.882  50.558  1.00  0.00    -0.122 NA
BRANCH   3   7
HETATM    7  C   UNL     1      26.536  45.226  50.997  1.00  0.00     0.094 C 
HETATM    8  C   UNL     1      26.623  45.824  49.579  1.00  0.00     0.026 C 
HETATM    9  C   UNL     1      26.630  47.332  49.777  1.00  0.00     0.002 C 
HETATM   10  C   UNL     1      25.910  47.584  51.091  1.00  0.00     0.002 C 
HETATM   11  C   UNL     1      25.548  46.211  51.645  1.00  0.00     0.026 C 
ENDBRANCH   3   7
BRANCH   4  12
HETATM   12  C   UNL     1      27.912  42.963  52.663  1.00  0.00     0.034 A 
HETATM   13  C   UNL     1      29.245  42.645  52.343  1.00  0.00     0.017 A 
HETATM   14  C   UNL     1      30.270  42.822  53.274  1.00  0.00     0.001 A 
HETATM   15  C   UNL     1      29.977  43.322  54.538  1.00  0.00     0.002 A 
HETATM   16  C   UNL     1      28.661  43.650  54.870  1.00  0.00     0.025 A 
HETATM   17  C   UNL     1      27.632  43.477  53.937  1.00  0.00     0.048 A 
HETATM   18 CL   UNL     1      26.025  43.876  54.436  1.00  0.00    -0.083 Cl
ENDBRANCH   4  12
ENDBRANCH   1   2
BRANCH   1  19
HETATM   19  C   UNL     1      23.549  44.142  48.486  1.00  0.00     0.185 C 
BRANCH  19  20
HETATM   20  C   UNL     1      22.823  45.420  48.073  1.00  0.00     0.231 C 
HETATM   21  N   UNL     1      23.042  46.472  48.948  1.00  0.00    -0.326 N 
HETATM   22  H   UNL     1      23.821  46.352  49.598  1.00  0.00     0.169 HD
HETATM   23  O   UNL     1      22.158  45.470  47.041  1.00  0.00    -0.272 OA
BRANCH  21  24
HETATM   24  C   UNL     1      22.528  47.783  48.875  1.00  0.00     0.037 A 
HETATM   25  C   UNL     1      21.194  48.110  49.139  1.00  0.00     0.061 A 
HETATM   26  C   UNL     1      20.834  49.430  48.984  1.00  0.00     0.065 A 
HETATM   27  C   UNL     1      21.741  50.416  48.602  1.00  0.00     0.063 A 
HETATM   28  N   UNL     1      19.592  50.035  49.144  1.00  0.00    -0.306 N 
HETATM   29  N   UNL     1      21.060  51.625  48.533  1.00  0.00    -0.307 N 
HETATM   30  C   UNL     1      23.060  50.135  48.354  1.00  0.00     0.034 A 
HETATM   31  C   UNL     1      19.717  51.404  48.865  1.00  0.00     0.325 A 
HETATM   32  H   UNL     1      21.438  52.524  48.285  1.00  0.00     0.170 HD
HETATM   33  O   UNL     1      18.829  52.238  48.898  1.00  0.00    -0.247 OA
HETATM   34  C   UNL     1      23.448  48.797  48.494  1.00  0.00     0.032 A 
HETATM   35  H   UNL     1      18.729  49.593  49.417  1.00  0.00     0.170 HD
ENDBRANCH  21  24
ENDBRANCH  19  20
ENDBRANCH   1  19
TORSDOF 6
ENDMDL
MODEL 3
REMARK VINA RESULT:      -9.6      3.567      5.760
REMARK  6 active torsions:
REMARK  status: ('A' for Active; 'I' for Inactive)
REMARK    1  A    between atoms: C_3  and  C_4 
REMARK    2  A    between atoms: N_5  and  C_6 
REMARK    3  A    between atoms: C_11  and  S_12 
REMARK    4  A    between atoms: S_12  and  C_13 
REMARK    5  A    between atoms: C_13  and  C_14 
REMARK       I    between atoms: C_14  and  N_15 
REMARK    6  A    between atoms: N_15  and  C_16 
ROOT
HETATM    1  S   UNL     1      24.490  47.330  50.324  1.00  0.00    -0.081 SA
ENDROOT
BRANCH   1   2
HETATM    2  C   UNL     1      26.011  46.512  50.393  1.00  0.00     0.192 C 
HETATM    3  N   UNL     1      26.422  45.688  51.411  1.00  0.00    -0.302 N 
HETATM    4  C   UNL     1      27.282  44.794  50.781  1.00  0.00     0.166 C 
HETATM    5  N   UNL     1      27.594  45.280  49.592  1.00  0.00    -0.128 NA
HETATM    6  N   UNL     1      26.786  46.354  49.344  1.00  0.00    -0.122 NA
BRANCH   3   7
HETATM    7  C   UNL     1      26.008  45.636  52.803  1.00  0.00     0.094 C 
HETATM    8  C   UNL     1      25.192  44.376  53.148  1.00  0.00     0.026 C 
HETATM    9  C   UNL     1      25.177  44.308  54.668  1.00  0.00     0.002 C 
HETATM   10  C   UNL     1      26.432  45.030  55.130  1.00  0.00     0.002 C 
HETATM   11  C   UNL     1      27.116  45.541  53.866  1.00  0.00     0.026 C 
ENDBRANCH   3   7
BRANCH   4  12
HETATM   12  C   UNL     1      27.664  43.470  51.269  1.00  0.00     0.034 A 
HETATM   13  C   UNL     1      28.801  43.359  52.092  1.00  0.00     0.017 A 
HETATM   14  C   UNL     1      29.189  42.126  52.620  1.00  0.00     0.001 A 
HETATM   15  C   UNL     1      28.444  40.986  52.335  1.00  0.00     0.002 A 
HETATM   16  C   UNL     1      27.309  41.080  51.527  1.00  0.00     0.025 A 
HETATM   17  C   UNL     1      26.916  42.316  50.999  1.00  0.00     0.048 A 
HETATM   18 CL   UNL     1      25.518  42.342  49.982  1.00  0.00    -0.083 Cl
ENDBRANCH   4  12
ENDBRANCH   1   2
BRANCH   1  19
HETATM   19  C   UNL     1      24.914  48.662  49.156  1.00  0.00     0.185 C 
BRANCH  19  20
HETATM   20  C   UNL     1      23.656  49.278  48.546  1.00  0.00     0.231 C 
HETATM   21  N   UNL     1      22.579  49.277  49.417  1.00  0.00    -0.326 N 
HETATM   22  H   UNL     1      22.803  49.103  50.398  1.00  0.00     0.169 HD
HETATM   23  O   UNL     1      23.663  49.747  47.410  1.00  0.00    -0.272 OA
BRANCH  21  24
HETATM   24  C   UNL     1      21.274  49.759  49.184  1.00  0.00     0.037 A 
HETATM   25  C   UNL     1      20.140  48.942  49.139  1.00  0.00     0.061 A 
HETATM   26  C   UNL     1      18.940  49.557  48.858  1.00  0.00     0.065 A 
HETATM   27  C   UNL     1      18.832  50.929  48.644  1.00  0.00     0.063 A 
HETATM   28  N   UNL     1      17.671  49.004  48.722  1.00  0.00    -0.306 N 
HETATM   29  N   UNL     1      17.499  51.220  48.382  1.00  0.00    -0.307 N 
HETATM   30  C   UNL     1      19.918  51.763  48.699  1.00  0.00     0.034 A 
HETATM   31  C   UNL     1      16.761  50.029  48.424  1.00  0.00     0.325 A 
HETATM   32  H   UNL     1      17.098  52.123  48.187  1.00  0.00     0.170 HD
HETATM   33  O   UNL     1      15.565  49.907  48.231  1.00  0.00    -0.247 OA
HETATM   34  C   UNL     1      21.152  51.160  48.971  1.00  0.00     0.032 A 
HETATM   35  H   UNL     1      17.415  48.035  48.818  1.00  0.00     0.170 HD
ENDBRANCH  21  24
ENDBRANCH  19  20
ENDBRANCH   1  19
TORSDOF 6
ENDMDL
MODEL 4
REMARK VINA RESULT:      -9.5      4.093     10.255
REMARK  6 active torsions:
REMARK  status: ('A' for Active; 'I' for Inactive)
REMARK    1  A    between atoms: C_3  and  C_4 
REMARK    2  A    between atoms: N_5  and  C_6 
REMARK    3  A    between atoms: C_11  and  S_12 
REMARK    4  A    between atoms: S_12  and  C_13 
REMARK    5  A    between atoms: C_13  and  C_14 
REMARK       I    between atoms: C_14  and  N_15 
REMARK    6  A    between atoms: N_15  and  C_16 
ROOT
HETATM    1  S   UNL     1      21.955  46.108  47.481  1.00  0.00    -0.081 SA
ENDROOT
BRANCH   1   2
HETATM    2  C   UNL     1      20.797  46.968  48.433  1.00  0.00     0.192 C 
HETATM    3  N   UNL     1      20.891  48.289  48.793  1.00  0.00    -0.302 N 
HETATM    4  C   UNL     1      19.565  48.691  48.914  1.00  0.00     0.166 C 
HETATM    5  N   UNL     1      18.803  47.611  48.956  1.00  0.00    -0.128 NA
HETATM    6  N   UNL     1      19.577  46.530  48.642  1.00  0.00    -0.122 NA
BRANCH   3   7
HETATM    7  C   UNL     1      22.057  49.148  48.920  1.00  0.00     0.094 C 
HETATM    8  C   UNL     1      23.352  48.375  49.235  1.00  0.00     0.026 C 
HETATM    9  C   UNL     1      24.484  49.354  48.961  1.00  0.00     0.002 C 
HETATM   10  C   UNL     1      23.948  50.331  47.927  1.00  0.00     0.002 C 
HETATM   11  C   UNL     1      22.503  49.922  47.667  1.00  0.00     0.026 C 
ENDBRANCH   3   7
BRANCH   4  12
HETATM   12  C   UNL     1      19.066  50.064  48.852  1.00  0.00     0.034 A 
HETATM   13  C   UNL     1      18.874  50.765  50.057  1.00  0.00     0.017 A 
HETATM   14  C   UNL     1      18.439  52.092  50.055  1.00  0.00     0.001 A 
HETATM   15  C   UNL     1      18.192  52.737  48.849  1.00  0.00     0.002 A 
HETATM   16  C   UNL     1      18.385  52.059  47.643  1.00  0.00     0.025 A 
HETATM   17  C   UNL     1      18.825  50.730  47.641  1.00  0.00     0.048 A 
HETATM   18 CL   UNL     1      19.008  49.951  46.109  1.00  0.00    -0.083 Cl
ENDBRANCH   4  12
ENDBRANCH   1   2
BRANCH   1  19
HETATM   19  C   UNL     1      22.012  44.543  48.410  1.00  0.00     0.185 C 
BRANCH  19  20
HETATM   20  C   UNL     1      23.386  44.330  49.042  1.00  0.00     0.231 C 
HETATM   21  N   UNL     1      23.473  44.838  50.328  1.00  0.00    -0.326 N 
HETATM   22  H   UNL     1      22.583  45.063  50.776  1.00  0.00     0.169 HD
HETATM   23  O   UNL     1      24.276  43.728  48.445  1.00  0.00    -0.272 OA
BRANCH  21  24
HETATM   24  C   UNL     1      24.585  44.819  51.195  1.00  0.00     0.037 A 
HETATM   25  C   UNL     1      25.195  43.646  51.650  1.00  0.00     0.061 A 
HETATM   26  C   UNL     1      26.247  43.792  52.528  1.00  0.00     0.065 A 
HETATM   27  C   UNL     1      26.711  45.038  52.943  1.00  0.00     0.063 A 
HETATM   28  N   UNL     1      27.015  42.820  53.160  1.00  0.00    -0.306 N 
HETATM   29  N   UNL     1      27.766  44.833  53.824  1.00  0.00    -0.307 N 
HETATM   30  C   UNL     1      26.150  46.208  52.503  1.00  0.00     0.034 A 
HETATM   31  C   UNL     1      27.967  43.454  53.973  1.00  0.00     0.325 A 
HETATM   32  H   UNL     1      28.312  45.535  54.295  1.00  0.00     0.170 HD
HETATM   33  O   UNL     1      28.800  42.912  54.676  1.00  0.00    -0.247 OA
HETATM   34  C   UNL     1      25.071  46.087  51.618  1.00  0.00     0.032 A 
HETATM   35  H   UNL     1      26.930  41.820  53.068  1.00  0.00     0.170 HD
ENDBRANCH  21  24
ENDBRANCH  19  20
ENDBRANCH   1  19
TORSDOF 6
ENDMDL
MODEL 5
REMARK VINA RESULT:      -9.5      3.476      5.834
REMARK  6 active torsions:
REMARK  status: ('A' for Active; 'I' for Inactive)
REMARK    1  A    between atoms: C_3  and  C_4 
REMARK    2  A    between atoms: N_5  and  C_6 
REMARK    3  A    between atoms: C_11  and  S_12 
REMARK    4  A    between atoms: S_12  and  C_13 
REMARK    5  A    between atoms: C_13  and  C_14 
REMARK       I    between atoms: C_14  and  N_15 
REMARK    6  A    between atoms: N_15  and  C_16 
ROOT
HETATM    1  S   UNL     1      25.147  47.610  49.593  1.00  0.00    -0.081 SA
ENDROOT
BRANCH   1   2
HETATM    2  C   UNL     1      25.384  46.830  51.118  1.00  0.00     0.192 C 
HETATM    3  N   UNL     1      25.593  45.485  51.295  1.00  0.00    -0.302 N 
HETATM    4  C   UNL     1      26.360  45.424  52.454  1.00  0.00     0.166 C 
HETATM    5  N   UNL     1      26.297  46.597  53.060  1.00  0.00    -0.128 NA
HETATM    6  N   UNL     1      25.693  47.483  52.214  1.00  0.00    -0.122 NA
BRANCH   3   7
HETATM    7  C   UNL     1      25.229  44.358  50.453  1.00  0.00     0.094 C 
HETATM    8  C   UNL     1      26.385  43.869  49.558  1.00  0.00     0.026 C 
HETATM    9  C   UNL     1      25.952  42.501  49.052  1.00  0.00     0.002 C 
HETATM   10  C   UNL     1      24.994  41.954  50.097  1.00  0.00     0.002 C 
HETATM   11  C   UNL     1      24.857  43.042  51.156  1.00  0.00     0.026 C 
ENDBRANCH   3   7
BRANCH   4  12
HETATM   12  C   UNL     1      27.218  44.315  52.867  1.00  0.00     0.034 A 
HETATM   13  C   UNL     1      28.407  44.081  52.152  1.00  0.00     0.017 A 
HETATM   14  C   UNL     1      29.284  43.062  52.528  1.00  0.00     0.001 A 
HETATM   15  C   UNL     1      28.986  42.263  53.626  1.00  0.00     0.002 A 
HETATM   16  C   UNL     1      27.814  42.485  54.352  1.00  0.00     0.025 A 
HETATM   17  C   UNL     1      26.934  43.509  53.980  1.00  0.00     0.048 A 
HETATM   18 CL   UNL     1      25.490  43.699  54.909  1.00  0.00    -0.083 Cl
ENDBRANCH   4  12
ENDBRANCH   1   2
BRANCH   1  19
HETATM   19  C   UNL     1      23.413  47.145  49.280  1.00  0.00     0.185 C 
BRANCH  19  20
HETATM   20  C   UNL     1      22.614  48.333  48.750  1.00  0.00     0.231 C 
HETATM   21  N   UNL     1      21.607  48.734  49.613  1.00  0.00    -0.326 N 
HETATM   22  H   UNL     1      21.670  48.370  50.565  1.00  0.00     0.169 HD
HETATM   23  O   UNL     1      22.900  48.868  47.681  1.00  0.00    -0.272 OA
BRANCH  21  24
HETATM   24  C   UNL     1      20.684  49.785  49.440  1.00  0.00     0.037 A 
HETATM   25  C   UNL     1      19.391  49.779  49.974  1.00  0.00     0.061 A 
HETATM   26  C   UNL     1      18.591  50.862  49.681  1.00  0.00     0.065 A 
HETATM   27  C   UNL     1      19.033  51.934  48.909  1.00  0.00     0.063 A 
HETATM   28  N   UNL     1      17.272  51.114  50.043  1.00  0.00    -0.306 N 
HETATM   29  N   UNL     1      17.989  52.845  48.800  1.00  0.00    -0.307 N 
HETATM   30  C   UNL     1      20.299  51.983  48.386  1.00  0.00     0.034 A 
HETATM   31  C   UNL     1      16.882  52.347  49.500  1.00  0.00     0.325 A 
HETATM   32  H   UNL     1      17.994  53.722  48.306  1.00  0.00     0.170 HD
HETATM   33  O   UNL     1      15.791  52.877  49.608  1.00  0.00    -0.247 OA
HETATM   34  C   UNL     1      21.128  50.888  48.659  1.00  0.00     0.032 A 
HETATM   35  H   UNL     1      16.671  50.530  50.603  1.00  0.00     0.170 HD
ENDBRANCH  21  24
ENDBRANCH  19  20
ENDBRANCH   1  19
TORSDOF 6
ENDMDL
MODEL 6
REMARK VINA RESULT:      -9.4      2.945      5.208
REMARK  6 active torsions:
REMARK  status: ('A' for Active; 'I' for Inactive)
REMARK    1  A    between atoms: C_3  and  C_4 
REMARK    2  A    between atoms: N_5  and  C_6 
REMARK    3  A    between atoms: C_11  and  S_12 
REMARK    4  A    between atoms: S_12  and  C_13 
REMARK    5  A    between atoms: C_13  and  C_14 
REMARK       I    between atoms: C_14  and  N_15 
REMARK    6  A    between atoms: N_15  and  C_16 
ROOT
HETATM    1  S   UNL     1      25.179  46.592  49.501  1.00  0.00    -0.081 SA
ENDROOT
BRANCH   1   2
HETATM    2  C   UNL     1      25.286  46.531  51.226  1.00  0.00     0.192 C 
HETATM    3  N   UNL     1      25.932  45.557  51.945  1.00  0.00    -0.302 N 
HETATM    4  C   UNL     1      26.333  46.218  53.102  1.00  0.00     0.166 C 
HETATM    5  N   UNL     1      25.676  47.362  53.179  1.00  0.00    -0.128 NA
HETATM    6  N   UNL     1      25.026  47.563  51.994  1.00  0.00    -0.122 NA
BRANCH   3   7
HETATM    7  C   UNL     1      26.254  44.185  51.592  1.00  0.00     0.094 C 
HETATM    8  C   UNL     1      25.015  43.340  51.238  1.00  0.00     0.026 C 
HETATM    9  C   UNL     1      25.558  42.095  50.552  1.00  0.00     0.002 C 
HETATM   10  C   UNL     1      26.887  42.504  49.938  1.00  0.00     0.002 C 
HETATM   11  C   UNL     1      27.103  43.962  50.329  1.00  0.00     0.026 C 
ENDBRANCH   3   7
BRANCH   4  12
HETATM   12  C   UNL     1      27.406  45.807  54.006  1.00  0.00     0.034 A 
HETATM   13  C   UNL     1      28.033  44.567  53.786  1.00  0.00     0.017 A 
HETATM   14  C   UNL     1      29.090  44.142  54.594  1.00  0.00     0.001 A 
HETATM   15  C   UNL     1      29.537  44.953  55.632  1.00  0.00     0.002 A 
HETATM   16  C   UNL     1      28.930  46.190  55.860  1.00  0.00     0.025 A 
HETATM   17  C   UNL     1      27.873  46.620  55.049  1.00  0.00     0.048 A 
HETATM   18 CL   UNL     1      27.154  48.148  55.417  1.00  0.00    -0.083 Cl
ENDBRANCH   4  12
ENDBRANCH   1   2
BRANCH   1  19
HETATM   19  C   UNL     1      25.358  48.387  49.248  1.00  0.00     0.185 C 
BRANCH  19  20
HETATM   20  C   UNL     1      24.056  49.001  48.738  1.00  0.00     0.231 C 
HETATM   21  N   UNL     1      22.995  48.816  49.609  1.00  0.00    -0.326 N 
HETATM   22  H   UNL     1      23.245  48.523  50.555  1.00  0.00     0.169 HD
HETATM   23  O   UNL     1      24.016  49.620  47.677  1.00  0.00    -0.272 OA
BRANCH  21  24
HETATM   24  C   UNL     1      21.660  49.244  49.454  1.00  0.00     0.037 A 
HETATM   25  C   UNL     1      21.197  50.502  49.853  1.00  0.00     0.061 A 
HETATM   26  C   UNL     1      19.855  50.756  49.673  1.00  0.00     0.065 A 
HETATM   27  C   UNL     1      18.984  49.829  49.106  1.00  0.00     0.063 A 
HETATM   28  N   UNL     1      19.116  51.890  49.997  1.00  0.00    -0.306 N 
HETATM   29  N   UNL     1      17.714  50.392  49.076  1.00  0.00    -0.307 N 
HETATM   30  C   UNL     1      19.407  48.594  48.687  1.00  0.00     0.034 A 
HETATM   31  C   UNL     1      17.779  51.677  49.631  1.00  0.00     0.325 A 
HETATM   32  H   UNL     1      16.869  49.973  48.725  1.00  0.00     0.170 HD
HETATM   33  O   UNL     1      16.853  52.455  49.775  1.00  0.00    -0.247 OA
HETATM   34  C   UNL     1      20.765  48.306  48.869  1.00  0.00     0.032 A 
HETATM   35  H   UNL     1      19.456  52.739  50.420  1.00  0.00     0.170 HD
ENDBRANCH  21  24
ENDBRANCH  19  20
ENDBRANCH   1  19
TORSDOF 6
ENDMDL
MODEL 7
REMARK VINA RESULT:      -9.3      2.941      8.418
REMARK  6 active torsions:
REMARK  status: ('A' for Active; 'I' for Inactive)
REMARK    1  A    between atoms: C_3  and  C_4 
REMARK    2  A    between atoms: N_5  and  C_6 
REMARK    3  A    between atoms: C_11  and  S_12 
REMARK    4  A    between atoms: S_12  and  C_13 
REMARK    5  A    between atoms: C_13  and  C_14 
REMARK       I    between atoms: C_14  and  N_15 
REMARK    6  A    between atoms: N_15  and  C_16 
ROOT
HETATM    1  S   UNL     1      26.896  44.322  49.933  1.00  0.00    -0.081 SA
ENDROOT
BRANCH   1   2
HETATM    2  C   UNL     1      25.294  44.858  49.566  1.00  0.00     0.192 C 
HETATM    3  N   UNL     1      24.661  45.924  50.154  1.00  0.00    -0.302 N 
HETATM    4  C   UNL     1      23.792  46.374  49.166  1.00  0.00     0.166 C 
HETATM    5  N   UNL     1      23.695  45.440  48.237  1.00  0.00    -0.128 NA
HETATM    6  N   UNL     1      24.648  44.492  48.482  1.00  0.00    -0.122 NA
BRANCH   3   7
HETATM    7  C   UNL     1      24.883  46.553  51.446  1.00  0.00     0.094 C 
HETATM    8  C   UNL     1      24.904  45.550  52.616  1.00  0.00     0.026 C 
HETATM    9  C   UNL     1      25.506  46.310  53.788  1.00  0.00     0.002 C 
HETATM   10  C   UNL     1      26.387  47.387  53.178  1.00  0.00     0.002 C 
HETATM   11  C   UNL     1      26.233  47.255  51.667  1.00  0.00     0.026 C 
ENDBRANCH   3   7
BRANCH   4  12
HETATM   12  C   UNL     1      23.198  47.707  49.077  1.00  0.00     0.034 A 
HETATM   13  C   UNL     1      21.797  47.826  49.150  1.00  0.00     0.017 A 
HETATM   14  C   UNL     1      21.179  49.077  49.111  1.00  0.00     0.001 A 
HETATM   15  C   UNL     1      21.952  50.228  49.000  1.00  0.00     0.002 A 
HETATM   16  C   UNL     1      23.343  50.129  48.933  1.00  0.00     0.025 A 
HETATM   17  C   UNL     1      23.966  48.876  48.976  1.00  0.00     0.048 A 
HETATM   18 CL   UNL     1      25.690  48.836  48.856  1.00  0.00    -0.083 Cl
ENDBRANCH   4  12
ENDBRANCH   1   2
BRANCH   1  19
HETATM   19  C   UNL     1      26.510  42.725  50.718  1.00  0.00     0.185 C 
BRANCH  19  20
HETATM   20  C   UNL     1      27.284  42.554  52.024  1.00  0.00     0.231 C 
HETATM   21  N   UNL     1      27.919  43.717  52.430  1.00  0.00    -0.326 N 
HETATM   22  H   UNL     1      27.612  44.574  51.967  1.00  0.00     0.169 HD
HETATM   23  O   UNL     1      27.277  41.487  52.634  1.00  0.00    -0.272 OA
BRANCH  21  24
HETATM   24  C   UNL     1      28.716  43.915  53.576  1.00  0.00     0.037 A 
HETATM   25  C   UNL     1      28.465  44.899  54.537  1.00  0.00     0.061 A 
HETATM   26  C   UNL     1      29.360  44.995  55.579  1.00  0.00     0.065 A 
HETATM   27  C   UNL     1      30.461  44.151  55.703  1.00  0.00     0.063 A 
HETATM   28  N   UNL     1      29.383  45.883  56.650  1.00  0.00    -0.306 N 
HETATM   29  N   UNL     1      31.156  44.516  56.849  1.00  0.00    -0.307 N 
HETATM   30  C   UNL     1      30.728  43.164  54.791  1.00  0.00     0.034 A 
HETATM   31  C   UNL     1      30.498  45.597  57.450  1.00  0.00     0.325 A 
HETATM   32  H   UNL     1      31.996  44.097  57.213  1.00  0.00     0.170 HD
HETATM   33  O   UNL     1      30.834  46.180  58.465  1.00  0.00    -0.247 OA
HETATM   34  C   UNL     1      29.839  43.053  53.716  1.00  0.00     0.032 A 
HETATM   35  H   UNL     1      28.722  46.618  56.846  1.00  0.00     0.170 HD
ENDBRANCH  21  24
ENDBRANCH  19  20
ENDBRANCH   1  19
TORSDOF 6
ENDMDL
MODEL 8
REMARK VINA RESULT:      -9.3      3.974     10.067
REMARK  6 active torsions:
REMARK  status: ('A' for Active; 'I' for Inactive)
REMARK    1  A    between atoms: C_3  and  C_4 
REMARK    2  A    between atoms: N_5  and  C_6 
REMARK    3  A    between atoms: C_11  and  S_12 
REMARK    4  A    between atoms: S_12  and  C_13 
REMARK    5  A    between atoms: C_13  and  C_14 
REMARK       I    between atoms: C_14  and  N_15 
REMARK    6  A    between atoms: N_15  and  C_16 
ROOT
HETATM    1  S   UNL     1      21.582  45.189  48.678  1.00  0.00    -0.081 SA
ENDROOT
BRANCH   1   2
HETATM    2  C   UNL     1      21.761  46.903  48.528  1.00  0.00     0.192 C 
HETATM    3  N   UNL     1      20.788  47.765  48.091  1.00  0.00    -0.302 N 
HETATM    4  C   UNL     1      21.090  48.956  48.742  1.00  0.00     0.166 C 
HETATM    5  N   UNL     1      22.316  48.868  49.228  1.00  0.00    -0.128 NA
HETATM    6  N   UNL     1      22.733  47.573  49.103  1.00  0.00    -0.122 NA
BRANCH   3   7
HETATM    7  C   UNL     1      19.628  47.526  47.247  1.00  0.00     0.094 C 
HETATM    8  C   UNL     1      19.976  46.827  45.919  1.00  0.00     0.026 C 
HETATM    9  C   UNL     1      18.649  46.332  45.363  1.00  0.00     0.002 C 
HETATM   10  C   UNL     1      17.742  46.134  46.566  1.00  0.00     0.002 C 
HETATM   11  C   UNL     1      18.551  46.567  47.783  1.00  0.00     0.026 C 
ENDBRANCH   3   7
BRANCH   4  12
HETATM   12  C   UNL     1      20.171  50.066  48.990  1.00  0.00     0.034 A 
HETATM   13  C   UNL     1      20.347  51.260  48.266  1.00  0.00     0.017 A 
HETATM   14  C   UNL     1      19.475  52.338  48.432  1.00  0.00     0.001 A 
HETATM   15  C   UNL     1      18.411  52.235  49.322  1.00  0.00     0.002 A 
HETATM   16  C   UNL     1      18.217  51.055  50.044  1.00  0.00     0.025 A 
HETATM   17  C   UNL     1      19.088  49.972  49.876  1.00  0.00     0.048 A 
HETATM   18 CL   UNL     1      18.798  48.559  50.829  1.00  0.00    -0.083 Cl
ENDBRANCH   4  12
ENDBRANCH   1   2
BRANCH   1  19
HETATM   19  C   UNL     1      23.336  44.699  48.683  1.00  0.00     0.185 C 
BRANCH  19  20
HETATM   20  C   UNL     1      23.885  44.639  50.107  1.00  0.00     0.231 C 
HETATM   21  N   UNL     1      24.956  45.495  50.308  1.00  0.00    -0.326 N 
HETATM   22  H   UNL     1      25.091  46.211  49.593  1.00  0.00     0.169 HD
HETATM   23  O   UNL     1      23.368  43.920  50.959  1.00  0.00    -0.272 OA
BRANCH  21  24
HETATM   24  C   UNL     1      25.700  45.689  51.490  1.00  0.00     0.037 A 
HETATM   25  C   UNL     1      26.730  44.841  51.908  1.00  0.00     0.061 A 
HETATM   26  C   UNL     1      27.335  45.140  53.109  1.00  0.00     0.065 A 
HETATM   27  C   UNL     1      26.970  46.242  53.879  1.00  0.00     0.063 A 
HETATM   28  N   UNL     1      28.351  44.470  53.781  1.00  0.00    -0.306 N 
HETATM   29  N   UNL     1      27.763  46.253  55.020  1.00  0.00    -0.307 N 
HETATM   30  C   UNL     1      25.979  47.106  53.491  1.00  0.00     0.034 A 
HETATM   31  C   UNL     1      28.629  45.151  54.976  1.00  0.00     0.325 A 
HETATM   32  H   UNL     1      27.742  46.922  55.771  1.00  0.00     0.170 HD
HETATM   33  O   UNL     1      29.455  44.842  55.815  1.00  0.00    -0.247 OA
HETATM   34  C   UNL     1      25.340  46.816  52.280  1.00  0.00     0.032 A 
HETATM   35  H   UNL     1      28.831  43.634  53.486  1.00  0.00     0.170 HD
ENDBRANCH  21  24
ENDBRANCH  19  20
ENDBRANCH   1  19
TORSDOF 6
ENDMDL
MODEL 9
REMARK VINA RESULT:      -9.3      3.500      9.317
REMARK  6 active torsions:
REMARK  status: ('A' for Active; 'I' for Inactive)
REMARK    1  A    between atoms: C_3  and  C_4 
REMARK    2  A    between atoms: N_5  and  C_6 
REMARK    3  A    between atoms: C_11  and  S_12 
REMARK    4  A    between atoms: S_12  and  C_13 
REMARK    5  A    between atoms: C_13  and  C_14 
REMARK       I    between atoms: C_14  and  N_15 
REMARK    6  A    between atoms: N_15  and  C_16 
ROOT
HETATM    1  S   UNL     1      23.517  44.825  49.768  1.00  0.00    -0.081 SA
ENDROOT
BRANCH   1   2
HETATM    2  C   UNL     1      23.499  46.505  49.359  1.00  0.00     0.192 C 
HETATM    3  N   UNL     1      22.495  47.142  48.675  1.00  0.00    -0.302 N 
HETATM    4  C   UNL     1      22.552  48.448  49.152  1.00  0.00     0.166 C 
HETATM    5  N   UNL     1      23.700  48.611  49.786  1.00  0.00    -0.128 NA
HETATM    6  N   UNL     1      24.290  47.387  49.926  1.00  0.00    -0.122 NA
BRANCH   3   7
HETATM    7  C   UNL     1      21.503  46.614  47.753  1.00  0.00     0.094 C 
HETATM    8  C   UNL     1      22.094  45.644  46.713  1.00  0.00     0.026 C 
HETATM    9  C   UNL     1      20.899  44.926  46.105  1.00  0.00     0.002 C 
HETATM   10  C   UNL     1      19.812  44.955  47.166  1.00  0.00     0.002 C 
HETATM   11  C   UNL     1      20.389  45.733  48.343  1.00  0.00     0.026 C 
ENDBRANCH   3   7
BRANCH   4  12
HETATM   12  C   UNL     1      21.476  49.436  49.104  1.00  0.00     0.034 A 
HETATM   13  C   UNL     1      20.227  49.098  49.658  1.00  0.00     0.017 A 
HETATM   14  C   UNL     1      19.176  50.017  49.677  1.00  0.00     0.001 A 
HETATM   15  C   UNL     1      19.359  51.288  49.143  1.00  0.00     0.002 A 
HETATM   16  C   UNL     1      20.594  51.643  48.595  1.00  0.00     0.025 A 
HETATM   17  C   UNL     1      21.651  50.725  48.579  1.00  0.00     0.048 A 
HETATM   18 CL   UNL     1      23.137  51.229  47.854  1.00  0.00    -0.083 Cl
ENDBRANCH   4  12
ENDBRANCH   1   2
BRANCH   1  19
HETATM   19  C   UNL     1      25.167  44.376  49.139  1.00  0.00     0.185 C 
BRANCH  19  20
HETATM   20  C   UNL     1      26.257  44.749  50.141  1.00  0.00     0.231 C 
HETATM   21  N   UNL     1      25.756  45.031  51.402  1.00  0.00    -0.326 N 
HETATM   22  H   UNL     1      24.795  44.732  51.573  1.00  0.00     0.169 HD
HETATM   23  O   UNL     1      27.444  44.745  49.823  1.00  0.00    -0.272 OA
BRANCH  21  24
HETATM   24  C   UNL     1      26.473  45.411  52.555  1.00  0.00     0.037 A 
HETATM   25  C   UNL     1      27.534  44.672  53.089  1.00  0.00     0.061 A 
HETATM   26  C   UNL     1      28.107  45.152  54.246  1.00  0.00     0.065 A 
HETATM   27  C   UNL     1      27.681  46.326  54.863  1.00  0.00     0.063 A 
HETATM   28  N   UNL     1      29.142  44.623  55.008  1.00  0.00    -0.306 N 
HETATM   29  N   UNL     1      28.456  46.520  56.000  1.00  0.00    -0.307 N 
HETATM   30  C   UNL     1      26.658  47.085  54.358  1.00  0.00     0.034 A 
HETATM   31  C   UNL     1      29.371  45.464  56.107  1.00  0.00     0.325 A 
HETATM   32  H   UNL     1      28.394  47.279  56.659  1.00  0.00     0.170 HD
HETATM   33  O   UNL     1      30.198  45.304  56.986  1.00  0.00    -0.247 OA
HETATM   34  C   UNL     1      26.051  46.612  53.189  1.00  0.00     0.032 A 
HETATM   35  H   UNL     1      29.663  43.779  54.828  1.00  0.00     0.170 HD
ENDBRANCH  21  24
ENDBRANCH  19  20
ENDBRANCH   1  19
TORSDOF 6
ENDMDL
MODEL 10
REMARK VINA RESULT:      -9.2      4.282     10.460
REMARK  6 active torsions:
REMARK  status: ('A' for Active; 'I' for Inactive)
REMARK    1  A    between atoms: C_3  and  C_4 
REMARK    2  A    between atoms: N_5  and  C_6 
REMARK    3  A    between atoms: C_11  and  S_12 
REMARK    4  A    between atoms: S_12  and  C_13 
REMARK    5  A    between atoms: C_13  and  C_14 
REMARK       I    between atoms: C_14  and  N_15 
REMARK    6  A    between atoms: N_15  and  C_16 
ROOT
HETATM    1  S   UNL     1      21.082  45.383  46.955  1.00  0.00    -0.081 SA
ENDROOT
BRANCH   1   2
HETATM    2  C   UNL     1      21.301  47.089  47.130  1.00  0.00     0.192 C 
HETATM    3  N   UNL     1      20.303  48.028  47.057  1.00  0.00    -0.302 N 
HETATM    4  C   UNL     1      20.759  49.055  47.876  1.00  0.00     0.166 C 
HETATM    5  N   UNL     1      22.045  48.863  48.112  1.00  0.00    -0.128 NA
HETATM    6  N   UNL     1      22.382  47.621  47.653  1.00  0.00    -0.122 NA
BRANCH   3   7
HETATM    7  C   UNL     1      19.008  47.974  46.397  1.00  0.00     0.094 C 
HETATM    8  C   UNL     1      19.073  47.377  44.978  1.00  0.00     0.026 C 
HETATM    9  C   UNL     1      17.632  47.058  44.608  1.00  0.00     0.002 C 
HETATM   10  C   UNL     1      16.906  46.826  45.924  1.00  0.00     0.002 C 
HETATM   11  C   UNL     1      17.934  47.067  47.023  1.00  0.00     0.026 C 
ENDBRANCH   3   7
BRANCH   4  12
HETATM   12  C   UNL     1      19.940  50.092  48.502  1.00  0.00     0.034 A 
HETATM   13  C   UNL     1      20.003  51.401  47.990  1.00  0.00     0.017 A 
HETATM   14  C   UNL     1      19.213  52.421  48.522  1.00  0.00     0.001 A 
HETATM   15  C   UNL     1      18.345  52.147  49.574  1.00  0.00     0.002 A 
HETATM   16  C   UNL     1      18.264  50.852  50.091  1.00  0.00     0.025 A 
HETATM   17  C   UNL     1      19.053  49.826  49.556  1.00  0.00     0.048 A 
HETATM   18 CL   UNL     1      18.918  48.258  50.272  1.00  0.00    -0.083 Cl
ENDBRANCH   4  12
ENDBRANCH   1   2
BRANCH   1  19
HETATM   19  C   UNL     1      20.954  44.911  48.709  1.00  0.00     0.185 C 
BRANCH  19  20
HETATM   20  C   UNL     1      22.215  44.188  49.177  1.00  0.00     0.231 C 
HETATM   21  N   UNL     1      23.142  45.041  49.755  1.00  0.00    -0.326 N 
HETATM   22  H   UNL     1      22.791  45.964  50.015  1.00  0.00     0.169 HD
HETATM   23  O   UNL     1      22.331  42.970  49.065  1.00  0.00    -0.272 OA
BRANCH  21  24
HETATM   24  C   UNL     1      24.407  44.716  50.287  1.00  0.00     0.037 A 
HETATM   25  C   UNL     1      24.592  44.081  51.519  1.00  0.00     0.061 A 
HETATM   26  C   UNL     1      25.892  43.869  51.921  1.00  0.00     0.065 A 
HETATM   27  C   UNL     1      26.988  44.242  51.146  1.00  0.00     0.063 A 
HETATM   28  N   UNL     1      26.376  43.296  53.092  1.00  0.00    -0.306 N 
HETATM   29  N   UNL     1      28.142  43.895  51.837  1.00  0.00    -0.307 N 
HETATM   30  C   UNL     1      26.844  44.848  49.925  1.00  0.00     0.034 A 
HETATM   31  C   UNL     1      27.778  43.306  53.055  1.00  0.00     0.325 A 
HETATM   32  H   UNL     1      29.095  44.033  51.541  1.00  0.00     0.170 HD
HETATM   33  O   UNL     1      28.532  42.891  53.917  1.00  0.00    -0.247 OA
HETATM   34  C   UNL     1      25.532  45.086  49.499  1.00  0.00     0.032 A 
HETATM   35  H   UNL     1      25.836  42.924  53.858  1.00  0.00     0.170 HD
ENDBRANCH  21  24
ENDBRANCH  19  20
ENDBRANCH   1  19
TORSDOF 6
ENDMDL
