MODEL 1
REMARK VINA RESULT:      -7.8      0.000      0.000
REMARK  8 active torsions:
REMARK  status: ('A' for Active; 'I' for Inactive)
REMARK    1  A    between atoms: N_2  and  C_4 
REMARK    2  A    between atoms: N_2  and  C_28 
REMARK    3  A    between atoms: N_7  and  C_8 
REMARK    4  A    between atoms: C_11  and  C_12 
REMARK       I    between atoms: C_12  and  N_13 
REMARK    5  A    between atoms: N_13  and  C_14 
REMARK    6  A    between atoms: C_14  and  C_15 
REMARK    7  A    between atoms: C_15  and  N_16 
REMARK    8  A    between atoms: C_28  and  C_29 
ROOT
HETATM    1  C   UNL     1      24.884  46.344  49.746  1.00  0.00     0.030 A 
HETATM    2  C   UNL     1      25.559  47.574  49.703  1.00  0.00     0.030 A 
HETATM    3  C   UNL     1      24.958  48.730  49.176  1.00  0.00     0.019 A 
HETATM    4  C   UNL     1      23.653  48.677  48.682  1.00  0.00     0.032 A 
HETATM    5  C   UNL     1      22.961  47.467  48.717  1.00  0.00     0.019 A 
HETATM    6  C   UNL     1      23.575  46.319  49.235  1.00  0.00     0.030 A 
ENDROOT
BRANCH   1   7
HETATM    7  N   UNL     1      25.425  45.191  50.328  1.00  0.00    -0.381 N 
HETATM    8  C   UNL     1      25.165  44.937  51.744  1.00  0.00     0.125 C 
HETATM    9  C   UNL     1      25.354  43.450  52.032  1.00  0.00     0.053 C 
HETATM   10  C   UNL     1      26.723  42.921  51.574  1.00  0.00     0.191 C 
HETATM   11  C   UNL     1      26.914  43.276  50.090  1.00  0.00     0.053 C 
HETATM   12  C   UNL     1      26.730  44.766  49.813  1.00  0.00     0.125 C 
BRANCH  10  13
HETATM   13  N   UNL     1      27.870  43.440  52.463  1.00  0.00    -0.067 N 
HETATM   14  C   UNL     1      29.196  42.747  52.215  1.00  0.00     0.270 C 
HETATM   15  H   UNL     1      28.027  44.433  52.255  1.00  0.00     0.280 HD
BRANCH  13  16
HETATM   16  C   UNL     1      27.546  43.368  53.957  1.00  0.00     0.273 C 
BRANCH  16  17
HETATM   17  C   UNL     1      28.140  44.507  54.725  1.00  0.00    -0.026 A 
HETATM   18  C   UNL     1      29.359  44.465  55.379  1.00  0.00     0.058 A 
HETATM   19  S   UNL     1      29.757  45.942  56.141  1.00  0.00    -0.113 SA
HETATM   20  C   UNL     1      28.287  46.656  55.646  1.00  0.00     0.050 A 
HETATM   21  C   UNL     1      27.515  45.789  54.905  1.00  0.00     0.016 A 
ENDBRANCH  16  17
ENDBRANCH  13  16
ENDBRANCH  10  13
ENDBRANCH   1   7
BRANCH   4  22
HETATM   22  C   UNL     1      22.944  49.895  48.208  1.00  0.00     0.251 C 
HETATM   23  N   UNL     1      21.908  50.365  48.983  1.00  0.00    -0.355 N 
HETATM   24  H   UNL     1      21.694  49.868  49.841  1.00  0.00     0.162 HD
HETATM   25  O   UNL     1      23.293  50.455  47.172  1.00  0.00    -0.268 OA
BRANCH  23  26
HETATM   26  C   UNL     1      20.921  51.346  48.535  1.00  0.00     0.150 C 
BRANCH  26  27
HETATM   27  C   UNL     1      19.684  51.557  49.439  1.00  0.00     0.254 C 
BRANCH  27  28
HETATM   28  N   UNL     1      18.383  51.224  48.753  1.00  0.00    -0.066 N 
HETATM   29  H   UNL     1      18.363  51.802  47.885  1.00  0.00     0.280 HD
HETATM   30  C   UNL     1      18.248  49.780  48.295  1.00  0.00     0.261 C 
HETATM   31  C   UNL     1      16.918  49.599  47.553  1.00  0.00     0.195 C 
HETATM   32  O   UNL     1      15.816  49.974  48.385  1.00  0.00    -0.388 OA
HETATM   33  C   UNL     1      15.891  51.353  48.764  1.00  0.00     0.195 C 
HETATM   34  C   UNL     1      17.166  51.633  49.566  1.00  0.00     0.261 C 
ENDBRANCH  27  28
ENDBRANCH  26  27
ENDBRANCH  23  26
ENDBRANCH   4  22
TORSDOF 8
ENDMDL
MODEL 2
REMARK VINA RESULT:      -7.7      1.669      2.499
REMARK  8 active torsions:
REMARK  status: ('A' for Active; 'I' for Inactive)
REMARK    1  A    between atoms: N_2  and  C_4 
REMARK    2  A    between atoms: N_2  and  C_28 
REMARK    3  A    between atoms: N_7  and  C_8 
REMARK    4  A    between atoms: C_11  and  C_12 
REMARK       I    between atoms: C_12  and  N_13 
REMARK    5  A    between atoms: N_13  and  C_14 
REMARK    6  A    between atoms: C_14  and  C_15 
REMARK    7  A    between atoms: C_15  and  N_16 
REMARK    8  A    between atoms: C_28  and  C_29 
ROOT
HETATM    1  C   UNL     1      25.543  45.238  51.475  1.00  0.00     0.030 A 
HETATM    2  C   UNL     1      25.568  46.640  51.540  1.00  0.00     0.030 A 
HETATM    3  C   UNL     1      24.765  47.434  50.704  1.00  0.00     0.019 A 
HETATM    4  C   UNL     1      23.908  46.832  49.780  1.00  0.00     0.032 A 
HETATM    5  C   UNL     1      23.862  45.441  49.699  1.00  0.00     0.019 A 
HETATM    6  C   UNL     1      24.676  44.660  50.531  1.00  0.00     0.030 A 
ENDROOT
BRANCH   1   7
HETATM    7  N   UNL     1      26.275  44.416  52.341  1.00  0.00    -0.381 N 
HETATM    8  C   UNL     1      26.662  44.947  53.646  1.00  0.00     0.125 C 
HETATM    9  C   UNL     1      26.945  43.788  54.598  1.00  0.00     0.053 C 
HETATM   10  C   UNL     1      27.968  42.787  54.036  1.00  0.00     0.191 C 
HETATM   11  C   UNL     1      27.489  42.324  52.649  1.00  0.00     0.053 C 
HETATM   12  C   UNL     1      27.215  43.490  51.703  1.00  0.00     0.125 C 
BRANCH  10  13
HETATM   13  N   UNL     1      29.394  43.371  54.009  1.00  0.00    -0.067 N 
HETATM   14  C   UNL     1      30.104  43.187  52.681  1.00  0.00     0.270 C 
HETATM   15  H   UNL     1      29.339  44.385  54.163  1.00  0.00     0.280 HD
BRANCH  13  16
HETATM   16  C   UNL     1      30.284  42.822  55.126  1.00  0.00     0.273 C 
BRANCH  16  17
HETATM   17  C   UNL     1      30.516  43.823  56.214  1.00  0.00    -0.026 A 
HETATM   18  C   UNL     1      29.942  45.081  56.264  1.00  0.00     0.058 A 
HETATM   19  S   UNL     1      30.396  45.966  57.654  1.00  0.00    -0.113 SA
HETATM   20  C   UNL     1      31.403  44.700  58.198  1.00  0.00     0.050 A 
HETATM   21  C   UNL     1      31.384  43.620  57.343  1.00  0.00     0.016 A 
ENDBRANCH  16  17
ENDBRANCH  13  16
ENDBRANCH  10  13
ENDBRANCH   1   7
BRANCH   4  22
HETATM   22  C   UNL     1      22.970  47.630  48.946  1.00  0.00     0.251 C 
HETATM   23  N   UNL     1      22.200  48.574  49.588  1.00  0.00    -0.355 N 
HETATM   24  H   UNL     1      22.324  48.686  50.588  1.00  0.00     0.162 HD
HETATM   25  O   UNL     1      22.909  47.451  47.732  1.00  0.00    -0.268 OA
BRANCH  23  26
HETATM   26  C   UNL     1      21.031  49.225  48.999  1.00  0.00     0.150 C 
BRANCH  26  27
HETATM   27  C   UNL     1      20.241  50.197  49.905  1.00  0.00     0.254 C 
BRANCH  27  28
HETATM   28  N   UNL     1      18.880  50.547  49.358  1.00  0.00    -0.066 N 
HETATM   29  H   UNL     1      18.328  50.896  50.171  1.00  0.00     0.280 HD
HETATM   30  C   UNL     1      18.869  51.671  48.334  1.00  0.00     0.261 C 
HETATM   31  C   UNL     1      17.423  51.972  47.918  1.00  0.00     0.195 C 
HETATM   32  O   UNL     1      16.790  50.800  47.394  1.00  0.00    -0.388 OA
HETATM   33  C   UNL     1      16.727  49.757  48.373  1.00  0.00     0.195 C 
HETATM   34  C   UNL     1      18.132  49.338  48.820  1.00  0.00     0.261 C 
ENDBRANCH  27  28
ENDBRANCH  26  27
ENDBRANCH  23  26
ENDBRANCH   4  22
TORSDOF 8
ENDMDL
MODEL 3
REMARK VINA RESULT:      -7.6      4.426     11.438
REMARK  8 active torsions:
REMARK  status: ('A' for Active; 'I' for Inactive)
REMARK    1  A    between atoms: N_2  and  C_4 
REMARK    2  A    between atoms: N_2  and  C_28 
REMARK    3  A    between atoms: N_7  and  C_8 
REMARK    4  A    between atoms: C_11  and  C_12 
REMARK       I    between atoms: C_12  and  N_13 
REMARK    5  A    between atoms: N_13  and  C_14 
REMARK    6  A    between atoms: C_14  and  C_15 
REMARK    7  A    between atoms: C_15  and  N_16 
REMARK    8  A    between atoms: C_28  and  C_29 
ROOT
HETATM    1  C   UNL     1      23.418  47.490  49.043  1.00  0.00     0.030 A 
HETATM    2  C   UNL     1      23.246  46.107  48.874  1.00  0.00     0.030 A 
HETATM    3  C   UNL     1      24.251  45.189  49.219  1.00  0.00     0.019 A 
HETATM    4  C   UNL     1      25.460  45.641  49.752  1.00  0.00     0.032 A 
HETATM    5  C   UNL     1      25.653  47.010  49.934  1.00  0.00     0.019 A 
HETATM    6  C   UNL     1      24.647  47.917  49.575  1.00  0.00     0.030 A 
ENDROOT
BRANCH   1   7
HETATM    7  N   UNL     1      22.412  48.427  48.778  1.00  0.00    -0.381 N 
HETATM    8  C   UNL     1      22.588  49.795  49.261  1.00  0.00     0.125 C 
HETATM    9  C   UNL     1      21.708  50.736  48.442  1.00  0.00     0.053 C 
HETATM   10  C   UNL     1      20.233  50.301  48.411  1.00  0.00     0.191 C 
HETATM   11  C   UNL     1      20.163  48.841  47.931  1.00  0.00     0.053 C 
HETATM   12  C   UNL     1      21.041  47.907  48.761  1.00  0.00     0.125 C 
BRANCH  10  13
HETATM   13  N   UNL     1      19.539  50.515  49.769  1.00  0.00    -0.067 N 
HETATM   14  C   UNL     1      18.440  49.510  50.059  1.00  0.00     0.270 C 
HETATM   15  H   UNL     1      20.232  50.400  50.518  1.00  0.00     0.280 HD
BRANCH  13  16
HETATM   16  C   UNL     1      18.972  51.927  49.933  1.00  0.00     0.273 C 
BRANCH  16  17
HETATM   17  C   UNL     1      17.638  52.087  49.274  1.00  0.00    -0.026 A 
HETATM   18  C   UNL     1      17.413  51.975  47.914  1.00  0.00     0.058 A 
HETATM   19  S   UNL     1      15.771  52.190  47.490  1.00  0.00    -0.113 SA
HETATM   20  C   UNL     1      15.333  52.477  49.115  1.00  0.00     0.050 A 
HETATM   21  C   UNL     1      16.415  52.399  49.963  1.00  0.00     0.016 A 
ENDBRANCH  16  17
ENDBRANCH  13  16
ENDBRANCH  10  13
ENDBRANCH   1   7
BRANCH   4  22
HETATM   22  C   UNL     1      26.510  44.701  50.223  1.00  0.00     0.251 C 
HETATM   23  N   UNL     1      26.771  44.670  51.575  1.00  0.00    -0.355 N 
HETATM   24  H   UNL     1      26.225  45.275  52.177  1.00  0.00     0.162 HD
HETATM   25  O   UNL     1      27.101  43.976  49.426  1.00  0.00    -0.268 OA
BRANCH  23  26
HETATM   26  C   UNL     1      27.951  44.047  52.174  1.00  0.00     0.150 C 
BRANCH  26  27
HETATM   27  C   UNL     1      27.875  43.714  53.682  1.00  0.00     0.254 C 
BRANCH  27  28
HETATM   28  N   UNL     1      29.026  44.282  54.475  1.00  0.00    -0.066 N 
HETATM   29  H   UNL     1      29.617  44.797  53.788  1.00  0.00     0.280 HD
HETATM   30  C   UNL     1      28.636  45.300  55.535  1.00  0.00     0.261 C 
HETATM   31  C   UNL     1      29.899  45.847  56.211  1.00  0.00     0.195 C 
HETATM   32  O   UNL     1      30.671  44.787  56.783  1.00  0.00    -0.388 OA
HETATM   33  C   UNL     1      31.108  43.859  55.784  1.00  0.00     0.195 C 
HETATM   34  C   UNL     1      29.914  43.206  55.080  1.00  0.00     0.261 C 
ENDBRANCH  27  28
ENDBRANCH  26  27
ENDBRANCH  23  26
ENDBRANCH   4  22
TORSDOF 8
ENDMDL
MODEL 4
REMARK VINA RESULT:      -7.6      4.631     11.684
REMARK  8 active torsions:
REMARK  status: ('A' for Active; 'I' for Inactive)
REMARK    1  A    between atoms: N_2  and  C_4 
REMARK    2  A    between atoms: N_2  and  C_28 
REMARK    3  A    between atoms: N_7  and  C_8 
REMARK    4  A    between atoms: C_11  and  C_12 
REMARK       I    between atoms: C_12  and  N_13 
REMARK    5  A    between atoms: N_13  and  C_14 
REMARK    6  A    between atoms: C_14  and  C_15 
REMARK    7  A    between atoms: C_15  and  N_16 
REMARK    8  A    between atoms: C_28  and  C_29 
ROOT
HETATM    1  C   UNL     1      20.160  50.524  48.389  1.00  0.00     0.030 A 
HETATM    2  C   UNL     1      20.598  49.255  47.979  1.00  0.00     0.030 A 
HETATM    3  C   UNL     1      21.963  48.948  47.855  1.00  0.00     0.019 A 
HETATM    4  C   UNL     1      22.927  49.915  48.147  1.00  0.00     0.032 A 
HETATM    5  C   UNL     1      22.517  51.183  48.559  1.00  0.00     0.019 A 
HETATM    6  C   UNL     1      21.152  51.480  48.669  1.00  0.00     0.030 A 
ENDROOT
BRANCH   1   7
HETATM    7  N   UNL     1      18.811  50.842  48.593  1.00  0.00    -0.381 N 
HETATM    8  C   UNL     1      17.816  50.277  47.685  1.00  0.00     0.125 C 
HETATM    9  C   UNL     1      16.450  50.286  48.366  1.00  0.00     0.053 C 
HETATM   10  C   UNL     1      16.053  51.676  48.893  1.00  0.00     0.191 C 
HETATM   11  C   UNL     1      17.182  52.196  49.799  1.00  0.00     0.053 C 
HETATM   12  C   UNL     1      18.542  52.189  49.107  1.00  0.00     0.125 C 
BRANCH  10  13
HETATM   13  N   UNL     1      15.710  52.650  47.750  1.00  0.00    -0.067 N 
HETATM   14  C   UNL     1      14.741  53.746  48.153  1.00  0.00     0.270 C 
HETATM   15  H   UNL     1      16.568  53.127  47.452  1.00  0.00     0.280 HD
BRANCH  13  16
HETATM   16  C   UNL     1      15.167  51.943  46.506  1.00  0.00     0.273 C 
BRANCH  16  17
HETATM   17  C   UNL     1      15.816  52.425  45.247  1.00  0.00    -0.026 A 
HETATM   18  C   UNL     1      15.571  53.650  44.652  1.00  0.00     0.058 A 
HETATM   19  S   UNL     1      16.495  53.900  43.236  1.00  0.00    -0.113 SA
HETATM   20  C   UNL     1      17.214  52.358  43.367  1.00  0.00     0.050 A 
HETATM   21  C   UNL     1      16.767  51.671  44.475  1.00  0.00     0.016 A 
ENDBRANCH  16  17
ENDBRANCH  13  16
ENDBRANCH  10  13
ENDBRANCH   1   7
BRANCH   4  22
HETATM   22  C   UNL     1      24.381  49.605  48.125  1.00  0.00     0.251 C 
HETATM   23  N   UNL     1      24.842  48.669  49.023  1.00  0.00    -0.355 N 
HETATM   24  H   UNL     1      24.165  48.231  49.640  1.00  0.00     0.162 HD
HETATM   25  O   UNL     1      25.124  50.159  47.319  1.00  0.00    -0.268 OA
BRANCH  23  26
HETATM   26  C   UNL     1      26.252  48.461  49.350  1.00  0.00     0.150 C 
BRANCH  26  27
HETATM   27  C   UNL     1      26.683  47.018  49.700  1.00  0.00     0.254 C 
BRANCH  27  28
HETATM   28  N   UNL     1      25.655  46.271  50.513  1.00  0.00    -0.066 N 
HETATM   29  H   UNL     1      24.908  46.964  50.732  1.00  0.00     0.280 HD
HETATM   30  C   UNL     1      24.964  45.130  49.784  1.00  0.00     0.261 C 
HETATM   31  C   UNL     1      23.899  44.508  50.696  1.00  0.00     0.195 C 
HETATM   32  O   UNL     1      24.482  44.051  51.921  1.00  0.00    -0.388 OA
HETATM   33  C   UNL     1      25.072  45.130  52.654  1.00  0.00     0.195 C 
HETATM   34  C   UNL     1      26.197  45.790  51.849  1.00  0.00     0.261 C 
ENDBRANCH  27  28
ENDBRANCH  26  27
ENDBRANCH  23  26
ENDBRANCH   4  22
TORSDOF 8
ENDMDL
MODEL 5
REMARK VINA RESULT:      -7.5      5.447     13.219
REMARK  8 active torsions:
REMARK  status: ('A' for Active; 'I' for Inactive)
REMARK    1  A    between atoms: N_2  and  C_4 
REMARK    2  A    between atoms: N_2  and  C_28 
REMARK    3  A    between atoms: N_7  and  C_8 
REMARK    4  A    between atoms: C_11  and  C_12 
REMARK       I    between atoms: C_12  and  N_13 
REMARK    5  A    between atoms: N_13  and  C_14 
REMARK    6  A    between atoms: C_14  and  C_15 
REMARK    7  A    between atoms: C_15  and  N_16 
REMARK    8  A    between atoms: C_28  and  C_29 
ROOT
HETATM    1  C   UNL     1      16.152  52.645  49.461  1.00  0.00     0.030 A 
HETATM    2  C   UNL     1      17.457  52.855  49.932  1.00  0.00     0.030 A 
HETATM    3  C   UNL     1      18.493  51.941  49.675  1.00  0.00     0.019 A 
HETATM    4  C   UNL     1      18.239  50.788  48.929  1.00  0.00     0.032 A 
HETATM    5  C   UNL     1      16.951  50.559  48.447  1.00  0.00     0.019 A 
HETATM    6  C   UNL     1      15.924  51.473  48.719  1.00  0.00     0.030 A 
ENDROOT
BRANCH   1   7
HETATM    7  N   UNL     1      15.114  53.569  49.636  1.00  0.00    -0.381 N 
HETATM    8  C   UNL     1      15.434  54.994  49.589  1.00  0.00     0.125 C 
HETATM    9  C   UNL     1      14.170  55.784  49.261  1.00  0.00     0.053 C 
HETATM   10  C   UNL     1      13.002  55.467  50.211  1.00  0.00     0.191 C 
HETATM   11  C   UNL     1      12.777  53.945  50.219  1.00  0.00     0.053 C 
HETATM   12  C   UNL     1      14.045  53.165  50.555  1.00  0.00     0.125 C 
BRANCH  10  13
HETATM   13  N   UNL     1      13.232  56.042  51.621  1.00  0.00    -0.067 N 
HETATM   14  C   UNL     1      11.965  56.159  52.448  1.00  0.00     0.270 C 
HETATM   15  H   UNL     1      13.851  55.409  52.141  1.00  0.00     0.280 HD
BRANCH  13  16
HETATM   16  C   UNL     1      13.937  57.401  51.604  1.00  0.00     0.273 C 
BRANCH  16  17
HETATM   17  C   UNL     1      14.715  57.657  52.856  1.00  0.00    -0.026 A 
HETATM   18  C   UNL     1      14.777  58.874  53.510  1.00  0.00     0.058 A 
HETATM   19  S   UNL     1      15.734  58.822  54.926  1.00  0.00    -0.113 SA
HETATM   20  C   UNL     1      16.117  57.179  54.671  1.00  0.00     0.050 A 
HETATM   21  C   UNL     1      15.519  56.678  53.537  1.00  0.00     0.016 A 
ENDBRANCH  16  17
ENDBRANCH  13  16
ENDBRANCH  10  13
ENDBRANCH   1   7
BRANCH   4  22
HETATM   22  C   UNL     1      19.325  49.845  48.550  1.00  0.00     0.251 C 
HETATM   23  N   UNL     1      20.616  50.213  48.855  1.00  0.00    -0.355 N 
HETATM   24  H   UNL     1      20.757  51.096  49.333  1.00  0.00     0.162 HD
HETATM   25  O   UNL     1      19.059  48.777  48.003  1.00  0.00    -0.268 OA
BRANCH  23  26
HETATM   26  C   UNL     1      21.809  49.573  48.301  1.00  0.00     0.150 C 
BRANCH  26  27
HETATM   27  C   UNL     1      23.066  50.458  48.142  1.00  0.00     0.254 C 
BRANCH  27  28
HETATM   28  N   UNL     1      24.305  49.845  48.746  1.00  0.00    -0.066 N 
HETATM   29  H   UNL     1      24.469  50.356  49.640  1.00  0.00     0.280 HD
HETATM   30  C   UNL     1      24.177  48.377  49.123  1.00  0.00     0.261 C 
HETATM   31  C   UNL     1      25.475  47.903  49.788  1.00  0.00     0.195 C 
HETATM   32  O   UNL     1      26.596  48.110  48.922  1.00  0.00    -0.388 OA
HETATM   33  C   UNL     1      26.773  49.498  48.618  1.00  0.00     0.195 C 
HETATM   34  C   UNL     1      25.546  50.063  47.895  1.00  0.00     0.261 C 
ENDBRANCH  27  28
ENDBRANCH  26  27
ENDBRANCH  23  26
ENDBRANCH   4  22
TORSDOF 8
ENDMDL
MODEL 6
REMARK VINA RESULT:      -7.3     13.306     16.784
REMARK  8 active torsions:
REMARK  status: ('A' for Active; 'I' for Inactive)
REMARK    1  A    between atoms: N_2  and  C_4 
REMARK    2  A    between atoms: N_2  and  C_28 
REMARK    3  A    between atoms: N_7  and  C_8 
REMARK    4  A    between atoms: C_11  and  C_12 
REMARK       I    between atoms: C_12  and  N_13 
REMARK    5  A    between atoms: N_13  and  C_14 
REMARK    6  A    between atoms: C_14  and  C_15 
REMARK    7  A    between atoms: C_15  and  N_16 
REMARK    8  A    between atoms: C_28  and  C_29 
ROOT
HETATM    1  C   UNL     1      33.759  50.272  41.803  1.00  0.00     0.030 A 
HETATM    2  C   UNL     1      33.382  51.138  42.841  1.00  0.00     0.030 A 
HETATM    3  C   UNL     1      34.331  51.861  43.582  1.00  0.00     0.019 A 
HETATM    4  C   UNL     1      35.690  51.734  43.293  1.00  0.00     0.032 A 
HETATM    5  C   UNL     1      36.090  50.883  42.263  1.00  0.00     0.019 A 
HETATM    6  C   UNL     1      35.135  50.158  41.538  1.00  0.00     0.030 A 
ENDROOT
BRANCH   1   7
HETATM    7  N   UNL     1      32.838  49.592  40.996  1.00  0.00    -0.381 N 
HETATM    8  C   UNL     1      32.009  50.369  40.077  1.00  0.00     0.125 C 
HETATM    9  C   UNL     1      31.504  49.458  38.961  1.00  0.00     0.053 C 
HETATM   10  C   UNL     1      30.790  48.203  39.490  1.00  0.00     0.191 C 
HETATM   11  C   UNL     1      31.727  47.485  40.477  1.00  0.00     0.053 C 
HETATM   12  C   UNL     1      32.221  48.403  41.592  1.00  0.00     0.125 C 
BRANCH  10  13
HETATM   13  N   UNL     1      29.418  48.536  40.108  1.00  0.00    -0.067 N 
HETATM   14  C   UNL     1      28.667  47.321  40.620  1.00  0.00     0.270 C 
HETATM   15  H   UNL     1      29.560  49.144  40.922  1.00  0.00     0.280 HD
BRANCH  13  16
HETATM   16  C   UNL     1      28.508  49.314  39.154  1.00  0.00     0.273 C 
BRANCH  16  17
HETATM   17  C   UNL     1      28.579  50.792  39.376  1.00  0.00    -0.026 A 
HETATM   18  C   UNL     1      28.546  51.406  40.615  1.00  0.00     0.058 A 
HETATM   19  S   UNL     1      28.672  53.108  40.520  1.00  0.00    -0.113 SA
HETATM   20  C   UNL     1      28.733  53.062  38.814  1.00  0.00     0.050 A 
HETATM   21  C   UNL     1      28.671  51.774  38.329  1.00  0.00     0.016 A 
ENDBRANCH  16  17
ENDBRANCH  13  16
ENDBRANCH  10  13
ENDBRANCH   1   7
BRANCH   4  22
HETATM   22  C   UNL     1      36.720  52.554  43.985  1.00  0.00     0.251 C 
HETATM   23  N   UNL     1      36.933  53.830  43.515  1.00  0.00    -0.355 N 
HETATM   24  H   UNL     1      36.368  54.148  42.735  1.00  0.00     0.162 HD
HETATM   25  O   UNL     1      37.334  52.100  44.947  1.00  0.00    -0.268 OA
BRANCH  23  26
HETATM   26  C   UNL     1      38.088  54.657  43.863  1.00  0.00     0.150 C 
BRANCH  26  27
HETATM   27  C   UNL     1      38.087  55.302  45.268  1.00  0.00     0.254 C 
BRANCH  27  28
HETATM   28  N   UNL     1      38.972  54.580  46.254  1.00  0.00    -0.066 N 
HETATM   29  H   UNL     1      39.149  53.640  45.841  1.00  0.00     0.280 HD
HETATM   30  C   UNL     1      40.340  55.206  46.468  1.00  0.00     0.261 C 
HETATM   31  C   UNL     1      41.158  54.337  47.432  1.00  0.00     0.195 C 
HETATM   32  O   UNL     1      40.471  54.174  48.678  1.00  0.00    -0.388 OA
HETATM   33  C   UNL     1      39.211  53.518  48.499  1.00  0.00     0.195 C 
HETATM   34  C   UNL     1      38.289  54.337  47.591  1.00  0.00     0.261 C 
ENDBRANCH  27  28
ENDBRANCH  26  27
ENDBRANCH  23  26
ENDBRANCH   4  22
TORSDOF 8
ENDMDL
MODEL 7
REMARK VINA RESULT:      -7.1      4.366     11.789
REMARK  8 active torsions:
REMARK  status: ('A' for Active; 'I' for Inactive)
REMARK    1  A    between atoms: N_2  and  C_4 
REMARK    2  A    between atoms: N_2  and  C_28 
REMARK    3  A    between atoms: N_7  and  C_8 
REMARK    4  A    between atoms: C_11  and  C_12 
REMARK       I    between atoms: C_12  and  N_13 
REMARK    5  A    between atoms: N_13  and  C_14 
REMARK    6  A    between atoms: C_14  and  C_15 
REMARK    7  A    between atoms: C_15  and  N_16 
REMARK    8  A    between atoms: C_28  and  C_29 
ROOT
HETATM    1  C   UNL     1      21.197  50.094  48.111  1.00  0.00     0.030 A 
HETATM    2  C   UNL     1      21.214  48.702  48.290  1.00  0.00     0.030 A 
HETATM    3  C   UNL     1      22.322  48.041  48.847  1.00  0.00     0.019 A 
HETATM    4  C   UNL     1      23.444  48.770  49.245  1.00  0.00     0.032 A 
HETATM    5  C   UNL     1      23.450  50.154  49.080  1.00  0.00     0.019 A 
HETATM    6  C   UNL     1      22.343  50.801  48.514  1.00  0.00     0.030 A 
ENDROOT
BRANCH   1   7
HETATM    7  N   UNL     1      20.084  50.792  47.627  1.00  0.00    -0.381 N 
HETATM    8  C   UNL     1      19.477  51.813  48.479  1.00  0.00     0.125 C 
HETATM    9  C   UNL     1      18.681  52.785  47.611  1.00  0.00     0.053 C 
HETATM   10  C   UNL     1      17.657  52.079  46.706  1.00  0.00     0.191 C 
HETATM   11  C   UNL     1      18.388  51.001  45.888  1.00  0.00     0.053 C 
HETATM   12  C   UNL     1      19.175  50.030  46.765  1.00  0.00     0.125 C 
BRANCH  10  13
HETATM   13  N   UNL     1      16.469  51.514  47.509  1.00  0.00    -0.067 N 
HETATM   14  C   UNL     1      16.109  50.086  47.142  1.00  0.00     0.270 C 
HETATM   15  H   UNL     1      16.721  51.495  48.504  1.00  0.00     0.280 HD
BRANCH  13  16
HETATM   16  C   UNL     1      15.213  52.382  47.407  1.00  0.00     0.273 C 
BRANCH  16  17
HETATM   17  C   UNL     1      14.984  53.201  48.639  1.00  0.00    -0.026 A 
HETATM   18  C   UNL     1      14.322  54.415  48.666  1.00  0.00     0.058 A 
HETATM   19  S   UNL     1      14.210  55.078  50.238  1.00  0.00    -0.113 SA
HETATM   20  C   UNL     1      15.082  53.773  50.909  1.00  0.00     0.050 A 
HETATM   21  C   UNL     1      15.440  52.845  49.956  1.00  0.00     0.016 A 
ENDBRANCH  16  17
ENDBRANCH  13  16
ENDBRANCH  10  13
ENDBRANCH   1   7
BRANCH   4  22
HETATM   22  C   UNL     1      24.596  48.125  49.928  1.00  0.00     0.251 C 
HETATM   23  N   UNL     1      24.314  47.160  50.869  1.00  0.00    -0.355 N 
HETATM   24  H   UNL     1      23.340  46.930  51.035  1.00  0.00     0.162 HD
HETATM   25  O   UNL     1      25.748  48.440  49.640  1.00  0.00    -0.268 OA
BRANCH  23  26
HETATM   26  C   UNL     1      25.279  46.645  51.839  1.00  0.00     0.150 C 
BRANCH  26  27
HETATM   27  C   UNL     1      25.269  45.120  52.093  1.00  0.00     0.254 C 
BRANCH  27  28
HETATM   28  N   UNL     1      26.363  44.666  53.027  1.00  0.00    -0.066 N 
HETATM   29  H   UNL     1      25.949  43.895  53.595  1.00  0.00     0.280 HD
HETATM   30  C   UNL     1      27.585  44.071  52.346  1.00  0.00     0.261 C 
HETATM   31  C   UNL     1      28.580  43.587  53.407  1.00  0.00     0.195 C 
HETATM   32  O   UNL     1      28.955  44.658  54.280  1.00  0.00    -0.388 OA
HETATM   33  C   UNL     1      27.823  45.179  54.985  1.00  0.00     0.195 C 
HETATM   34  C   UNL     1      26.783  45.745  54.012  1.00  0.00     0.261 C 
ENDBRANCH  27  28
ENDBRANCH  26  27
ENDBRANCH  23  26
ENDBRANCH   4  22
TORSDOF 8
ENDMDL
MODEL 8
REMARK VINA RESULT:      -7.1      5.776     13.929
REMARK  8 active torsions:
REMARK  status: ('A' for Active; 'I' for Inactive)
REMARK    1  A    between atoms: N_2  and  C_4 
REMARK    2  A    between atoms: N_2  and  C_28 
REMARK    3  A    between atoms: N_7  and  C_8 
REMARK    4  A    between atoms: C_11  and  C_12 
REMARK       I    between atoms: C_12  and  N_13 
REMARK    5  A    between atoms: N_13  and  C_14 
REMARK    6  A    between atoms: C_14  and  C_15 
REMARK    7  A    between atoms: C_15  and  N_16 
REMARK    8  A    between atoms: C_28  and  C_29 
ROOT
HETATM    1  C   UNL     1      16.387  52.330  49.171  1.00  0.00     0.030 A 
HETATM    2  C   UNL     1      16.153  51.070  48.598  1.00  0.00     0.030 A 
HETATM    3  C   UNL     1      17.201  50.175  48.327  1.00  0.00     0.019 A 
HETATM    4  C   UNL     1      18.518  50.525  48.633  1.00  0.00     0.032 A 
HETATM    5  C   UNL     1      18.775  51.769  49.206  1.00  0.00     0.019 A 
HETATM    6  C   UNL     1      17.723  52.658  49.462  1.00  0.00     0.030 A 
ENDROOT
BRANCH   1   7
HETATM    7  N   UNL     1      15.361  53.217  49.521  1.00  0.00    -0.381 N 
HETATM    8  C   UNL     1      14.522  53.767  48.459  1.00  0.00     0.125 C 
HETATM    9  C   UNL     1      13.198  54.237  49.056  1.00  0.00     0.053 C 
HETATM   10  C   UNL     1      13.384  55.211  50.232  1.00  0.00     0.191 C 
HETATM   11  C   UNL     1      14.314  54.556  51.268  1.00  0.00     0.053 C 
HETATM   12  C   UNL     1      15.637  54.095  50.663  1.00  0.00     0.125 C 
BRANCH  10  13
HETATM   13  N   UNL     1      13.891  56.590  49.765  1.00  0.00    -0.067 N 
HETATM   14  C   UNL     1      14.421  57.459  50.891  1.00  0.00     0.270 C 
HETATM   15  H   UNL     1      14.677  56.453  49.120  1.00  0.00     0.280 HD
BRANCH  13  16
HETATM   16  C   UNL     1      12.837  57.380  48.985  1.00  0.00     0.273 C 
BRANCH  16  17
HETATM   17  C   UNL     1      13.313  57.775  47.623  1.00  0.00    -0.026 A 
HETATM   18  C   UNL     1      13.649  59.063  47.248  1.00  0.00     0.058 A 
HETATM   19  S   UNL     1      14.178  59.169  45.626  1.00  0.00    -0.113 SA
HETATM   20  C   UNL     1      13.930  57.499  45.379  1.00  0.00     0.050 A 
HETATM   21  C   UNL     1      13.465  56.872  46.514  1.00  0.00     0.016 A 
ENDBRANCH  16  17
ENDBRANCH  13  16
ENDBRANCH  10  13
ENDBRANCH   1   7
BRANCH   4  22
HETATM   22  C   UNL     1      19.644  49.571  48.454  1.00  0.00     0.251 C 
HETATM   23  N   UNL     1      20.686  49.649  49.351  1.00  0.00    -0.355 N 
HETATM   24  H   UNL     1      20.624  50.339  50.092  1.00  0.00     0.162 HD
HETATM   25  O   UNL     1      19.622  48.743  47.547  1.00  0.00    -0.268 OA
BRANCH  23  26
HETATM   26  C   UNL     1      21.990  49.016  49.159  1.00  0.00     0.150 C 
BRANCH  26  27
HETATM   27  C   UNL     1      23.072  49.849  48.433  1.00  0.00     0.254 C 
BRANCH  27  28
HETATM   28  N   UNL     1      24.472  49.549  48.910  1.00  0.00    -0.066 N 
HETATM   29  H   UNL     1      24.613  50.133  49.761  1.00  0.00     0.280 HD
HETATM   30  C   UNL     1      24.708  48.112  49.345  1.00  0.00     0.261 C 
HETATM   31  C   UNL     1      26.142  47.964  49.871  1.00  0.00     0.195 C 
HETATM   32  O   UNL     1      27.092  48.358  48.876  1.00  0.00    -0.388 OA
HETATM   33  C   UNL     1      26.928  49.732  48.509  1.00  0.00     0.195 C 
HETATM   34  C   UNL     1      25.538  49.980  47.915  1.00  0.00     0.261 C 
ENDBRANCH  27  28
ENDBRANCH  26  27
ENDBRANCH  23  26
ENDBRANCH   4  22
TORSDOF 8
ENDMDL
MODEL 9
REMARK VINA RESULT:      -7.0      5.570      9.265
REMARK  8 active torsions:
REMARK  status: ('A' for Active; 'I' for Inactive)
REMARK    1  A    between atoms: N_2  and  C_4 
REMARK    2  A    between atoms: N_2  and  C_28 
REMARK    3  A    between atoms: N_7  and  C_8 
REMARK    4  A    between atoms: C_11  and  C_12 
REMARK       I    between atoms: C_12  and  N_13 
REMARK    5  A    between atoms: N_13  and  C_14 
REMARK    6  A    between atoms: C_14  and  C_15 
REMARK    7  A    between atoms: C_15  and  N_16 
REMARK    8  A    between atoms: C_28  and  C_29 
ROOT
HETATM    1  C   UNL     1      17.372  50.589  48.804  1.00  0.00     0.030 A 
HETATM    2  C   UNL     1      18.000  51.601  49.546  1.00  0.00     0.030 A 
HETATM    3  C   UNL     1      17.347  52.805  49.857  1.00  0.00     0.019 A 
HETATM    4  C   UNL     1      16.035  53.020  49.430  1.00  0.00     0.032 A 
HETATM    5  C   UNL     1      15.388  52.029  48.694  1.00  0.00     0.019 A 
HETATM    6  C   UNL     1      16.054  50.836  48.381  1.00  0.00     0.030 A 
ENDROOT
BRANCH   1   7
HETATM    7  N   UNL     1      17.966  49.349  48.538  1.00  0.00    -0.381 N 
HETATM    8  C   UNL     1      18.983  48.851  49.462  1.00  0.00     0.125 C 
HETATM    9  C   UNL     1      19.095  47.335  49.318  1.00  0.00     0.053 C 
HETATM   10  C   UNL     1      19.338  46.888  47.866  1.00  0.00     0.191 C 
HETATM   11  C   UNL     1      18.243  47.498  46.976  1.00  0.00     0.053 C 
HETATM   12  C   UNL     1      18.143  49.015  47.122  1.00  0.00     0.125 C 
BRANCH  10  13
HETATM   13  N   UNL     1      20.760  47.237  47.386  1.00  0.00    -0.067 N 
HETATM   14  C   UNL     1      21.269  46.334  46.278  1.00  0.00     0.270 C 
HETATM   15  H   UNL     1      20.755  48.187  46.996  1.00  0.00     0.280 HD
BRANCH  13  16
HETATM   16  C   UNL     1      21.787  47.253  48.521  1.00  0.00     0.273 C 
BRANCH  16  17
HETATM   17  C   UNL     1      22.744  48.397  48.408  1.00  0.00    -0.026 A 
HETATM   18  C   UNL     1      24.072  48.355  48.795  1.00  0.00     0.058 A 
HETATM   19  S   UNL     1      24.897  49.825  48.510  1.00  0.00    -0.113 SA
HETATM   20  C   UNL     1      23.483  50.562  47.900  1.00  0.00     0.050 A 
HETATM   21  C   UNL     1      22.409  49.701  47.902  1.00  0.00     0.016 A 
ENDBRANCH  16  17
ENDBRANCH  13  16
ENDBRANCH  10  13
ENDBRANCH   1   7
BRANCH   4  22
HETATM   22  C   UNL     1      15.273  54.236  49.820  1.00  0.00     0.251 C 
HETATM   23  N   UNL     1      15.526  54.769  51.064  1.00  0.00    -0.355 N 
HETATM   24  H   UNL     1      16.226  54.315  51.641  1.00  0.00     0.162 HD
HETATM   25  O   UNL     1      14.467  54.741  49.043  1.00  0.00    -0.268 OA
BRANCH  23  26
HETATM   26  C   UNL     1      14.677  55.757  51.728  1.00  0.00     0.150 C 
BRANCH  26  27
HETATM   27  C   UNL     1      14.167  55.403  53.144  1.00  0.00     0.254 C 
BRANCH  27  28
HETATM   28  N   UNL     1      14.292  56.544  54.123  1.00  0.00    -0.066 N 
HETATM   29  H   UNL     1      14.427  56.103  55.057  1.00  0.00     0.280 HD
HETATM   30  C   UNL     1      15.497  57.445  53.909  1.00  0.00     0.261 C 
HETATM   31  C   UNL     1      15.542  58.512  55.010  1.00  0.00     0.195 C 
HETATM   32  O   UNL     1      14.332  59.276  55.028  1.00  0.00    -0.388 OA
HETATM   33  C   UNL     1      13.195  58.450  55.302  1.00  0.00     0.195 C 
HETATM   34  C   UNL     1      13.024  57.376  54.223  1.00  0.00     0.261 C 
ENDBRANCH  27  28
ENDBRANCH  26  27
ENDBRANCH  23  26
ENDBRANCH   4  22
TORSDOF 8
ENDMDL
MODEL 10
REMARK VINA RESULT:      -7.0     12.565     16.231
REMARK  8 active torsions:
REMARK  status: ('A' for Active; 'I' for Inactive)
REMARK    1  A    between atoms: N_2  and  C_4 
REMARK    2  A    between atoms: N_2  and  C_28 
REMARK    3  A    between atoms: N_7  and  C_8 
REMARK    4  A    between atoms: C_11  and  C_12 
REMARK       I    between atoms: C_12  and  N_13 
REMARK    5  A    between atoms: N_13  and  C_14 
REMARK    6  A    between atoms: C_14  and  C_15 
REMARK    7  A    between atoms: C_15  and  N_16 
REMARK    8  A    between atoms: C_28  and  C_29 
ROOT
HETATM    1  C   UNL     1      31.704  50.916  42.001  1.00  0.00     0.030 A 
HETATM    2  C   UNL     1      32.160  51.444  43.218  1.00  0.00     0.030 A 
HETATM    3  C   UNL     1      33.527  51.647  43.471  1.00  0.00     0.019 A 
HETATM    4  C   UNL     1      34.474  51.325  42.497  1.00  0.00     0.032 A 
HETATM    5  C   UNL     1      34.045  50.802  41.278  1.00  0.00     0.019 A 
HETATM    6  C   UNL     1      32.680  50.595  41.041  1.00  0.00     0.030 A 
ENDROOT
BRANCH   1   7
HETATM    7  N   UNL     1      30.347  50.769  41.688  1.00  0.00    -0.381 N 
HETATM    8  C   UNL     1      29.772  49.425  41.688  1.00  0.00     0.125 C 
HETATM    9  C   UNL     1      28.259  49.524  41.862  1.00  0.00     0.053 C 
HETATM   10  C   UNL     1      27.597  50.455  40.832  1.00  0.00     0.191 C 
HETATM   11  C   UNL     1      28.300  51.822  40.883  1.00  0.00     0.053 C 
HETATM   12  C   UNL     1      29.812  51.713  40.701  1.00  0.00     0.125 C 
BRANCH  10  13
HETATM   13  N   UNL     1      27.592  49.840  39.418  1.00  0.00    -0.067 N 
HETATM   14  C   UNL     1      27.051  50.772  38.350  1.00  0.00     0.270 C 
HETATM   15  H   UNL     1      28.559  49.629  39.146  1.00  0.00     0.280 HD
BRANCH  13  16
HETATM   16  C   UNL     1      26.834  48.513  39.347  1.00  0.00     0.273 C 
BRANCH  16  17
HETATM   17  C   UNL     1      27.738  47.353  39.072  1.00  0.00    -0.026 A 
HETATM   18  C   UNL     1      27.439  46.034  39.364  1.00  0.00     0.058 A 
HETATM   19  S   UNL     1      28.677  44.951  38.901  1.00  0.00    -0.113 SA
HETATM   20  C   UNL     1      29.658  46.230  38.336  1.00  0.00     0.050 A 
HETATM   21  C   UNL     1      29.047  47.455  38.487  1.00  0.00     0.016 A 
ENDBRANCH  16  17
ENDBRANCH  13  16
ENDBRANCH  10  13
ENDBRANCH   1   7
BRANCH   4  22
HETATM   22  C   UNL     1      35.921  51.615  42.683  1.00  0.00     0.251 C 
HETATM   23  N   UNL     1      36.293  52.937  42.783  1.00  0.00    -0.355 N 
HETATM   24  H   UNL     1      35.563  53.639  42.741  1.00  0.00     0.162 HD
HETATM   25  O   UNL     1      36.735  50.698  42.759  1.00  0.00    -0.268 OA
BRANCH  23  26
HETATM   26  C   UNL     1      37.669  53.418  42.666  1.00  0.00     0.150 C 
BRANCH  26  27
HETATM   27  C   UNL     1      38.059  54.636  43.535  1.00  0.00     0.254 C 
BRANCH  27  28
HETATM   28  N   UNL     1      38.632  54.250  44.876  1.00  0.00    -0.066 N 
HETATM   29  H   UNL     1      39.469  54.856  45.012  1.00  0.00     0.280 HD
HETATM   30  C   UNL     1      37.723  54.522  46.065  1.00  0.00     0.261 C 
HETATM   31  C   UNL     1      38.453  54.154  47.363  1.00  0.00     0.195 C 
HETATM   32  O   UNL     1      38.868  52.785  47.343  1.00  0.00    -0.388 OA
HETATM   33  C   UNL     1      39.783  52.531  46.271  1.00  0.00     0.195 C 
HETATM   34  C   UNL     1      39.131  52.815  44.914  1.00  0.00     0.261 C 
ENDBRANCH  27  28
ENDBRANCH  26  27
ENDBRANCH  23  26
ENDBRANCH   4  22
TORSDOF 8
ENDMDL
