MODEL 1
REMARK VINA RESULT:      -7.3      0.000      0.000
REMARK  10 active torsions:
REMARK  status: ('A' for Active; 'I' for Inactive)
REMARK    1  A    between atoms: C_3  and  C_4 
REMARK    2  A    between atoms: C_4  and  C_5 
REMARK       I    between atoms: C_5  and  N_6 
REMARK    3  A    between atoms: N_6  and  C_7 
REMARK    4  A    between atoms: C_7  and  C_8 
REMARK    5  A    between atoms: C_8  and  O_9 
REMARK    6  A    between atoms: C_15  and  N_16 
REMARK       I    between atoms: N_16  and  C_17 
REMARK    7  A    between atoms: C_17  and  C_18 
REMARK    8  A    between atoms: C_28  and  C_29 
REMARK    9  A    between atoms: C_29  and  O_30 
REMARK   10  A    between atoms: C_32  and  O_33 
ROOT
HETATM    1  C   UNL     1      18.971  48.444  45.059  1.00  0.00     0.016 C 
HETATM    2  C   UNL     1      18.492  47.959  46.466  1.00  0.00    -0.030 C 
HETATM    3  C   UNL     1      19.516  46.876  47.041  1.00  0.00     0.056 C 
HETATM    4  C   UNL     1      20.720  47.558  47.656  1.00  0.00     0.056 C 
HETATM    5  C   UNL     1      20.823  48.921  47.847  1.00  0.00     0.012 C 
HETATM    6  S   UNL     1      22.322  49.313  48.542  1.00  0.00    -0.055 SA
HETATM    7  C   UNL     1      22.632  47.644  48.753  1.00  0.00     0.173 C 
HETATM    8  N   UNL     1      21.746  46.824  48.231  1.00  0.00    -0.227 NA
HETATM    9  C   UNL     1      19.775  49.931  47.549  1.00  0.00     0.055 C 
HETATM   10  C   UNL     1      18.393  49.235  47.409  1.00  0.00     0.012 C 
HETATM   11  C   UNL     1      17.589  49.032  48.773  1.00  0.00     0.008 C 
HETATM   12  C   UNL     1      16.918  50.400  49.098  1.00  0.00     0.020 C 
HETATM   13  C   UNL     1      16.442  47.989  48.595  1.00  0.00     0.128 C 
HETATM   14  C   UNL     1      15.983  47.877  47.148  1.00  0.00     0.033 C 
HETATM   15  C   UNL     1      17.088  47.312  46.256  1.00  0.00     0.013 C 
ENDROOT
BRANCH   7  16
HETATM   16  N   UNL     1      23.628  47.216  49.593  1.00  0.00    -0.305 N 
HETATM   17  C   UNL     1      24.289  46.015  49.459  1.00  0.00     0.227 C 
HETATM   18  O   UNL     1      23.790  44.990  49.004  1.00  0.00    -0.273 OA
HETATM   19  H   UNL     1      23.875  47.873  50.324  1.00  0.00     0.171 HD
BRANCH  17  20
HETATM   20  C   UNL     1      25.749  46.079  49.921  1.00  0.00     0.078 C 
HETATM   21  C   UNL     1      25.989  47.183  50.963  1.00  0.00     0.014 C 
HETATM   22  C   UNL     1      25.424  46.860  52.350  1.00  0.00     0.001 C 
HETATM   23  C   UNL     1      25.859  45.487  52.848  1.00  0.00     0.000 C 
HETATM   24  C   UNL     1      25.567  44.395  51.826  1.00  0.00     0.001 C 
HETATM   25  C   UNL     1      26.198  44.713  50.470  1.00  0.00     0.014 C 
ENDBRANCH  17  20
ENDBRANCH   7  16
BRANCH   3  26
HETATM   26  C   UNL     1      19.932  45.836  45.980  1.00  0.00     0.114 C 
BRANCH  26  27
HETATM   27  C   UNL     1      19.771  44.391  46.409  1.00  0.00     0.218 C 
HETATM   28  N   UNL     1      20.478  43.477  45.675  1.00  0.00    -0.359 N 
HETATM   29  H   UNL     1      21.272  43.818  45.129  1.00  0.00     0.162 HD
HETATM   30  O   UNL     1      18.998  44.069  47.309  1.00  0.00    -0.274 OA
BRANCH  28  31
HETATM   31  C   UNL     1      20.362  42.055  45.920  1.00  0.00     0.148 C 
BRANCH  31  32
HETATM   32  C   UNL     1      21.649  41.456  46.493  1.00  0.00     0.186 C 
BRANCH  32  33
HETATM   33  O   UNL     1      22.030  42.016  47.759  1.00  0.00    -0.394 OA
HETATM   34  C   UNL     1      23.206  41.410  48.291  1.00  0.00     0.201 C 
ENDBRANCH  32  33
ENDBRANCH  31  32
ENDBRANCH  28  31
ENDBRANCH  26  27
ENDBRANCH   3  26
BRANCH  11  35
HETATM   35  C   UNL     1      18.431  48.630  50.015  1.00  0.00     0.176 C 
BRANCH  35  36
HETATM   36  O   UNL     1      18.553  49.690  50.955  1.00  0.00    -0.400 OA
HETATM   37  H   UNL     1      19.327  49.486  51.510  1.00  0.00     0.209 HD
ENDBRANCH  35  36
ENDBRANCH  11  35
BRANCH  13  38
HETATM   38  O   UNL     1      16.849  46.694  49.040  1.00  0.00    -0.395 OA
HETATM   39  H   UNL     1      16.064  46.116  49.032  1.00  0.00     0.210 HD
ENDBRANCH  13  38
TORSDOF 10
ENDMDL
MODEL 2
REMARK VINA RESULT:      -7.1      3.712      7.768
REMARK  10 active torsions:
REMARK  status: ('A' for Active; 'I' for Inactive)
REMARK    1  A    between atoms: C_3  and  C_4 
REMARK    2  A    between atoms: C_4  and  C_5 
REMARK       I    between atoms: C_5  and  N_6 
REMARK    3  A    between atoms: N_6  and  C_7 
REMARK    4  A    between atoms: C_7  and  C_8 
REMARK    5  A    between atoms: C_8  and  O_9 
REMARK    6  A    between atoms: C_15  and  N_16 
REMARK       I    between atoms: N_16  and  C_17 
REMARK    7  A    between atoms: C_17  and  C_18 
REMARK    8  A    between atoms: C_28  and  C_29 
REMARK    9  A    between atoms: C_29  and  O_30 
REMARK   10  A    between atoms: C_32  and  O_33 
ROOT
HETATM    1  C   UNL     1      16.994  47.027  48.948  1.00  0.00     0.016 C 
HETATM    2  C   UNL     1      17.911  48.290  48.841  1.00  0.00    -0.030 C 
HETATM    3  C   UNL     1      18.853  48.165  47.558  1.00  0.00     0.056 C 
HETATM    4  C   UNL     1      18.102  48.571  46.307  1.00  0.00     0.056 C 
HETATM    5  C   UNL     1      16.843  49.136  46.311  1.00  0.00     0.012 C 
HETATM    6  S   UNL     1      16.321  49.435  44.723  1.00  0.00    -0.055 SA
HETATM    7  C   UNL     1      17.880  49.014  44.158  1.00  0.00     0.173 C 
HETATM    8  N   UNL     1      18.715  48.555  45.063  1.00  0.00    -0.227 NA
HETATM    9  C   UNL     1      16.045  49.494  47.511  1.00  0.00     0.055 C 
HETATM   10  C   UNL     1      16.967  49.566  48.759  1.00  0.00     0.012 C 
HETATM   11  C   UNL     1      17.678  50.974  49.003  1.00  0.00     0.008 C 
HETATM   12  C   UNL     1      16.617  51.893  49.679  1.00  0.00     0.020 C 
HETATM   13  C   UNL     1      18.867  50.833  50.004  1.00  0.00     0.128 C 
HETATM   14  C   UNL     1      18.708  49.630  50.923  1.00  0.00     0.033 C 
HETATM   15  C   UNL     1      18.775  48.320  50.140  1.00  0.00     0.013 C 
ENDROOT
BRANCH   7  16
HETATM   16  N   UNL     1      18.278  49.342  42.887  1.00  0.00    -0.305 N 
HETATM   17  C   UNL     1      18.680  50.602  42.503  1.00  0.00     0.227 C 
HETATM   18  O   UNL     1      18.255  51.648  42.986  1.00  0.00    -0.273 OA
HETATM   19  H   UNL     1      18.287  48.567  42.234  1.00  0.00     0.171 HD
BRANCH  17  20
HETATM   20  C   UNL     1      19.750  50.583  41.405  1.00  0.00     0.078 C 
HETATM   21  C   UNL     1      19.706  49.298  40.563  1.00  0.00     0.014 C 
HETATM   22  C   UNL     1      18.520  49.230  39.596  1.00  0.00     0.001 C 
HETATM   23  C   UNL     1      18.395  50.488  38.743  1.00  0.00     0.000 C 
HETATM   24  C   UNL     1      18.387  51.751  39.595  1.00  0.00     0.001 C 
HETATM   25  C   UNL     1      19.615  51.823  40.503  1.00  0.00     0.014 C 
ENDBRANCH  17  20
ENDBRANCH   7  16
BRANCH   3  26
HETATM   26  C   UNL     1      19.475  46.760  47.416  1.00  0.00     0.114 C 
BRANCH  26  27
HETATM   27  C   UNL     1      20.991  46.729  47.447  1.00  0.00     0.218 C 
HETATM   28  N   UNL     1      21.556  46.832  48.689  1.00  0.00    -0.359 N 
HETATM   29  H   UNL     1      20.971  46.610  49.498  1.00  0.00     0.162 HD
HETATM   30  O   UNL     1      21.655  46.687  46.413  1.00  0.00    -0.274 OA
BRANCH  28  31
HETATM   31  C   UNL     1      22.991  46.893  48.866  1.00  0.00     0.148 C 
BRANCH  31  32
HETATM   32  C   UNL     1      23.460  48.266  49.356  1.00  0.00     0.186 C 
BRANCH  32  33
HETATM   33  O   UNL     1      22.653  49.353  48.878  1.00  0.00    -0.394 OA
HETATM   34  C   UNL     1      23.299  50.099  47.849  1.00  0.00     0.201 C 
ENDBRANCH  32  33
ENDBRANCH  31  32
ENDBRANCH  28  31
ENDBRANCH  26  27
ENDBRANCH   3  26
BRANCH  11  35
HETATM   35  C   UNL     1      18.187  51.718  47.737  1.00  0.00     0.176 C 
BRANCH  35  36
HETATM   36  O   UNL     1      18.705  53.008  48.037  1.00  0.00    -0.400 OA
HETATM   37  H   UNL     1      18.171  53.649  47.534  1.00  0.00     0.209 HD
ENDBRANCH  35  36
ENDBRANCH  11  35
BRANCH  13  38
HETATM   38  O   UNL     1      20.111  50.710  49.313  1.00  0.00    -0.395 OA
HETATM   39  H   UNL     1      19.926  50.343  48.429  1.00  0.00     0.210 HD
ENDBRANCH  13  38
TORSDOF 10
ENDMDL
MODEL 3
REMARK VINA RESULT:      -7.0     10.519     12.569
REMARK  10 active torsions:
REMARK  status: ('A' for Active; 'I' for Inactive)
REMARK    1  A    between atoms: C_3  and  C_4 
REMARK    2  A    between atoms: C_4  and  C_5 
REMARK       I    between atoms: C_5  and  N_6 
REMARK    3  A    between atoms: N_6  and  C_7 
REMARK    4  A    between atoms: C_7  and  C_8 
REMARK    5  A    between atoms: C_8  and  O_9 
REMARK    6  A    between atoms: C_15  and  N_16 
REMARK       I    between atoms: N_16  and  C_17 
REMARK    7  A    between atoms: C_17  and  C_18 
REMARK    8  A    between atoms: C_28  and  C_29 
REMARK    9  A    between atoms: C_29  and  O_30 
REMARK   10  A    between atoms: C_32  and  O_33 
ROOT
HETATM    1  C   UNL     1      27.568  44.128  38.146  1.00  0.00     0.016 C 
HETATM    2  C   UNL     1      27.109  44.827  39.467  1.00  0.00    -0.030 C 
HETATM    3  C   UNL     1      27.944  46.169  39.686  1.00  0.00     0.056 C 
HETATM    4  C   UNL     1      27.364  47.297  38.857  1.00  0.00     0.056 C 
HETATM    5  C   UNL     1      26.178  47.209  38.157  1.00  0.00     0.012 C 
HETATM    6  S   UNL     1      25.865  48.661  37.335  1.00  0.00    -0.055 SA
HETATM    7  C   UNL     1      27.193  49.376  38.142  1.00  0.00     0.173 C 
HETATM    8  N   UNL     1      27.916  48.569  38.887  1.00  0.00    -0.227 NA
HETATM    9  C   UNL     1      25.251  46.049  38.141  1.00  0.00     0.055 C 
HETATM   10  C   UNL     1      25.551  45.115  39.346  1.00  0.00     0.012 C 
HETATM   11  C   UNL     1      24.804  45.493  40.705  1.00  0.00     0.008 C 
HETATM   12  C   UNL     1      23.353  44.941  40.580  1.00  0.00     0.020 C 
HETATM   13  C   UNL     1      25.465  44.774  41.924  1.00  0.00     0.128 C 
HETATM   14  C   UNL     1      26.200  43.505  41.516  1.00  0.00     0.033 C 
HETATM   15  C   UNL     1      27.400  43.820  40.623  1.00  0.00     0.013 C 
ENDROOT
BRANCH   7  16
HETATM   16  N   UNL     1      27.349  50.739  38.167  1.00  0.00    -0.305 N 
HETATM   17  C   UNL     1      27.830  51.441  39.249  1.00  0.00     0.227 C 
HETATM   18  O   UNL     1      27.670  51.114  40.423  1.00  0.00    -0.273 OA
HETATM   19  H   UNL     1      27.108  51.207  37.302  1.00  0.00     0.171 HD
BRANCH  17  20
HETATM   20  C   UNL     1      28.624  52.690  38.850  1.00  0.00     0.078 C 
HETATM   21  C   UNL     1      29.275  53.385  40.056  1.00  0.00     0.014 C 
HETATM   22  C   UNL     1      30.483  52.635  40.626  1.00  0.00     0.001 C 
HETATM   23  C   UNL     1      31.498  52.268  39.549  1.00  0.00     0.000 C 
HETATM   24  C   UNL     1      30.848  51.534  38.383  1.00  0.00     0.001 C 
HETATM   25  C   UNL     1      29.687  52.336  37.794  1.00  0.00     0.014 C 
ENDBRANCH  17  20
ENDBRANCH   7  16
BRANCH   3  26
HETATM   26  C   UNL     1      29.451  45.979  39.410  1.00  0.00     0.114 C 
BRANCH  26  27
HETATM   27  C   UNL     1      30.305  47.205  39.670  1.00  0.00     0.218 C 
HETATM   28  N   UNL     1      30.142  47.786  40.898  1.00  0.00    -0.359 N 
HETATM   29  H   UNL     1      29.729  47.218  41.641  1.00  0.00     0.162 HD
HETATM   30  O   UNL     1      31.036  47.676  38.801  1.00  0.00    -0.274 OA
BRANCH  28  31
HETATM   31  C   UNL     1      30.834  49.005  41.259  1.00  0.00     0.148 C 
BRANCH  31  32
HETATM   32  C   UNL     1      31.306  48.998  42.714  1.00  0.00     0.186 C 
BRANCH  32  33
HETATM   33  O   UNL     1      32.453  49.829  42.950  1.00  0.00    -0.394 OA
HETATM   34  C   UNL     1      32.115  51.059  43.586  1.00  0.00     0.201 C 
ENDBRANCH  32  33
ENDBRANCH  31  32
ENDBRANCH  28  31
ENDBRANCH  26  27
ENDBRANCH   3  26
BRANCH  11  35
HETATM   35  C   UNL     1      24.691  47.008  41.031  1.00  0.00     0.176 C 
BRANCH  35  36
HETATM   36  O   UNL     1      23.417  47.542  40.693  1.00  0.00    -0.400 OA
HETATM   37  H   UNL     1      22.774  46.819  40.791  1.00  0.00     0.209 HD
ENDBRANCH  35  36
ENDBRANCH  11  35
BRANCH  13  38
HETATM   38  O   UNL     1      26.390  45.635  42.590  1.00  0.00    -0.395 OA
HETATM   39  H   UNL     1      27.030  45.955  41.929  1.00  0.00     0.210 HD
ENDBRANCH  13  38
TORSDOF 10
ENDMDL
MODEL 4
REMARK VINA RESULT:      -7.0      3.545      7.730
REMARK  10 active torsions:
REMARK  status: ('A' for Active; 'I' for Inactive)
REMARK    1  A    between atoms: C_3  and  C_4 
REMARK    2  A    between atoms: C_4  and  C_5 
REMARK       I    between atoms: C_5  and  N_6 
REMARK    3  A    between atoms: N_6  and  C_7 
REMARK    4  A    between atoms: C_7  and  C_8 
REMARK    5  A    between atoms: C_8  and  O_9 
REMARK    6  A    between atoms: C_15  and  N_16 
REMARK       I    between atoms: N_16  and  C_17 
REMARK    7  A    between atoms: C_17  and  C_18 
REMARK    8  A    between atoms: C_28  and  C_29 
REMARK    9  A    between atoms: C_29  and  O_30 
REMARK   10  A    between atoms: C_32  and  O_33 
ROOT
HETATM    1  C   UNL     1      18.141  48.241  50.453  1.00  0.00     0.016 C 
HETATM    2  C   UNL     1      18.608  49.335  49.438  1.00  0.00    -0.030 C 
HETATM    3  C   UNL     1      19.455  48.657  48.267  1.00  0.00     0.056 C 
HETATM    4  C   UNL     1      18.534  48.050  47.229  1.00  0.00     0.056 C 
HETATM    5  C   UNL     1      17.164  48.219  47.217  1.00  0.00     0.012 C 
HETATM    6  S   UNL     1      16.472  47.373  45.918  1.00  0.00    -0.055 SA
HETATM    7  C   UNL     1      18.043  47.035  45.333  1.00  0.00     0.173 C 
HETATM    8  N   UNL     1      19.038  47.409  46.107  1.00  0.00    -0.227 NA
HETATM    9  C   UNL     1      16.375  49.056  48.157  1.00  0.00     0.055 C 
HETATM   10  C   UNL     1      17.310  50.063  48.882  1.00  0.00     0.012 C 
HETATM   11  C   UNL     1      17.559  51.439  48.112  1.00  0.00     0.008 C 
HETATM   12  C   UNL     1      16.311  52.331  48.385  1.00  0.00     0.020 C 
HETATM   13  C   UNL     1      18.796  52.190  48.697  1.00  0.00     0.128 C 
HETATM   14  C   UNL     1      19.082  51.794  50.140  1.00  0.00     0.033 C 
HETATM   15  C   UNL     1      19.503  50.329  50.241  1.00  0.00     0.013 C 
ENDROOT
BRANCH   7  16
HETATM   16  N   UNL     1      18.234  46.596  44.048  1.00  0.00    -0.305 N 
HETATM   17  C   UNL     1      17.980  45.310  43.625  1.00  0.00     0.227 C 
HETATM   18  O   UNL     1      18.093  44.308  44.326  1.00  0.00    -0.273 OA
HETATM   19  H   UNL     1      18.555  47.307  43.402  1.00  0.00     0.171 HD
BRANCH  17  20
HETATM   20  C   UNL     1      17.512  45.239  42.167  1.00  0.00     0.078 C 
HETATM   21  C   UNL     1      17.091  43.820  41.753  1.00  0.00     0.014 C 
HETATM   22  C   UNL     1      15.752  43.372  42.346  1.00  0.00     0.001 C 
HETATM   23  C   UNL     1      14.645  44.396  42.118  1.00  0.00     0.000 C 
HETATM   24  C   UNL     1      15.057  45.788  42.581  1.00  0.00     0.001 C 
HETATM   25  C   UNL     1      16.363  46.234  41.923  1.00  0.00     0.014 C 
ENDBRANCH  17  20
ENDBRANCH   7  16
BRANCH   3  26
HETATM   26  C   UNL     1      20.474  47.626  48.795  1.00  0.00     0.114 C 
BRANCH  26  27
HETATM   27  C   UNL     1      21.908  47.874  48.371  1.00  0.00     0.218 C 
HETATM   28  N   UNL     1      22.688  48.527  49.286  1.00  0.00    -0.359 N 
HETATM   29  H   UNL     1      22.381  48.523  50.262  1.00  0.00     0.162 HD
HETATM   30  O   UNL     1      22.310  47.569  47.250  1.00  0.00    -0.274 OA
BRANCH  28  31
HETATM   31  C   UNL     1      24.055  48.900  48.990  1.00  0.00     0.148 C 
BRANCH  31  32
HETATM   32  C   UNL     1      24.143  50.193  48.176  1.00  0.00     0.186 C 
BRANCH  32  33
HETATM   33  O   UNL     1      25.354  50.310  47.414  1.00  0.00    -0.394 OA
HETATM   34  C   UNL     1      26.504  49.898  48.149  1.00  0.00     0.201 C 
ENDBRANCH  32  33
ENDBRANCH  31  32
ENDBRANCH  28  31
ENDBRANCH  26  27
ENDBRANCH   3  26
BRANCH  11  35
HETATM   35  C   UNL     1      17.725  51.346  46.570  1.00  0.00     0.176 C 
BRANCH  35  36
HETATM   36  O   UNL     1      17.512  52.595  45.924  1.00  0.00    -0.400 OA
HETATM   37  H   UNL     1      17.699  53.287  46.583  1.00  0.00     0.209 HD
ENDBRANCH  35  36
ENDBRANCH  11  35
BRANCH  13  38
HETATM   38  O   UNL     1      19.968  51.937  47.921  1.00  0.00    -0.395 OA
HETATM   39  H   UNL     1      19.682  51.658  47.032  1.00  0.00     0.210 HD
ENDBRANCH  13  38
TORSDOF 10
ENDMDL
MODEL 5
REMARK VINA RESULT:      -7.0      2.463      5.752
REMARK  10 active torsions:
REMARK  status: ('A' for Active; 'I' for Inactive)
REMARK    1  A    between atoms: C_3  and  C_4 
REMARK    2  A    between atoms: C_4  and  C_5 
REMARK       I    between atoms: C_5  and  N_6 
REMARK    3  A    between atoms: N_6  and  C_7 
REMARK    4  A    between atoms: C_7  and  C_8 
REMARK    5  A    between atoms: C_8  and  O_9 
REMARK    6  A    between atoms: C_15  and  N_16 
REMARK       I    between atoms: N_16  and  C_17 
REMARK    7  A    between atoms: C_17  and  C_18 
REMARK    8  A    between atoms: C_28  and  C_29 
REMARK    9  A    between atoms: C_29  and  O_30 
REMARK   10  A    between atoms: C_32  and  O_33 
ROOT
HETATM    1  C   UNL     1      19.002  49.385  51.113  1.00  0.00     0.016 C 
HETATM    2  C   UNL     1      18.873  49.887  49.637  1.00  0.00    -0.030 C 
HETATM    3  C   UNL     1      20.234  49.608  48.851  1.00  0.00     0.056 C 
HETATM    4  C   UNL     1      20.293  48.169  48.384  1.00  0.00     0.056 C 
HETATM    5  C   UNL     1      19.238  47.284  48.475  1.00  0.00     0.012 C 
HETATM    6  S   UNL     1      19.685  45.762  47.870  1.00  0.00    -0.055 SA
HETATM    7  C   UNL     1      21.157  46.439  47.322  1.00  0.00     0.173 C 
HETATM    8  N   UNL     1      21.379  47.688  47.669  1.00  0.00    -0.227 NA
HETATM    9  C   UNL     1      17.874  47.592  48.975  1.00  0.00     0.055 C 
HETATM   10  C   UNL     1      17.644  49.129  48.975  1.00  0.00     0.012 C 
HETATM   11  C   UNL     1      17.108  49.738  47.600  1.00  0.00     0.008 C 
HETATM   12  C   UNL     1      15.575  49.463  47.563  1.00  0.00     0.020 C 
HETATM   13  C   UNL     1      17.297  51.288  47.566  1.00  0.00     0.128 C 
HETATM   14  C   UNL     1      17.361  51.893  48.961  1.00  0.00     0.033 C 
HETATM   15  C   UNL     1      18.603  51.422  49.716  1.00  0.00     0.013 C 
ENDROOT
BRANCH   7  16
HETATM   16  N   UNL     1      21.938  45.778  46.409  1.00  0.00    -0.305 N 
HETATM   17  C   UNL     1      22.682  44.656  46.698  1.00  0.00     0.227 C 
HETATM   18  O   UNL     1      23.192  44.417  47.790  1.00  0.00    -0.273 OA
HETATM   19  H   UNL     1      21.908  46.161  45.472  1.00  0.00     0.171 HD
BRANCH  17  20
HETATM   20  C   UNL     1      22.803  43.693  45.511  1.00  0.00     0.078 C 
HETATM   21  C   UNL     1      23.350  42.317  45.923  1.00  0.00     0.014 C 
HETATM   22  C   UNL     1      22.344  41.455  46.692  1.00  0.00     0.001 C 
HETATM   23  C   UNL     1      21.000  41.357  45.979  1.00  0.00     0.000 C 
HETATM   24  C   UNL     1      20.446  42.731  45.623  1.00  0.00     0.001 C 
HETATM   25  C   UNL     1      21.446  43.543  44.801  1.00  0.00     0.014 C 
ENDBRANCH  17  20
ENDBRANCH   7  16
BRANCH   3  26
HETATM   26  C   UNL     1      21.481  49.988  49.678  1.00  0.00     0.114 C 
BRANCH  26  27
HETATM   27  C   UNL     1      22.671  50.450  48.858  1.00  0.00     0.218 C 
HETATM   28  N   UNL     1      23.743  49.600  48.847  1.00  0.00    -0.359 N 
HETATM   29  H   UNL     1      23.579  48.624  49.102  1.00  0.00     0.162 HD
HETATM   30  O   UNL     1      22.684  51.548  48.305  1.00  0.00    -0.274 OA
BRANCH  28  31
HETATM   31  C   UNL     1      24.976  49.943  48.170  1.00  0.00     0.148 C 
BRANCH  31  32
HETATM   32  C   UNL     1      26.174  49.156  48.707  1.00  0.00     0.186 C 
BRANCH  32  33
HETATM   33  O   UNL     1      25.874  48.382  49.879  1.00  0.00    -0.394 OA
HETATM   34  C   UNL     1      26.470  47.087  49.843  1.00  0.00     0.201 C 
ENDBRANCH  32  33
ENDBRANCH  31  32
ENDBRANCH  28  31
ENDBRANCH  26  27
ENDBRANCH   3  26
BRANCH  11  35
HETATM   35  C   UNL     1      17.711  49.140  46.299  1.00  0.00     0.176 C 
BRANCH  35  36
HETATM   36  O   UNL     1      17.137  49.702  45.126  1.00  0.00    -0.400 OA
HETATM   37  H   UNL     1      16.804  50.583  45.370  1.00  0.00     0.209 HD
ENDBRANCH  35  36
ENDBRANCH  11  35
BRANCH  13  38
HETATM   38  O   UNL     1      18.490  51.646  46.866  1.00  0.00    -0.395 OA
HETATM   39  H   UNL     1      18.812  50.853  46.400  1.00  0.00     0.210 HD
ENDBRANCH  13  38
TORSDOF 10
ENDMDL
MODEL 6
REMARK VINA RESULT:      -6.9     22.640     25.912
REMARK  10 active torsions:
REMARK  status: ('A' for Active; 'I' for Inactive)
REMARK    1  A    between atoms: C_3  and  C_4 
REMARK    2  A    between atoms: C_4  and  C_5 
REMARK       I    between atoms: C_5  and  N_6 
REMARK    3  A    between atoms: N_6  and  C_7 
REMARK    4  A    between atoms: C_7  and  C_8 
REMARK    5  A    between atoms: C_8  and  O_9 
REMARK    6  A    between atoms: C_15  and  N_16 
REMARK       I    between atoms: N_16  and  C_17 
REMARK    7  A    between atoms: C_17  and  C_18 
REMARK    8  A    between atoms: C_28  and  C_29 
REMARK    9  A    between atoms: C_29  and  O_30 
REMARK   10  A    between atoms: C_32  and  O_33 
ROOT
HETATM    1  C   UNL     1      39.753  49.169  64.386  1.00  0.00     0.016 C 
HETATM    2  C   UNL     1      39.702  48.407  65.751  1.00  0.00    -0.030 C 
HETATM    3  C   UNL     1      38.838  47.074  65.592  1.00  0.00     0.056 C 
HETATM    4  C   UNL     1      39.673  45.970  64.977  1.00  0.00     0.056 C 
HETATM    5  C   UNL     1      41.032  46.062  64.755  1.00  0.00     0.012 C 
HETATM    6  S   UNL     1      41.614  44.639  64.034  1.00  0.00    -0.055 SA
HETATM    7  C   UNL     1      40.082  43.919  64.276  1.00  0.00     0.173 C 
HETATM    8  N   UNL     1      39.142  44.710  64.747  1.00  0.00    -0.227 NA
HETATM    9  C   UNL     1      41.908  47.203  65.127  1.00  0.00     0.055 C 
HETATM   10  C   UNL     1      41.198  48.092  66.185  1.00  0.00     0.012 C 
HETATM   11  C   UNL     1      41.403  47.643  67.703  1.00  0.00     0.008 C 
HETATM   12  C   UNL     1      42.804  48.169  68.134  1.00  0.00     0.020 C 
HETATM   13  C   UNL     1      40.351  48.324  68.634  1.00  0.00     0.128 C 
HETATM   14  C   UNL     1      39.817  49.624  68.047  1.00  0.00     0.033 C 
HETATM   15  C   UNL     1      39.018  49.371  66.770  1.00  0.00     0.013 C 
ENDROOT
BRANCH   7  16
HETATM   16  N   UNL     1      39.922  42.560  64.181  1.00  0.00    -0.305 N 
HETATM   17  C   UNL     1      40.391  41.660  65.111  1.00  0.00     0.227 C 
HETATM   18  O   UNL     1      41.404  41.817  65.788  1.00  0.00    -0.273 OA
HETATM   19  H   UNL     1      39.394  42.253  63.373  1.00  0.00     0.171 HD
BRANCH  17  20
HETATM   20  C   UNL     1      39.500  40.419  65.249  1.00  0.00     0.078 C 
HETATM   21  C   UNL     1      38.914  39.964  63.903  1.00  0.00     0.014 C 
HETATM   22  C   UNL     1      39.934  39.295  62.977  1.00  0.00     0.001 C 
HETATM   23  C   UNL     1      40.712  38.186  63.676  1.00  0.00     0.000 C 
HETATM   24  C   UNL     1      41.332  38.666  64.982  1.00  0.00     0.001 C 
HETATM   25  C   UNL     1      40.280  39.270  65.913  1.00  0.00     0.014 C 
ENDBRANCH  17  20
ENDBRANCH   7  16
BRANCH   3  26
HETATM   26  C   UNL     1      37.533  47.306  64.802  1.00  0.00     0.114 C 
BRANCH  26  27
HETATM   27  C   UNL     1      36.546  46.156  64.851  1.00  0.00     0.218 C 
HETATM   28  N   UNL     1      36.359  45.593  66.083  1.00  0.00    -0.359 N 
HETATM   29  H   UNL     1      36.624  46.145  66.903  1.00  0.00     0.162 HD
HETATM   30  O   UNL     1      36.013  45.722  63.831  1.00  0.00    -0.274 OA
BRANCH  28  31
HETATM   31  C   UNL     1      35.506  44.439  66.269  1.00  0.00     0.148 C 
BRANCH  31  32
HETATM   32  C   UNL     1      36.117  43.162  65.686  1.00  0.00     0.186 C 
BRANCH  32  33
HETATM   33  O   UNL     1      35.416  41.967  66.061  1.00  0.00    -0.394 OA
HETATM   34  C   UNL     1      34.119  41.888  65.473  1.00  0.00     0.201 C 
ENDBRANCH  32  33
ENDBRANCH  31  32
ENDBRANCH  28  31
ENDBRANCH  26  27
ENDBRANCH   3  26
BRANCH  11  35
HETATM   35  C   UNL     1      41.385  46.114  67.977  1.00  0.00     0.176 C 
BRANCH  35  36
HETATM   36  O   UNL     1      41.621  45.804  69.345  1.00  0.00    -0.400 OA
HETATM   37  H   UNL     1      40.934  45.169  69.612  1.00  0.00     0.209 HD
ENDBRANCH  35  36
ENDBRANCH  11  35
BRANCH  13  38
HETATM   38  O   UNL     1      39.244  47.455  68.883  1.00  0.00    -0.395 OA
HETATM   39  H   UNL     1      39.594  46.628  69.260  1.00  0.00     0.210 HD
ENDBRANCH  13  38
TORSDOF 10
ENDMDL
MODEL 7
REMARK VINA RESULT:      -6.8      1.584      2.611
REMARK  10 active torsions:
REMARK  status: ('A' for Active; 'I' for Inactive)
REMARK    1  A    between atoms: C_3  and  C_4 
REMARK    2  A    between atoms: C_4  and  C_5 
REMARK       I    between atoms: C_5  and  N_6 
REMARK    3  A    between atoms: N_6  and  C_7 
REMARK    4  A    between atoms: C_7  and  C_8 
REMARK    5  A    between atoms: C_8  and  O_9 
REMARK    6  A    between atoms: C_15  and  N_16 
REMARK       I    between atoms: N_16  and  C_17 
REMARK    7  A    between atoms: C_17  and  C_18 
REMARK    8  A    between atoms: C_28  and  C_29 
REMARK    9  A    between atoms: C_29  and  O_30 
REMARK   10  A    between atoms: C_32  and  O_33 
ROOT
HETATM    1  C   UNL     1      18.956  48.340  45.036  1.00  0.00     0.016 C 
HETATM    2  C   UNL     1      18.432  47.998  46.469  1.00  0.00    -0.030 C 
HETATM    3  C   UNL     1      19.472  47.039  47.209  1.00  0.00     0.056 C 
HETATM    4  C   UNL     1      20.615  47.845  47.791  1.00  0.00     0.056 C 
HETATM    5  C   UNL     1      20.649  49.224  47.825  1.00  0.00     0.012 C 
HETATM    6  S   UNL     1      22.095  49.766  48.532  1.00  0.00    -0.055 SA
HETATM    7  C   UNL     1      22.467  48.150  48.950  1.00  0.00     0.173 C 
HETATM    8  N   UNL     1      21.644  47.233  48.491  1.00  0.00    -0.227 NA
HETATM    9  C   UNL     1      19.574  50.141  47.366  1.00  0.00     0.055 C 
HETATM   10  C   UNL     1      18.232  49.367  47.250  1.00  0.00     0.012 C 
HETATM   11  C   UNL     1      17.374  49.283  48.594  1.00  0.00     0.008 C 
HETATM   12  C   UNL     1      16.629  50.645  48.727  1.00  0.00     0.020 C 
HETATM   13  C   UNL     1      16.282  48.172  48.490  1.00  0.00     0.128 C 
HETATM   14  C   UNL     1      15.899  47.872  47.048  1.00  0.00     0.033 C 
HETATM   15  C   UNL     1      17.069  47.263  46.276  1.00  0.00     0.013 C 
ENDROOT
BRANCH   7  16
HETATM   16  N   UNL     1      23.439  47.870  49.877  1.00  0.00    -0.305 N 
HETATM   17  C   UNL     1      24.369  46.864  49.740  1.00  0.00     0.227 C 
HETATM   18  O   UNL     1      24.172  45.804  49.152  1.00  0.00    -0.273 OA
HETATM   19  H   UNL     1      23.448  48.489  50.678  1.00  0.00     0.171 HD
BRANCH  17  20
HETATM   20  C   UNL     1      25.718  47.201  50.387  1.00  0.00     0.078 C 
HETATM   21  C   UNL     1      25.728  46.933  51.900  1.00  0.00     0.014 C 
HETATM   22  C   UNL     1      25.773  45.446  52.266  1.00  0.00     0.001 C 
HETATM   23  C   UNL     1      26.886  44.702  51.536  1.00  0.00     0.000 C 
HETATM   24  C   UNL     1      26.831  44.936  50.032  1.00  0.00     0.001 C 
HETATM   25  C   UNL     1      26.854  46.427  49.695  1.00  0.00     0.014 C 
ENDBRANCH  17  20
ENDBRANCH   7  16
BRANCH   3  26
HETATM   26  C   UNL     1      19.984  45.906  46.296  1.00  0.00     0.114 C 
BRANCH  26  27
HETATM   27  C   UNL     1      19.043  44.724  46.160  1.00  0.00     0.218 C 
HETATM   28  N   UNL     1      18.615  44.456  44.889  1.00  0.00    -0.359 N 
HETATM   29  H   UNL     1      19.165  44.831  44.113  1.00  0.00     0.162 HD
HETATM   30  O   UNL     1      18.644  44.103  47.144  1.00  0.00    -0.274 OA
BRANCH  28  31
HETATM   31  C   UNL     1      17.656  43.407  44.617  1.00  0.00     0.148 C 
BRANCH  31  32
HETATM   32  C   UNL     1      16.289  43.959  44.206  1.00  0.00     0.186 C 
BRANCH  32  33
HETATM   33  O   UNL     1      16.366  45.161  43.424  1.00  0.00    -0.394 OA
HETATM   34  C   UNL     1      16.323  44.903  42.022  1.00  0.00     0.201 C 
ENDBRANCH  32  33
ENDBRANCH  31  32
ENDBRANCH  28  31
ENDBRANCH  26  27
ENDBRANCH   3  26
BRANCH  11  35
HETATM   35  C   UNL     1      18.171  49.068  49.909  1.00  0.00     0.176 C 
BRANCH  35  36
HETATM   36  O   UNL     1      18.341  50.273  50.645  1.00  0.00    -0.400 OA
HETATM   37  H   UNL     1      19.207  50.213  51.086  1.00  0.00     0.209 HD
ENDBRANCH  35  36
ENDBRANCH  11  35
BRANCH  13  38
HETATM   38  O   UNL     1      16.724  46.958  49.100  1.00  0.00    -0.395 OA
HETATM   39  H   UNL     1      16.491  46.224  48.503  1.00  0.00     0.210 HD
ENDBRANCH  13  38
TORSDOF 10
ENDMDL
MODEL 8
REMARK VINA RESULT:      -6.7      9.084     12.439
REMARK  10 active torsions:
REMARK  status: ('A' for Active; 'I' for Inactive)
REMARK    1  A    between atoms: C_3  and  C_4 
REMARK    2  A    between atoms: C_4  and  C_5 
REMARK       I    between atoms: C_5  and  N_6 
REMARK    3  A    between atoms: N_6  and  C_7 
REMARK    4  A    between atoms: C_7  and  C_8 
REMARK    5  A    between atoms: C_8  and  O_9 
REMARK    6  A    between atoms: C_15  and  N_16 
REMARK       I    between atoms: N_16  and  C_17 
REMARK    7  A    between atoms: C_17  and  C_18 
REMARK    8  A    between atoms: C_28  and  C_29 
REMARK    9  A    between atoms: C_29  and  O_30 
REMARK   10  A    between atoms: C_32  and  O_33 
ROOT
HETATM    1  C   UNL     1      26.272  47.137  36.374  1.00  0.00     0.016 C 
HETATM    2  C   UNL     1      26.596  47.097  37.903  1.00  0.00    -0.030 C 
HETATM    3  C   UNL     1      26.193  48.487  38.576  1.00  0.00     0.056 C 
HETATM    4  C   UNL     1      24.706  48.526  38.865  1.00  0.00     0.056 C 
HETATM    5  C   UNL     1      23.864  47.442  38.725  1.00  0.00     0.012 C 
HETATM    6  S   UNL     1      22.270  47.874  39.120  1.00  0.00    -0.055 SA
HETATM    7  C   UNL     1      22.841  49.391  39.665  1.00  0.00     0.173 C 
HETATM    8  N   UNL     1      24.118  49.633  39.459  1.00  0.00    -0.227 NA
HETATM    9  C   UNL     1      24.262  46.064  38.339  1.00  0.00     0.055 C 
HETATM   10  C   UNL     1      25.792  45.880  38.535  1.00  0.00     0.012 C 
HETATM   11  C   UNL     1      26.244  45.433  39.999  1.00  0.00     0.008 C 
HETATM   12  C   UNL     1      26.002  43.896  40.086  1.00  0.00     0.020 C 
HETATM   13  C   UNL     1      27.772  45.669  40.208  1.00  0.00     0.128 C 
HETATM   14  C   UNL     1      28.540  45.680  38.893  1.00  0.00     0.033 C 
HETATM   15  C   UNL     1      28.135  46.869  38.023  1.00  0.00     0.013 C 
ENDROOT
BRANCH   7  16
HETATM   16  N   UNL     1      22.057  50.197  40.449  1.00  0.00    -0.305 N 
HETATM   17  C   UNL     1      20.995  50.937  39.978  1.00  0.00     0.227 C 
HETATM   18  O   UNL     1      20.925  51.419  38.850  1.00  0.00    -0.273 OA
HETATM   19  H   UNL     1      22.296  50.191  41.433  1.00  0.00     0.171 HD
BRANCH  17  20
HETATM   20  C   UNL     1      19.867  51.091  41.005  1.00  0.00     0.078 C 
HETATM   21  C   UNL     1      18.680  51.899  40.457  1.00  0.00     0.014 C 
HETATM   22  C   UNL     1      17.829  51.137  39.437  1.00  0.00     0.001 C 
HETATM   23  C   UNL     1      17.411  49.761  39.944  1.00  0.00     0.000 C 
HETATM   24  C   UNL     1      18.605  48.951  40.434  1.00  0.00     0.001 C 
HETATM   25  C   UNL     1      19.398  49.711  41.498  1.00  0.00     0.014 C 
ENDBRANCH  17  20
ENDBRANCH   7  16
BRANCH   3  26
HETATM   26  C   UNL     1      26.640  49.702  37.736  1.00  0.00     0.114 C 
BRANCH  26  27
HETATM   27  C   UNL     1      27.433  50.746  38.499  1.00  0.00     0.218 C 
HETATM   28  N   UNL     1      27.195  50.797  39.845  1.00  0.00    -0.359 N 
HETATM   29  H   UNL     1      26.774  49.976  40.285  1.00  0.00     0.162 HD
HETATM   30  O   UNL     1      28.181  51.534  37.922  1.00  0.00    -0.274 OA
BRANCH  28  31
HETATM   31  C   UNL     1      27.822  51.792  40.688  1.00  0.00     0.148 C 
BRANCH  31  32
HETATM   32  C   UNL     1      29.001  51.225  41.483  1.00  0.00     0.186 C 
BRANCH  32  33
HETATM   33  O   UNL     1      28.916  49.809  41.704  1.00  0.00    -0.394 OA
HETATM   34  C   UNL     1      30.144  49.256  42.172  1.00  0.00     0.201 C 
ENDBRANCH  32  33
ENDBRANCH  31  32
ENDBRANCH  28  31
ENDBRANCH  26  27
ENDBRANCH   3  26
BRANCH  11  35
HETATM   35  C   UNL     1      25.479  46.083  41.185  1.00  0.00     0.176 C 
BRANCH  35  36
HETATM   36  O   UNL     1      25.877  45.554  42.444  1.00  0.00    -0.400 OA
HETATM   37  H   UNL     1      26.180  44.643  42.283  1.00  0.00     0.209 HD
ENDBRANCH  35  36
ENDBRANCH  11  35
BRANCH  13  38
HETATM   38  O   UNL     1      28.016  46.906  40.881  1.00  0.00    -0.395 OA
HETATM   39  H   UNL     1      28.738  46.761  41.519  1.00  0.00     0.210 HD
ENDBRANCH  13  38
TORSDOF 10
ENDMDL
MODEL 9
REMARK VINA RESULT:      -6.7     10.142     12.365
REMARK  10 active torsions:
REMARK  status: ('A' for Active; 'I' for Inactive)
REMARK    1  A    between atoms: C_3  and  C_4 
REMARK    2  A    between atoms: C_4  and  C_5 
REMARK       I    between atoms: C_5  and  N_6 
REMARK    3  A    between atoms: N_6  and  C_7 
REMARK    4  A    between atoms: C_7  and  C_8 
REMARK    5  A    between atoms: C_8  and  O_9 
REMARK    6  A    between atoms: C_15  and  N_16 
REMARK       I    between atoms: N_16  and  C_17 
REMARK    7  A    between atoms: C_17  and  C_18 
REMARK    8  A    between atoms: C_28  and  C_29 
REMARK    9  A    between atoms: C_29  and  O_30 
REMARK   10  A    between atoms: C_32  and  O_33 
ROOT
HETATM    1  C   UNL     1      25.372  45.373  41.832  1.00  0.00     0.016 C 
HETATM    2  C   UNL     1      25.559  45.503  40.285  1.00  0.00    -0.030 C 
HETATM    3  C   UNL     1      25.129  46.966  39.811  1.00  0.00     0.056 C 
HETATM    4  C   UNL     1      26.251  47.954  40.055  1.00  0.00     0.056 C 
HETATM    5  C   UNL     1      27.519  47.597  40.464  1.00  0.00     0.012 C 
HETATM    6  S   UNL     1      28.494  48.975  40.651  1.00  0.00    -0.055 SA
HETATM    7  C   UNL     1      27.246  49.920  39.962  1.00  0.00     0.173 C 
HETATM    8  N   UNL     1      26.117  49.292  39.716  1.00  0.00    -0.227 NA
HETATM    9  C   UNL     1      28.018  46.213  40.671  1.00  0.00     0.055 C 
HETATM   10  C   UNL     1      27.083  45.200  39.955  1.00  0.00     0.012 C 
HETATM   11  C   UNL     1      27.422  44.926  38.419  1.00  0.00     0.008 C 
HETATM   12  C   UNL     1      28.606  43.914  38.402  1.00  0.00     0.020 C 
HETATM   13  C   UNL     1      26.221  44.239  37.696  1.00  0.00     0.128 C 
HETATM   14  C   UNL     1      25.321  43.482  38.664  1.00  0.00     0.033 C 
HETATM   15  C   UNL     1      24.625  44.434  39.636  1.00  0.00     0.013 C 
ENDROOT
BRANCH   7  16
HETATM   16  N   UNL     1      27.497  51.190  39.508  1.00  0.00    -0.305 N 
HETATM   17  C   UNL     1      28.118  52.168  40.253  1.00  0.00     0.227 C 
HETATM   18  O   UNL     1      28.039  52.273  41.474  1.00  0.00    -0.273 OA
HETATM   19  H   UNL     1      27.214  51.359  38.550  1.00  0.00     0.171 HD
BRANCH  17  20
HETATM   20  C   UNL     1      28.958  53.128  39.402  1.00  0.00     0.078 C 
HETATM   21  C   UNL     1      30.075  53.806  40.211  1.00  0.00     0.014 C 
HETATM   22  C   UNL     1      31.243  52.876  40.555  1.00  0.00     0.001 C 
HETATM   23  C   UNL     1      31.777  52.137  39.333  1.00  0.00     0.000 C 
HETATM   24  C   UNL     1      30.665  51.427  38.571  1.00  0.00     0.001 C 
HETATM   25  C   UNL     1      29.545  52.392  38.184  1.00  0.00     0.014 C 
ENDBRANCH  17  20
ENDBRANCH   7  16
BRANCH   3  26
HETATM   26  C   UNL     1      23.809  47.433  40.460  1.00  0.00     0.114 C 
BRANCH  26  27
HETATM   27  C   UNL     1      22.948  48.320  39.581  1.00  0.00     0.218 C 
HETATM   28  N   UNL     1      22.861  49.629  39.971  1.00  0.00    -0.359 N 
HETATM   29  H   UNL     1      23.587  49.988  40.596  1.00  0.00     0.162 HD
HETATM   30  O   UNL     1      22.318  47.865  38.628  1.00  0.00    -0.274 OA
BRANCH  28  31
HETATM   31  C   UNL     1      22.015  50.574  39.274  1.00  0.00     0.148 C 
BRANCH  31  32
HETATM   32  C   UNL     1      21.364  51.583  40.223  1.00  0.00     0.186 C 
BRANCH  32  33
HETATM   33  O   UNL     1      20.626  50.973  41.293  1.00  0.00    -0.394 OA
HETATM   34  C   UNL     1      19.288  51.458  41.378  1.00  0.00     0.201 C 
ENDBRANCH  32  33
ENDBRANCH  31  32
ENDBRANCH  28  31
ENDBRANCH  26  27
ENDBRANCH   3  26
BRANCH  11  35
HETATM   35  C   UNL     1      27.861  46.157  37.579  1.00  0.00     0.176 C 
BRANCH  35  36
HETATM   36  O   UNL     1      29.273  46.238  37.432  1.00  0.00    -0.400 OA
HETATM   37  H   UNL     1      29.626  45.349  37.614  1.00  0.00     0.209 HD
ENDBRANCH  35  36
ENDBRANCH  11  35
BRANCH  13  38
HETATM   38  O   UNL     1      25.424  45.196  36.997  1.00  0.00    -0.395 OA
HETATM   39  H   UNL     1      24.884  44.714  36.345  1.00  0.00     0.210 HD
ENDBRANCH  13  38
TORSDOF 10
ENDMDL
MODEL 10
REMARK VINA RESULT:      -6.5     16.154     19.707
REMARK  10 active torsions:
REMARK  status: ('A' for Active; 'I' for Inactive)
REMARK    1  A    between atoms: C_3  and  C_4 
REMARK    2  A    between atoms: C_4  and  C_5 
REMARK       I    between atoms: C_5  and  N_6 
REMARK    3  A    between atoms: N_6  and  C_7 
REMARK    4  A    between atoms: C_7  and  C_8 
REMARK    5  A    between atoms: C_8  and  O_9 
REMARK    6  A    between atoms: C_15  and  N_16 
REMARK       I    between atoms: N_16  and  C_17 
REMARK    7  A    between atoms: C_17  and  C_18 
REMARK    8  A    between atoms: C_28  and  C_29 
REMARK    9  A    between atoms: C_29  and  O_30 
REMARK   10  A    between atoms: C_32  and  O_33 
ROOT
HETATM    1  C   UNL     1      40.706  53.100  40.990  1.00  0.00     0.016 C 
HETATM    2  C   UNL     1      39.986  54.142  41.906  1.00  0.00    -0.030 C 
HETATM    3  C   UNL     1      38.465  54.301  41.448  1.00  0.00     0.056 C 
HETATM    4  C   UNL     1      37.619  53.179  42.014  1.00  0.00     0.056 C 
HETATM    5  C   UNL     1      38.074  52.259  42.937  1.00  0.00     0.012 C 
HETATM    6  S   UNL     1      36.851  51.146  43.318  1.00  0.00    -0.055 SA
HETATM    7  C   UNL     1      35.744  52.090  42.418  1.00  0.00     0.173 C 
HETATM    8  N   UNL     1      36.258  53.107  41.761  1.00  0.00    -0.227 NA
HETATM    9  C   UNL     1      39.418  52.242  43.570  1.00  0.00     0.055 C 
HETATM   10  C   UNL     1      40.100  53.628  43.405  1.00  0.00     0.012 C 
HETATM   11  C   UNL     1      39.752  54.699  44.537  1.00  0.00     0.008 C 
HETATM   12  C   UNL     1      40.649  54.353  45.763  1.00  0.00     0.020 C 
HETATM   13  C   UNL     1      40.137  56.140  44.079  1.00  0.00     0.128 C 
HETATM   14  C   UNL     1      41.231  56.136  43.019  1.00  0.00     0.033 C 
HETATM   15  C   UNL     1      40.746  55.492  41.721  1.00  0.00     0.013 C 
ENDROOT
BRANCH   7  16
HETATM   16  N   UNL     1      34.392  51.909  42.557  1.00  0.00    -0.305 N 
HETATM   17  C   UNL     1      33.747  50.710  42.348  1.00  0.00     0.227 C 
HETATM   18  O   UNL     1      34.105  49.855  41.542  1.00  0.00    -0.273 OA
HETATM   19  H   UNL     1      33.885  52.731  42.861  1.00  0.00     0.171 HD
BRANCH  17  20
HETATM   20  C   UNL     1      32.523  50.521  43.251  1.00  0.00     0.078 C 
HETATM   21  C   UNL     1      31.799  51.845  43.544  1.00  0.00     0.014 C 
HETATM   22  C   UNL     1      31.004  52.393  42.355  1.00  0.00     0.001 C 
HETATM   23  C   UNL     1      30.079  51.347  41.744  1.00  0.00     0.000 C 
HETATM   24  C   UNL     1      30.821  50.060  41.410  1.00  0.00     0.001 C 
HETATM   25  C   UNL     1      31.551  49.501  42.632  1.00  0.00     0.014 C 
ENDBRANCH  17  20
ENDBRANCH   7  16
BRANCH   3  26
HETATM   26  C   UNL     1      38.317  54.405  39.915  1.00  0.00     0.114 C 
BRANCH  26  27
HETATM   27  C   UNL     1      37.373  55.493  39.439  1.00  0.00     0.218 C 
HETATM   28  N   UNL     1      36.043  55.246  39.638  1.00  0.00    -0.359 N 
HETATM   29  H   UNL     1      35.788  54.545  40.338  1.00  0.00     0.162 HD
HETATM   30  O   UNL     1      37.786  56.491  38.852  1.00  0.00    -0.274 OA
BRANCH  28  31
HETATM   31  C   UNL     1      35.023  56.158  39.167  1.00  0.00     0.148 C 
BRANCH  31  32
HETATM   32  C   UNL     1      34.695  57.246  40.193  1.00  0.00     0.186 C 
BRANCH  32  33
HETATM   33  O   UNL     1      33.515  57.999  39.874  1.00  0.00    -0.394 OA
HETATM   34  C   UNL     1      32.569  58.008  40.941  1.00  0.00     0.201 C 
ENDBRANCH  32  33
ENDBRANCH  31  32
ENDBRANCH  28  31
ENDBRANCH  26  27
ENDBRANCH   3  26
BRANCH  11  35
HETATM   35  C   UNL     1      38.281  54.719  45.038  1.00  0.00     0.176 C 
BRANCH  35  36
HETATM   36  O   UNL     1      38.081  55.648  46.096  1.00  0.00    -0.400 OA
HETATM   37  H   UNL     1      37.261  56.132  45.894  1.00  0.00     0.209 HD
ENDBRANCH  35  36
ENDBRANCH  11  35
BRANCH  13  38
HETATM   38  O   UNL     1      39.005  56.834  43.553  1.00  0.00    -0.395 OA
HETATM   39  H   UNL     1      38.846  56.503  42.650  1.00  0.00     0.210 HD
ENDBRANCH  13  38
TORSDOF 10
ENDMDL
