MODEL 1
REMARK VINA RESULT:      -7.5      0.000      0.000
REMARK  10 active torsions:
REMARK  status: ('A' for Active; 'I' for Inactive)
REMARK    1  A    between atoms: C_3  and  N_4 
REMARK    2  A    between atoms: C_5  and  S_6 
REMARK    3  A    between atoms: S_6  and  C_7 
REMARK    4  A    between atoms: C_7  and  C_8 
REMARK       I    between atoms: C_8  and  N_9 
REMARK    5  A    between atoms: N_9  and  C_10 
REMARK    6  A    between atoms: C_10  and  C_11 
REMARK    7  A    between atoms: C_11  and  C_12 
REMARK    8  A    between atoms: C_15  and  S_16 
REMARK    9  A    between atoms: S_16  and  N_17 
REMARK   10  A    between atoms: C_26  and  N_27 
ROOT
HETATM    1  N   UNL     1      26.451  48.814  39.671  1.00  0.00    -0.275 N 
HETATM    2  C   UNL     1      26.502  48.961  38.317  1.00  0.00     0.177 A 
HETATM    3  N   UNL     1      27.061  50.010  37.671  1.00  0.00    -0.204 NA
HETATM    4  C   UNL     1      27.678  50.839  38.512  1.00  0.00     0.162 A 
HETATM    5  C   UNL     1      27.729  50.740  39.886  1.00  0.00     0.081 A 
HETATM    6  C   UNL     1      27.050  49.690  40.527  1.00  0.00     0.124 A 
HETATM    7  N   UNL     1      28.391  51.951  38.167  1.00  0.00    -0.260 N 
HETATM    8  H   UNL     1      28.559  52.322  37.238  1.00  0.00     0.191 HD
HETATM    9  N   UNL     1      28.918  52.587  39.223  1.00  0.00    -0.177 NA
HETATM   10  C   UNL     1      28.531  51.855  40.276  1.00  0.00     0.068 A 
HETATM   11  C   UNL     1      28.961  52.266  41.639  1.00  0.00     0.073 C 
ENDROOT
BRANCH   2  12
HETATM   12  S   UNL     1      25.775  47.730  37.218  1.00  0.00    -0.082 SA
BRANCH  12  13
HETATM   13  C   UNL     1      27.270  46.819  36.716  1.00  0.00     0.185 C 
BRANCH  13  14
HETATM   14  C   UNL     1      27.522  45.573  37.560  1.00  0.00     0.227 C 
HETATM   15  N   UNL     1      28.723  45.502  38.225  1.00  0.00    -0.360 N 
HETATM   16  H   UNL     1      28.819  44.687  38.823  1.00  0.00     0.162 HD
HETATM   17  O   UNL     1      26.705  44.657  37.676  1.00  0.00    -0.273 OA
BRANCH  15  18
HETATM   18  C   UNL     1      29.650  46.610  38.391  1.00  0.00     0.127 C 
BRANCH  18  19
HETATM   19  C   UNL     1      29.939  46.965  39.850  1.00  0.00     0.058 C 
BRANCH  19  20
HETATM   20  C   UNL     1      30.618  48.313  39.919  1.00  0.00    -0.057 A 
HETATM   21  C   UNL     1      30.849  49.051  38.748  1.00  0.00     0.009 A 
HETATM   22  C   UNL     1      31.578  50.241  38.795  1.00  0.00     0.025 A 
HETATM   23  C   UNL     1      32.073  50.700  40.017  1.00  0.00     0.074 A 
HETATM   24  C   UNL     1      31.841  49.982  41.193  1.00  0.00     0.025 A 
HETATM   25  C   UNL     1      31.111  48.794  41.142  1.00  0.00     0.009 A 
BRANCH  23  26
HETATM   26  S   UNL     1      33.098  52.144  40.058  1.00  0.00     0.239 S 
HETATM   27  O   UNL     1      33.958  52.075  41.215  1.00  0.00    -0.206 OA
HETATM   28  O   UNL     1      33.608  52.387  38.728  1.00  0.00    -0.206 OA
BRANCH  26  29
HETATM   29  N   UNL     1      31.986  53.360  40.367  1.00  0.00    -0.225 NA
HETATM   30  H   UNL     1      31.137  52.961  40.769  1.00  0.00     0.136 HD
HETATM   31  H   UNL     1      32.412  54.081  40.952  1.00  0.00     0.136 HD
ENDBRANCH  26  29
ENDBRANCH  23  26
ENDBRANCH  19  20
ENDBRANCH  18  19
ENDBRANCH  15  18
ENDBRANCH  13  14
ENDBRANCH  12  13
ENDBRANCH   2  12
BRANCH   1  32
HETATM   32  C   UNL     1      25.756  47.687  40.234  1.00  0.00     0.051 A 
HETATM   33  C   UNL     1      24.358  47.728  40.386  1.00  0.00    -0.035 A 
HETATM   34  C   UNL     1      23.498  48.864  39.909  1.00  0.00     0.050 C 
HETATM   35  C   UNL     1      23.740  46.613  40.969  1.00  0.00     0.011 A 
HETATM   36  C   UNL     1      24.501  45.530  41.421  1.00  0.00     0.024 A 
HETATM   37  C   UNL     1      25.888  45.537  41.282  1.00  0.00     0.036 A 
HETATM   38  C   UNL     1      26.532  46.615  40.684  1.00  0.00     0.054 A 
HETATM   39 CL   UNL     1      26.813  44.213  41.865  1.00  0.00    -0.084 Cl
ENDBRANCH   1  32
BRANCH   6  40
HETATM   40  N   UNL     1      26.990  49.564  41.909  1.00  0.00    -0.384 N 
HETATM   41  H   UNL     1      27.472  50.246  42.485  1.00  0.00     0.157 HD
HETATM   42  H   UNL     1      26.240  49.072  42.378  1.00  0.00     0.157 HD
ENDBRANCH   6  40
TORSDOF 10
ENDMDL
MODEL 2
REMARK VINA RESULT:      -7.1      2.136      2.792
REMARK  10 active torsions:
REMARK  status: ('A' for Active; 'I' for Inactive)
REMARK    1  A    between atoms: C_3  and  N_4 
REMARK    2  A    between atoms: C_5  and  S_6 
REMARK    3  A    between atoms: S_6  and  C_7 
REMARK    4  A    between atoms: C_7  and  C_8 
REMARK       I    between atoms: C_8  and  N_9 
REMARK    5  A    between atoms: N_9  and  C_10 
REMARK    6  A    between atoms: C_10  and  C_11 
REMARK    7  A    between atoms: C_11  and  C_12 
REMARK    8  A    between atoms: C_15  and  S_16 
REMARK    9  A    between atoms: S_16  and  N_17 
REMARK   10  A    between atoms: C_26  and  N_27 
ROOT
HETATM    1  N   UNL     1      26.821  49.542  39.201  1.00  0.00    -0.275 N 
HETATM    2  C   UNL     1      27.530  48.901  38.229  1.00  0.00     0.177 A 
HETATM    3  N   UNL     1      28.759  49.265  37.798  1.00  0.00    -0.204 NA
HETATM    4  C   UNL     1      29.265  50.262  38.524  1.00  0.00     0.162 A 
HETATM    5  C   UNL     1      28.647  50.929  39.560  1.00  0.00     0.081 A 
HETATM    6  C   UNL     1      27.330  50.588  39.912  1.00  0.00     0.124 A 
HETATM    7  N   UNL     1      30.508  50.809  38.384  1.00  0.00    -0.260 N 
HETATM    8  H   UNL     1      31.230  50.557  37.716  1.00  0.00     0.191 HD
HETATM    9  N   UNL     1      30.754  51.788  39.265  1.00  0.00    -0.177 NA
HETATM   10  C   UNL     1      29.634  51.866  39.994  1.00  0.00     0.068 A 
HETATM   11  C   UNL     1      29.559  52.854  41.103  1.00  0.00     0.073 C 
ENDROOT
BRANCH   2  12
HETATM   12  S   UNL     1      26.853  47.463  37.376  1.00  0.00    -0.082 SA
BRANCH  12  13
HETATM   13  C   UNL     1      28.311  46.371  37.373  1.00  0.00     0.185 C 
BRANCH  13  14
HETATM   14  C   UNL     1      28.293  45.349  38.506  1.00  0.00     0.227 C 
HETATM   15  N   UNL     1      29.226  45.508  39.503  1.00  0.00    -0.360 N 
HETATM   16  H   UNL     1      29.135  44.843  40.267  1.00  0.00     0.162 HD
HETATM   17  O   UNL     1      27.488  44.418  38.566  1.00  0.00    -0.273 OA
BRANCH  15  18
HETATM   18  C   UNL     1      30.047  46.692  39.696  1.00  0.00     0.127 C 
BRANCH  18  19
HETATM   19  C   UNL     1      29.629  47.550  40.891  1.00  0.00     0.058 C 
BRANCH  19  20
HETATM   20  C   UNL     1      30.796  48.398  41.339  1.00  0.00    -0.057 A 
HETATM   21  C   UNL     1      30.652  49.295  42.408  1.00  0.00     0.009 A 
HETATM   22  C   UNL     1      31.692  50.163  42.749  1.00  0.00     0.025 A 
HETATM   23  C   UNL     1      32.884  50.130  42.022  1.00  0.00     0.074 A 
HETATM   24  C   UNL     1      33.047  49.235  40.963  1.00  0.00     0.025 A 
HETATM   25  C   UNL     1      32.006  48.369  40.626  1.00  0.00     0.009 A 
BRANCH  23  26
HETATM   26  S   UNL     1      34.155  51.311  42.377  1.00  0.00     0.239 S 
HETATM   27  O   UNL     1      34.403  52.103  41.194  1.00  0.00    -0.206 OA
HETATM   28  O   UNL     1      33.887  51.908  43.665  1.00  0.00    -0.206 OA
BRANCH  26  29
HETATM   29  N   UNL     1      35.502  50.334  42.580  1.00  0.00    -0.225 NA
HETATM   30  H   UNL     1      35.717  50.239  43.574  1.00  0.00     0.136 HD
HETATM   31  H   UNL     1      35.358  49.439  42.109  1.00  0.00     0.136 HD
ENDBRANCH  26  29
ENDBRANCH  23  26
ENDBRANCH  19  20
ENDBRANCH  18  19
ENDBRANCH  15  18
ENDBRANCH  13  14
ENDBRANCH  12  13
ENDBRANCH   2  12
BRANCH   1  32
HETATM   32  C   UNL     1      25.488  49.098  39.512  1.00  0.00     0.051 A 
HETATM   33  C   UNL     1      25.295  48.002  40.374  1.00  0.00    -0.035 A 
HETATM   34  C   UNL     1      26.412  47.293  41.085  1.00  0.00     0.050 C 
HETATM   35  C   UNL     1      23.976  47.596  40.614  1.00  0.00     0.011 A 
HETATM   36  C   UNL     1      22.905  48.233  39.979  1.00  0.00     0.024 A 
HETATM   37  C   UNL     1      23.136  49.296  39.107  1.00  0.00     0.036 A 
HETATM   38  C   UNL     1      24.431  49.743  38.865  1.00  0.00     0.054 A 
HETATM   39 CL   UNL     1      21.815  50.053  38.312  1.00  0.00    -0.084 Cl
ENDBRANCH   1  32
BRANCH   6  40
HETATM   40  N   UNL     1      26.613  51.263  40.891  1.00  0.00    -0.384 N 
HETATM   41  H   UNL     1      26.830  52.236  41.075  1.00  0.00     0.157 HD
HETATM   42  H   UNL     1      25.686  50.977  41.180  1.00  0.00     0.157 HD
ENDBRANCH   6  40
TORSDOF 10
ENDMDL
MODEL 3
REMARK VINA RESULT:      -7.1      3.404      5.990
REMARK  10 active torsions:
REMARK  status: ('A' for Active; 'I' for Inactive)
REMARK    1  A    between atoms: C_3  and  N_4 
REMARK    2  A    between atoms: C_5  and  S_6 
REMARK    3  A    between atoms: S_6  and  C_7 
REMARK    4  A    between atoms: C_7  and  C_8 
REMARK       I    between atoms: C_8  and  N_9 
REMARK    5  A    between atoms: N_9  and  C_10 
REMARK    6  A    between atoms: C_10  and  C_11 
REMARK    7  A    between atoms: C_11  and  C_12 
REMARK    8  A    between atoms: C_15  and  S_16 
REMARK    9  A    between atoms: S_16  and  N_17 
REMARK   10  A    between atoms: C_26  and  N_27 
ROOT
HETATM    1  N   UNL     1      28.772  49.422  39.678  1.00  0.00    -0.275 N 
HETATM    2  C   UNL     1      28.804  50.405  38.734  1.00  0.00     0.177 A 
HETATM    3  N   UNL     1      27.741  50.814  38.005  1.00  0.00    -0.204 NA
HETATM    4  C   UNL     1      26.611  50.230  38.402  1.00  0.00     0.162 A 
HETATM    5  C   UNL     1      26.475  49.272  39.385  1.00  0.00     0.081 A 
HETATM    6  C   UNL     1      27.618  48.799  40.050  1.00  0.00     0.124 A 
HETATM    7  N   UNL     1      25.361  50.478  37.913  1.00  0.00    -0.260 N 
HETATM    8  H   UNL     1      25.095  51.128  37.181  1.00  0.00     0.191 HD
HETATM    9  N   UNL     1      24.407  49.754  38.515  1.00  0.00    -0.177 NA
HETATM   10  C   UNL     1      25.069  49.022  39.420  1.00  0.00     0.068 A 
HETATM   11  C   UNL     1      24.306  48.098  40.300  1.00  0.00     0.073 C 
ENDROOT
BRANCH   2  12
HETATM   12  S   UNL     1      30.338  51.267  38.337  1.00  0.00    -0.082 SA
BRANCH  12  13
HETATM   13  C   UNL     1      30.064  52.838  39.217  1.00  0.00     0.185 C 
BRANCH  13  14
HETATM   14  C   UNL     1      30.754  52.888  40.577  1.00  0.00     0.227 C 
HETATM   15  N   UNL     1      32.123  52.764  40.587  1.00  0.00    -0.360 N 
HETATM   16  H   UNL     1      32.543  52.867  41.507  1.00  0.00     0.162 HD
HETATM   17  O   UNL     1      30.148  53.044  41.638  1.00  0.00    -0.273 OA
BRANCH  15  18
HETATM   18  C   UNL     1      32.976  52.842  39.412  1.00  0.00     0.127 C 
BRANCH  18  19
HETATM   19  C   UNL     1      33.880  51.624  39.218  1.00  0.00     0.058 C 
BRANCH  19  20
HETATM   20  C   UNL     1      34.939  51.604  40.296  1.00  0.00    -0.057 A 
HETATM   21  C   UNL     1      34.946  50.587  41.263  1.00  0.00     0.009 A 
HETATM   22  C   UNL     1      35.851  50.630  42.327  1.00  0.00     0.025 A 
HETATM   23  C   UNL     1      36.757  51.689  42.421  1.00  0.00     0.074 A 
HETATM   24  C   UNL     1      36.769  52.702  41.459  1.00  0.00     0.025 A 
HETATM   25  C   UNL     1      35.864  52.655  40.398  1.00  0.00     0.009 A 
BRANCH  23  26
HETATM   26  S   UNL     1      37.821  51.805  43.832  1.00  0.00     0.239 S 
HETATM   27  O   UNL     1      39.084  52.370  43.420  1.00  0.00    -0.206 OA
HETATM   28  O   UNL     1      37.062  52.333  44.942  1.00  0.00    -0.206 OA
BRANCH  26  29
HETATM   29  N   UNL     1      38.118  50.194  44.186  1.00  0.00    -0.225 NA
HETATM   30  H   UNL     1      38.504  50.109  45.128  1.00  0.00     0.136 HD
HETATM   31  H   UNL     1      37.270  49.643  44.044  1.00  0.00     0.136 HD
ENDBRANCH  26  29
ENDBRANCH  23  26
ENDBRANCH  19  20
ENDBRANCH  18  19
ENDBRANCH  15  18
ENDBRANCH  13  14
ENDBRANCH  12  13
ENDBRANCH   2  12
BRANCH   1  32
HETATM   32  C   UNL     1      29.994  49.027  40.328  1.00  0.00     0.051 A 
HETATM   33  C   UNL     1      30.698  47.897  39.873  1.00  0.00    -0.035 A 
HETATM   34  C   UNL     1      30.303  47.096  38.665  1.00  0.00     0.050 C 
HETATM   35  C   UNL     1      31.864  47.543  40.566  1.00  0.00     0.011 A 
HETATM   36  C   UNL     1      32.274  48.265  41.692  1.00  0.00     0.024 A 
HETATM   37  C   UNL     1      31.533  49.361  42.132  1.00  0.00     0.036 A 
HETATM   38  C   UNL     1      30.385  49.757  41.454  1.00  0.00     0.054 A 
HETATM   39 CL   UNL     1      32.031  50.223  43.531  1.00  0.00    -0.084 Cl
ENDBRANCH   1  32
BRANCH   6  40
HETATM   40  N   UNL     1      27.573  47.784  40.997  1.00  0.00    -0.384 N 
HETATM   41  H   UNL     1      27.105  46.915  40.762  1.00  0.00     0.157 HD
HETATM   42  H   UNL     1      28.251  47.708  41.745  1.00  0.00     0.157 HD
ENDBRANCH   6  40
TORSDOF 10
ENDMDL
MODEL 4
REMARK VINA RESULT:      -7.1     10.712     13.647
REMARK  10 active torsions:
REMARK  status: ('A' for Active; 'I' for Inactive)
REMARK    1  A    between atoms: C_3  and  N_4 
REMARK    2  A    between atoms: C_5  and  S_6 
REMARK    3  A    between atoms: S_6  and  C_7 
REMARK    4  A    between atoms: C_7  and  C_8 
REMARK       I    between atoms: C_8  and  N_9 
REMARK    5  A    between atoms: N_9  and  C_10 
REMARK    6  A    between atoms: C_10  and  C_11 
REMARK    7  A    between atoms: C_11  and  C_12 
REMARK    8  A    between atoms: C_15  and  S_16 
REMARK    9  A    between atoms: S_16  and  N_17 
REMARK   10  A    between atoms: C_26  and  N_27 
ROOT
HETATM    1  N   UNL     1      25.936  43.912  50.755  1.00  0.00    -0.275 N 
HETATM    2  C   UNL     1      25.802  45.138  50.173  1.00  0.00     0.177 A 
HETATM    3  N   UNL     1      25.180  45.374  48.996  1.00  0.00    -0.204 NA
HETATM    4  C   UNL     1      24.593  44.278  48.516  1.00  0.00     0.162 A 
HETATM    5  C   UNL     1      24.624  43.013  49.064  1.00  0.00     0.081 A 
HETATM    6  C   UNL     1      25.366  42.788  50.235  1.00  0.00     0.124 A 
HETATM    7  N   UNL     1      23.832  44.202  47.384  1.00  0.00    -0.260 N 
HETATM    8  H   UNL     1      23.601  44.948  46.736  1.00  0.00     0.191 HD
HETATM    9  N   UNL     1      23.353  42.972  47.154  1.00  0.00    -0.177 NA
HETATM   10  C   UNL     1      23.819  42.240  48.173  1.00  0.00     0.068 A 
HETATM   11  C   UNL     1      23.459  40.799  48.252  1.00  0.00     0.073 C 
ENDROOT
BRANCH   2  12
HETATM   12  S   UNL     1      26.494  46.615  50.943  1.00  0.00    -0.082 SA
BRANCH  12  13
HETATM   13  C   UNL     1      25.512  47.905  50.112  1.00  0.00     0.185 C 
BRANCH  13  14
HETATM   14  C   UNL     1      26.352  48.808  49.214  1.00  0.00     0.227 C 
HETATM   15  N   UNL     1      25.687  49.509  48.237  1.00  0.00    -0.360 N 
HETATM   16  H   UNL     1      26.276  50.144  47.706  1.00  0.00     0.162 HD
HETATM   17  O   UNL     1      27.571  48.940  49.337  1.00  0.00    -0.273 OA
BRANCH  15  18
HETATM   18  C   UNL     1      24.242  49.653  48.151  1.00  0.00     0.127 C 
BRANCH  18  19
HETATM   19  C   UNL     1      23.695  50.870  48.898  1.00  0.00     0.058 C 
BRANCH  19  20
HETATM   20  C   UNL     1      22.184  50.818  48.913  1.00  0.00    -0.057 A 
HETATM   21  C   UNL     1      21.469  50.650  47.717  1.00  0.00     0.009 A 
HETATM   22  C   UNL     1      20.074  50.719  47.713  1.00  0.00     0.025 A 
HETATM   23  C   UNL     1      19.390  50.949  48.908  1.00  0.00     0.074 A 
HETATM   24  C   UNL     1      20.088  51.106  50.107  1.00  0.00     0.025 A 
HETATM   25  C   UNL     1      21.481  51.036  50.109  1.00  0.00     0.009 A 
BRANCH  23  26
HETATM   26  S   UNL     1      17.631  51.154  48.882  1.00  0.00     0.239 S 
HETATM   27  O   UNL     1      17.039  50.031  48.194  1.00  0.00    -0.206 OA
HETATM   28  O   UNL     1      17.194  51.577  50.192  1.00  0.00    -0.206 OA
BRANCH  26  29
HETATM   29  N   UNL     1      17.443  52.478  47.870  1.00  0.00    -0.225 NA
HETATM   30  H   UNL     1      16.561  52.405  47.360  1.00  0.00     0.136 HD
HETATM   31  H   UNL     1      17.531  53.342  48.406  1.00  0.00     0.136 HD
ENDBRANCH  26  29
ENDBRANCH  23  26
ENDBRANCH  19  20
ENDBRANCH  18  19
ENDBRANCH  15  18
ENDBRANCH  13  14
ENDBRANCH  12  13
ENDBRANCH   2  12
BRANCH   1  32
HETATM   32  C   UNL     1      26.690  43.787  51.973  1.00  0.00     0.051 A 
HETATM   33  C   UNL     1      26.085  44.085  53.208  1.00  0.00    -0.035 A 
HETATM   34  C   UNL     1      24.636  44.452  53.362  1.00  0.00     0.050 C 
HETATM   35  C   UNL     1      26.879  43.976  54.358  1.00  0.00     0.011 A 
HETATM   36  C   UNL     1      28.231  43.629  54.263  1.00  0.00     0.024 A 
HETATM   37  C   UNL     1      28.805  43.371  53.018  1.00  0.00     0.036 A 
HETATM   38  C   UNL     1      28.041  43.445  51.859  1.00  0.00     0.054 A 
HETATM   39 CL   UNL     1      30.472  42.973  52.912  1.00  0.00    -0.084 Cl
ENDBRANCH   1  32
BRANCH   6  40
HETATM   40  N   UNL     1      25.510  41.530  50.805  1.00  0.00    -0.384 N 
HETATM   41  H   UNL     1      24.680  41.026  51.100  1.00  0.00     0.157 HD
HETATM   42  H   UNL     1      26.318  40.944  50.633  1.00  0.00     0.157 HD
ENDBRANCH   6  40
TORSDOF 10
ENDMDL
MODEL 5
REMARK VINA RESULT:      -7.0      3.486      5.931
REMARK  10 active torsions:
REMARK  status: ('A' for Active; 'I' for Inactive)
REMARK    1  A    between atoms: C_3  and  N_4 
REMARK    2  A    between atoms: C_5  and  S_6 
REMARK    3  A    between atoms: S_6  and  C_7 
REMARK    4  A    between atoms: C_7  and  C_8 
REMARK       I    between atoms: C_8  and  N_9 
REMARK    5  A    between atoms: N_9  and  C_10 
REMARK    6  A    between atoms: C_10  and  C_11 
REMARK    7  A    between atoms: C_11  and  C_12 
REMARK    8  A    between atoms: C_15  and  S_16 
REMARK    9  A    between atoms: S_16  and  N_17 
REMARK   10  A    between atoms: C_26  and  N_27 
ROOT
HETATM    1  N   UNL     1      28.674  50.220  39.867  1.00  0.00    -0.275 N 
HETATM    2  C   UNL     1      29.380  49.202  39.298  1.00  0.00     0.177 A 
HETATM    3  N   UNL     1      28.849  48.036  38.867  1.00  0.00    -0.204 NA
HETATM    4  C   UNL     1      27.519  48.036  38.947  1.00  0.00     0.162 A 
HETATM    5  C   UNL     1      26.719  49.040  39.451  1.00  0.00     0.081 A 
HETATM    6  C   UNL     1      27.316  50.195  39.982  1.00  0.00     0.124 A 
HETATM    7  N   UNL     1      26.687  47.037  38.530  1.00  0.00    -0.260 N 
HETATM    8  H   UNL     1      26.939  46.150  38.107  1.00  0.00     0.191 HD
HETATM    9  N   UNL     1      25.390  47.319  38.718  1.00  0.00    -0.177 NA
HETATM   10  C   UNL     1      25.394  48.539  39.270  1.00  0.00     0.068 A 
HETATM   11  C   UNL     1      24.097  49.187  39.601  1.00  0.00     0.073 C 
ENDROOT
BRANCH   2  12
HETATM   12  S   UNL     1      31.167  49.315  39.081  1.00  0.00    -0.082 SA
BRANCH  12  13
HETATM   13  C   UNL     1      31.716  48.006  40.223  1.00  0.00     0.185 C 
BRANCH  13  14
HETATM   14  C   UNL     1      31.709  48.446  41.684  1.00  0.00     0.227 C 
HETATM   15  N   UNL     1      32.844  49.059  42.156  1.00  0.00    -0.360 N 
HETATM   16  H   UNL     1      32.770  49.392  43.113  1.00  0.00     0.162 HD
HETATM   17  O   UNL     1      30.743  48.289  42.433  1.00  0.00    -0.273 OA
BRANCH  15  18
HETATM   18  C   UNL     1      33.937  49.543  41.326  1.00  0.00     0.127 C 
BRANCH  18  19
HETATM   19  C   UNL     1      34.929  50.439  42.068  1.00  0.00     0.058 C 
BRANCH  19  20
HETATM   20  C   UNL     1      35.294  51.620  41.197  1.00  0.00    -0.057 A 
HETATM   21  C   UNL     1      36.476  52.338  41.435  1.00  0.00     0.009 A 
HETATM   22  C   UNL     1      36.756  53.497  40.709  1.00  0.00     0.025 A 
HETATM   23  C   UNL     1      35.856  53.938  39.736  1.00  0.00     0.074 A 
HETATM   24  C   UNL     1      34.681  53.228  39.481  1.00  0.00     0.025 A 
HETATM   25  C   UNL     1      34.404  52.069  40.208  1.00  0.00     0.009 A 
BRANCH  23  26
HETATM   26  S   UNL     1      36.155  55.471  38.901  1.00  0.00     0.239 S 
HETATM   27  O   UNL     1      34.957  56.276  38.958  1.00  0.00    -0.206 OA
HETATM   28  O   UNL     1      37.446  55.976  39.306  1.00  0.00    -0.206 OA
BRANCH  26  29
HETATM   29  N   UNL     1      36.318  54.981  37.306  1.00  0.00    -0.225 NA
HETATM   30  H   UNL     1      37.285  55.103  37.001  1.00  0.00     0.136 HD
HETATM   31  H   UNL     1      35.976  54.025  37.198  1.00  0.00     0.136 HD
ENDBRANCH  26  29
ENDBRANCH  23  26
ENDBRANCH  19  20
ENDBRANCH  18  19
ENDBRANCH  15  18
ENDBRANCH  13  14
ENDBRANCH  12  13
ENDBRANCH   2  12
BRANCH   1  32
HETATM   32  C   UNL     1      29.373  51.378  40.355  1.00  0.00     0.051 A 
HETATM   33  C   UNL     1      29.481  52.526  39.547  1.00  0.00    -0.035 A 
HETATM   34  C   UNL     1      28.823  52.667  38.204  1.00  0.00     0.050 C 
HETATM   35  C   UNL     1      30.201  53.612  40.063  1.00  0.00     0.011 A 
HETATM   36  C   UNL     1      30.824  53.527  41.313  1.00  0.00     0.024 A 
HETATM   37  C   UNL     1      30.722  52.363  42.073  1.00  0.00     0.036 A 
HETATM   38  C   UNL     1      29.993  51.275  41.603  1.00  0.00     0.054 A 
HETATM   39 CL   UNL     1      31.513  52.261  43.593  1.00  0.00    -0.084 Cl
ENDBRANCH   1  32
BRANCH   6  40
HETATM   40  N   UNL     1      26.585  51.215  40.577  1.00  0.00    -0.384 N 
HETATM   41  H   UNL     1      25.597  51.301  40.363  1.00  0.00     0.157 HD
HETATM   42  H   UNL     1      26.865  51.648  41.449  1.00  0.00     0.157 HD
ENDBRANCH   6  40
TORSDOF 10
ENDMDL
MODEL 6
REMARK VINA RESULT:      -7.0      4.198      6.420
REMARK  10 active torsions:
REMARK  status: ('A' for Active; 'I' for Inactive)
REMARK    1  A    between atoms: C_3  and  N_4 
REMARK    2  A    between atoms: C_5  and  S_6 
REMARK    3  A    between atoms: S_6  and  C_7 
REMARK    4  A    between atoms: C_7  and  C_8 
REMARK       I    between atoms: C_8  and  N_9 
REMARK    5  A    between atoms: N_9  and  C_10 
REMARK    6  A    between atoms: C_10  and  C_11 
REMARK    7  A    between atoms: C_11  and  C_12 
REMARK    8  A    between atoms: C_15  and  S_16 
REMARK    9  A    between atoms: S_16  and  N_17 
REMARK   10  A    between atoms: C_26  and  N_27 
ROOT
HETATM    1  N   UNL     1      28.677  50.113  39.939  1.00  0.00    -0.275 N 
HETATM    2  C   UNL     1      29.401  49.078  39.423  1.00  0.00     0.177 A 
HETATM    3  N   UNL     1      28.884  47.894  39.026  1.00  0.00    -0.204 NA
HETATM    4  C   UNL     1      27.553  47.890  39.077  1.00  0.00     0.162 A 
HETATM    5  C   UNL     1      26.738  48.908  39.526  1.00  0.00     0.081 A 
HETATM    6  C   UNL     1      27.318  50.086  40.025  1.00  0.00     0.124 A 
HETATM    7  N   UNL     1      26.734  46.872  38.680  1.00  0.00    -0.260 N 
HETATM    8  H   UNL     1      27.000  45.970  38.297  1.00  0.00     0.191 HD
HETATM    9  N   UNL     1      25.433  47.154  38.830  1.00  0.00    -0.177 NA
HETATM   10  C   UNL     1      25.419  48.393  39.335  1.00  0.00     0.068 A 
HETATM   11  C   UNL     1      24.112  49.046  39.613  1.00  0.00     0.073 C 
ENDROOT
BRANCH   2  12
HETATM   12  S   UNL     1      31.192  49.193  39.242  1.00  0.00    -0.082 SA
BRANCH  12  13
HETATM   13  C   UNL     1      31.722  47.939  40.452  1.00  0.00     0.185 C 
BRANCH  13  14
HETATM   14  C   UNL     1      31.738  48.463  41.886  1.00  0.00     0.227 C 
HETATM   15  N   UNL     1      32.885  49.092  42.306  1.00  0.00    -0.360 N 
HETATM   16  H   UNL     1      32.827  49.479  43.244  1.00  0.00     0.162 HD
HETATM   17  O   UNL     1      30.782  48.358  42.656  1.00  0.00    -0.273 OA
BRANCH  15  18
HETATM   18  C   UNL     1      33.971  49.516  41.436  1.00  0.00     0.127 C 
BRANCH  18  19
HETATM   19  C   UNL     1      34.186  51.030  41.405  1.00  0.00     0.058 C 
BRANCH  19  20
HETATM   20  C   UNL     1      35.407  51.385  42.222  1.00  0.00    -0.057 A 
HETATM   21  C   UNL     1      36.669  50.886  41.863  1.00  0.00     0.009 A 
HETATM   22  C   UNL     1      37.778  51.116  42.680  1.00  0.00     0.025 A 
HETATM   23  C   UNL     1      37.628  51.853  43.857  1.00  0.00     0.074 A 
HETATM   24  C   UNL     1      36.381  52.365  44.221  1.00  0.00     0.025 A 
HETATM   25  C   UNL     1      35.275  52.134  43.402  1.00  0.00     0.009 A 
BRANCH  23  26
HETATM   26  S   UNL     1      39.009  52.041  44.950  1.00  0.00     0.239 S 
HETATM   27  O   UNL     1      39.515  50.733  45.295  1.00  0.00    -0.206 OA
HETATM   28  O   UNL     1      39.861  53.092  44.444  1.00  0.00    -0.206 OA
BRANCH  26  29
HETATM   29  N   UNL     1      38.284  52.646  46.336  1.00  0.00    -0.225 NA
HETATM   30  H   UNL     1      38.959  53.196  46.870  1.00  0.00     0.136 HD
HETATM   31  H   UNL     1      37.441  53.167  46.090  1.00  0.00     0.136 HD
ENDBRANCH  26  29
ENDBRANCH  23  26
ENDBRANCH  19  20
ENDBRANCH  18  19
ENDBRANCH  15  18
ENDBRANCH  13  14
ENDBRANCH  12  13
ENDBRANCH   2  12
BRANCH   1  32
HETATM   32  C   UNL     1      29.361  51.293  40.397  1.00  0.00     0.051 A 
HETATM   33  C   UNL     1      29.469  52.415  39.554  1.00  0.00    -0.035 A 
HETATM   34  C   UNL     1      28.827  52.506  38.199  1.00  0.00     0.050 C 
HETATM   35  C   UNL     1      30.174  53.523  40.044  1.00  0.00     0.011 A 
HETATM   36  C   UNL     1      30.781  53.485  41.303  1.00  0.00     0.024 A 
HETATM   37  C   UNL     1      30.679  52.344  42.099  1.00  0.00     0.036 A 
HETATM   38  C   UNL     1      29.966  51.235  41.656  1.00  0.00     0.054 A 
HETATM   39 CL   UNL     1      31.451  52.299  43.631  1.00  0.00    -0.084 Cl
ENDBRANCH   1  32
BRANCH   6  40
HETATM   40  N   UNL     1      26.569  51.124  40.566  1.00  0.00    -0.384 N 
HETATM   41  H   UNL     1      26.704  51.371  41.540  1.00  0.00     0.157 HD
HETATM   42  H   UNL     1      26.172  51.860  39.996  1.00  0.00     0.157 HD
ENDBRANCH   6  40
TORSDOF 10
ENDMDL
MODEL 7
REMARK VINA RESULT:      -7.0      2.910      5.322
REMARK  10 active torsions:
REMARK  status: ('A' for Active; 'I' for Inactive)
REMARK    1  A    between atoms: C_3  and  N_4 
REMARK    2  A    between atoms: C_5  and  S_6 
REMARK    3  A    between atoms: S_6  and  C_7 
REMARK    4  A    between atoms: C_7  and  C_8 
REMARK       I    between atoms: C_8  and  N_9 
REMARK    5  A    between atoms: N_9  and  C_10 
REMARK    6  A    between atoms: C_10  and  C_11 
REMARK    7  A    between atoms: C_11  and  C_12 
REMARK    8  A    between atoms: C_15  and  S_16 
REMARK    9  A    between atoms: S_16  and  N_17 
REMARK   10  A    between atoms: C_26  and  N_27 
ROOT
HETATM    1  N   UNL     1      27.873  49.003  39.519  1.00  0.00    -0.275 N 
HETATM    2  C   UNL     1      27.821  50.170  38.815  1.00  0.00     0.177 A 
HETATM    3  N   UNL     1      26.699  50.707  38.286  1.00  0.00    -0.204 NA
HETATM    4  C   UNL     1      25.609  50.025  38.638  1.00  0.00     0.162 A 
HETATM    5  C   UNL     1      25.560  48.872  39.392  1.00  0.00     0.081 A 
HETATM    6  C   UNL     1      26.758  48.290  39.839  1.00  0.00     0.124 A 
HETATM    7  N   UNL     1      24.320  50.349  38.322  1.00  0.00    -0.260 N 
HETATM    8  H   UNL     1      23.990  51.138  37.776  1.00  0.00     0.191 HD
HETATM    9  N   UNL     1      23.424  49.490  38.826  1.00  0.00    -0.177 NA
HETATM   10  C   UNL     1      24.163  48.591  39.488  1.00  0.00     0.068 A 
HETATM   11  C   UNL     1      23.481  47.480  40.203  1.00  0.00     0.073 C 
ENDROOT
BRANCH   2  12
HETATM   12  S   UNL     1      29.313  51.131  38.492  1.00  0.00    -0.082 SA
BRANCH  12  13
HETATM   13  C   UNL     1      28.905  52.671  39.376  1.00  0.00     0.185 C 
BRANCH  13  14
HETATM   14  C   UNL     1      28.475  52.434  40.821  1.00  0.00     0.227 C 
HETATM   15  N   UNL     1      29.470  52.386  41.767  1.00  0.00    -0.360 N 
HETATM   16  H   UNL     1      29.133  52.291  42.721  1.00  0.00     0.162 HD
HETATM   17  O   UNL     1      27.300  52.300  41.164  1.00  0.00    -0.273 OA
BRANCH  15  18
HETATM   18  C   UNL     1      30.851  52.788  41.547  1.00  0.00     0.127 C 
BRANCH  18  19
HETATM   19  C   UNL     1      31.857  52.074  42.450  1.00  0.00     0.058 C 
BRANCH  19  20
HETATM   20  C   UNL     1      33.097  51.732  41.656  1.00  0.00    -0.057 A 
HETATM   21  C   UNL     1      34.312  51.484  42.311  1.00  0.00     0.009 A 
HETATM   22  C   UNL     1      35.483  51.284  41.577  1.00  0.00     0.025 A 
HETATM   23  C   UNL     1      35.439  51.324  40.182  1.00  0.00     0.074 A 
HETATM   24  C   UNL     1      34.234  51.559  39.515  1.00  0.00     0.025 A 
HETATM   25  C   UNL     1      33.066  51.758  40.253  1.00  0.00     0.009 A 
BRANCH  23  26
HETATM   26  S   UNL     1      36.943  51.189  39.256  1.00  0.00     0.239 S 
HETATM   27  O   UNL     1      36.867  52.064  38.110  1.00  0.00    -0.206 OA
HETATM   28  O   UNL     1      38.056  51.214  40.176  1.00  0.00    -0.206 OA
BRANCH  26  29
HETATM   29  N   UNL     1      36.855  49.624  38.662  1.00  0.00    -0.225 NA
HETATM   30  H   UNL     1      36.530  49.637  37.693  1.00  0.00     0.136 HD
HETATM   31  H   UNL     1      37.753  49.154  38.782  1.00  0.00     0.136 HD
ENDBRANCH  26  29
ENDBRANCH  23  26
ENDBRANCH  19  20
ENDBRANCH  18  19
ENDBRANCH  15  18
ENDBRANCH  13  14
ENDBRANCH  12  13
ENDBRANCH   2  12
BRANCH   1  32
HETATM   32  C   UNL     1      29.147  48.502  39.961  1.00  0.00     0.051 A 
HETATM   33  C   UNL     1      29.802  47.498  39.223  1.00  0.00    -0.035 A 
HETATM   34  C   UNL     1      29.295  46.956  37.917  1.00  0.00     0.050 C 
HETATM   35  C   UNL     1      31.025  47.027  39.720  1.00  0.00     0.011 A 
HETATM   36  C   UNL     1      31.539  47.509  40.928  1.00  0.00     0.024 A 
HETATM   37  C   UNL     1      30.847  48.482  41.649  1.00  0.00     0.036 A 
HETATM   38  C   UNL     1      29.643  48.991  41.172  1.00  0.00     0.054 A 
HETATM   39 CL   UNL     1      31.475  49.047  43.144  1.00  0.00    -0.084 Cl
ENDBRANCH   1  32
BRANCH   6  40
HETATM   40  N   UNL     1      26.797  47.090  40.538  1.00  0.00    -0.384 N 
HETATM   41  H   UNL     1      26.138  46.358  40.294  1.00  0.00     0.157 HD
HETATM   42  H   UNL     1      27.629  46.765  41.013  1.00  0.00     0.157 HD
ENDBRANCH   6  40
TORSDOF 10
ENDMDL
MODEL 8
REMARK VINA RESULT:      -6.9     11.417     13.495
REMARK  10 active torsions:
REMARK  status: ('A' for Active; 'I' for Inactive)
REMARK    1  A    between atoms: C_3  and  N_4 
REMARK    2  A    between atoms: C_5  and  S_6 
REMARK    3  A    between atoms: S_6  and  C_7 
REMARK    4  A    between atoms: C_7  and  C_8 
REMARK       I    between atoms: C_8  and  N_9 
REMARK    5  A    between atoms: N_9  and  C_10 
REMARK    6  A    between atoms: C_10  and  C_11 
REMARK    7  A    between atoms: C_11  and  C_12 
REMARK    8  A    between atoms: C_15  and  S_16 
REMARK    9  A    between atoms: S_16  and  N_17 
REMARK   10  A    between atoms: C_26  and  N_27 
ROOT
HETATM    1  N   UNL     1      25.680  40.757  47.736  1.00  0.00    -0.275 N 
HETATM    2  C   UNL     1      26.152  40.222  48.898  1.00  0.00     0.177 A 
HETATM    3  N   UNL     1      25.919  40.721  50.133  1.00  0.00    -0.204 NA
HETATM    4  C   UNL     1      25.061  41.741  50.102  1.00  0.00     0.162 A 
HETATM    5  C   UNL     1      24.489  42.310  48.984  1.00  0.00     0.081 A 
HETATM    6  C   UNL     1      24.836  41.826  47.711  1.00  0.00     0.124 A 
HETATM    7  N   UNL     1      24.573  42.415  51.184  1.00  0.00    -0.260 N 
HETATM    8  H   UNL     1      24.784  42.259  52.165  1.00  0.00     0.191 HD
HETATM    9  N   UNL     1      23.711  43.386  50.854  1.00  0.00    -0.177 NA
HETATM   10  C   UNL     1      23.642  43.328  49.519  1.00  0.00     0.068 A 
HETATM   11  C   UNL     1      22.744  44.269  48.799  1.00  0.00     0.073 C 
ENDROOT
BRANCH   2  12
HETATM   12  S   UNL     1      27.194  38.750  48.890  1.00  0.00    -0.082 SA
BRANCH  12  13
HETATM   13  C   UNL     1      28.760  39.457  49.495  1.00  0.00     0.185 C 
BRANCH  13  14
HETATM   14  C   UNL     1      29.294  38.750  50.738  1.00  0.00     0.227 C 
HETATM   15  N   UNL     1      29.351  39.485  51.897  1.00  0.00    -0.360 N 
HETATM   16  H   UNL     1      29.652  38.956  52.711  1.00  0.00     0.162 HD
HETATM   17  O   UNL     1      29.654  37.572  50.743  1.00  0.00    -0.273 OA
BRANCH  15  18
HETATM   18  C   UNL     1      28.719  40.780  52.096  1.00  0.00     0.127 C 
BRANCH  18  19
HETATM   19  C   UNL     1      29.646  41.837  52.698  1.00  0.00     0.058 C 
BRANCH  19  20
HETATM   20  C   UNL     1      28.836  43.045  53.110  1.00  0.00    -0.057 A 
HETATM   21  C   UNL     1      27.851  43.563  52.256  1.00  0.00     0.009 A 
HETATM   22  C   UNL     1      27.184  44.745  52.582  1.00  0.00     0.025 A 
HETATM   23  C   UNL     1      27.496  45.410  53.771  1.00  0.00     0.074 A 
HETATM   24  C   UNL     1      28.467  44.900  54.636  1.00  0.00     0.025 A 
HETATM   25  C   UNL     1      29.131  43.718  54.307  1.00  0.00     0.009 A 
BRANCH  23  26
HETATM   26  S   UNL     1      26.736  46.970  54.125  1.00  0.00     0.239 S 
HETATM   27  O   UNL     1      25.579  46.748  54.960  1.00  0.00    -0.206 OA
HETATM   28  O   UNL     1      27.768  47.920  54.469  1.00  0.00    -0.206 OA
BRANCH  26  29
HETATM   29  N   UNL     1      26.152  47.429  52.622  1.00  0.00    -0.225 NA
HETATM   30  H   UNL     1      26.669  46.948  51.885  1.00  0.00     0.136 HD
HETATM   31  H   UNL     1      25.143  47.275  52.578  1.00  0.00     0.136 HD
ENDBRANCH  26  29
ENDBRANCH  23  26
ENDBRANCH  19  20
ENDBRANCH  18  19
ENDBRANCH  15  18
ENDBRANCH  13  14
ENDBRANCH  12  13
ENDBRANCH   2  12
BRANCH   1  32
HETATM   32  C   UNL     1      26.068  40.171  46.480  1.00  0.00     0.051 A 
HETATM   33  C   UNL     1      25.335  39.092  45.953  1.00  0.00    -0.035 A 
HETATM   34  C   UNL     1      24.085  38.544  46.581  1.00  0.00     0.050 C 
HETATM   35  C   UNL     1      25.778  38.542  44.742  1.00  0.00     0.011 A 
HETATM   36  C   UNL     1      26.933  39.026  44.118  1.00  0.00     0.024 A 
HETATM   37  C   UNL     1      27.652  40.077  44.686  1.00  0.00     0.036 A 
HETATM   38  C   UNL     1      27.226  40.664  45.873  1.00  0.00     0.054 A 
HETATM   39 CL   UNL     1      29.082  40.644  43.925  1.00  0.00    -0.084 Cl
ENDBRANCH   1  32
BRANCH   6  40
HETATM   40  N   UNL     1      24.363  42.394  46.535  1.00  0.00    -0.384 N 
HETATM   41  H   UNL     1      24.592  43.361  46.330  1.00  0.00     0.157 HD
HETATM   42  H   UNL     1      24.115  41.840  45.725  1.00  0.00     0.157 HD
ENDBRANCH   6  40
TORSDOF 10
ENDMDL
MODEL 9
REMARK VINA RESULT:      -6.8      2.965      7.575
REMARK  10 active torsions:
REMARK  status: ('A' for Active; 'I' for Inactive)
REMARK    1  A    between atoms: C_3  and  N_4 
REMARK    2  A    between atoms: C_5  and  S_6 
REMARK    3  A    between atoms: S_6  and  C_7 
REMARK    4  A    between atoms: C_7  and  C_8 
REMARK       I    between atoms: C_8  and  N_9 
REMARK    5  A    between atoms: N_9  and  C_10 
REMARK    6  A    between atoms: C_10  and  C_11 
REMARK    7  A    between atoms: C_11  and  C_12 
REMARK    8  A    between atoms: C_15  and  S_16 
REMARK    9  A    between atoms: S_16  and  N_17 
REMARK   10  A    between atoms: C_26  and  N_27 
ROOT
HETATM    1  N   UNL     1      33.212  51.262  40.496  1.00  0.00    -0.275 N 
HETATM    2  C   UNL     1      32.671  52.453  40.113  1.00  0.00     0.177 A 
HETATM    3  N   UNL     1      33.375  53.510  39.649  1.00  0.00    -0.204 NA
HETATM    4  C   UNL     1      34.665  53.216  39.486  1.00  0.00     0.162 A 
HETATM    5  C   UNL     1      35.287  52.023  39.790  1.00  0.00     0.081 A 
HETATM    6  C   UNL     1      34.539  50.982  40.365  1.00  0.00     0.124 A 
HETATM    7  N   UNL     1      35.621  54.044  38.973  1.00  0.00    -0.260 N 
HETATM    8  H   UNL     1      35.511  54.998  38.646  1.00  0.00     0.191 HD
HETATM    9  N   UNL     1      36.832  53.473  38.911  1.00  0.00    -0.177 NA
HETATM   10  C   UNL     1      36.643  52.240  39.395  1.00  0.00     0.068 A 
HETATM   11  C   UNL     1      37.794  51.302  39.455  1.00  0.00     0.073 C 
ENDROOT
BRANCH   2  12
HETATM   12  S   UNL     1      30.895  52.748  40.218  1.00  0.00    -0.082 SA
BRANCH  12  13
HETATM   13  C   UNL     1      30.348  52.002  38.649  1.00  0.00     0.185 C 
BRANCH  13  14
HETATM   14  C   UNL     1      28.929  52.404  38.260  1.00  0.00     0.227 C 
HETATM   15  N   UNL     1      27.970  51.420  38.295  1.00  0.00    -0.360 N 
HETATM   16  H   UNL     1      27.030  51.747  38.090  1.00  0.00     0.162 HD
HETATM   17  O   UNL     1      28.614  53.551  37.936  1.00  0.00    -0.273 OA
BRANCH  15  18
HETATM   18  C   UNL     1      28.142  50.110  38.905  1.00  0.00     0.127 C 
BRANCH  18  19
HETATM   19  C   UNL     1      26.875  49.562  39.563  1.00  0.00     0.058 C 
BRANCH  19  20
HETATM   20  C   UNL     1      26.963  48.055  39.652  1.00  0.00    -0.057 A 
HETATM   21  C   UNL     1      27.148  47.429  40.894  1.00  0.00     0.009 A 
HETATM   22  C   UNL     1      27.346  46.048  40.966  1.00  0.00     0.025 A 
HETATM   23  C   UNL     1      27.352  45.289  39.794  1.00  0.00     0.074 A 
HETATM   24  C   UNL     1      27.159  45.897  38.552  1.00  0.00     0.025 A 
HETATM   25  C   UNL     1      26.960  47.277  38.484  1.00  0.00     0.009 A 
BRANCH  23  26
HETATM   26  S   UNL     1      27.722  43.559  39.877  1.00  0.00     0.239 S 
HETATM   27  O   UNL     1      27.968  43.198  41.253  1.00  0.00    -0.206 OA
HETATM   28  O   UNL     1      26.782  42.844  39.046  1.00  0.00    -0.206 OA
BRANCH  26  29
HETATM   29  N   UNL     1      29.203  43.475  39.096  1.00  0.00    -0.225 NA
HETATM   30  H   UNL     1      29.951  43.744  39.737  1.00  0.00     0.136 HD
HETATM   31  H   UNL     1      29.332  42.547  38.690  1.00  0.00     0.136 HD
ENDBRANCH  26  29
ENDBRANCH  23  26
ENDBRANCH  19  20
ENDBRANCH  18  19
ENDBRANCH  15  18
ENDBRANCH  13  14
ENDBRANCH  12  13
ENDBRANCH   2  12
BRANCH   1  32
HETATM   32  C   UNL     1      32.358  50.243  41.047  1.00  0.00     0.051 A 
HETATM   33  C   UNL     1      32.112  50.206  42.432  1.00  0.00    -0.035 A 
HETATM   34  C   UNL     1      32.622  51.236  43.399  1.00  0.00     0.050 C 
HETATM   35  C   UNL     1      31.298  49.172  42.915  1.00  0.00     0.011 A 
HETATM   36  C   UNL     1      30.795  48.195  42.049  1.00  0.00     0.024 A 
HETATM   37  C   UNL     1      31.084  48.247  40.685  1.00  0.00     0.036 A 
HETATM   38  C   UNL     1      31.868  49.273  40.168  1.00  0.00     0.054 A 
HETATM   39 CL   UNL     1      30.484  47.027  39.637  1.00  0.00    -0.084 Cl
ENDBRANCH   1  32
BRANCH   6  40
HETATM   40  N   UNL     1      35.107  49.781  40.768  1.00  0.00    -0.384 N 
HETATM   41  H   UNL     1      35.929  49.438  40.282  1.00  0.00     0.157 HD
HETATM   42  H   UNL     1      34.985  49.409  41.702  1.00  0.00     0.157 HD
ENDBRANCH   6  40
TORSDOF 10
ENDMDL
MODEL 10
REMARK VINA RESULT:      -6.7      2.215      3.209
REMARK  10 active torsions:
REMARK  status: ('A' for Active; 'I' for Inactive)
REMARK    1  A    between atoms: C_3  and  N_4 
REMARK    2  A    between atoms: C_5  and  S_6 
REMARK    3  A    between atoms: S_6  and  C_7 
REMARK    4  A    between atoms: C_7  and  C_8 
REMARK       I    between atoms: C_8  and  N_9 
REMARK    5  A    between atoms: N_9  and  C_10 
REMARK    6  A    between atoms: C_10  and  C_11 
REMARK    7  A    between atoms: C_11  and  C_12 
REMARK    8  A    between atoms: C_15  and  S_16 
REMARK    9  A    between atoms: S_16  and  N_17 
REMARK   10  A    between atoms: C_26  and  N_27 
ROOT
HETATM    1  N   UNL     1      26.195  49.315  39.354  1.00  0.00    -0.275 N 
HETATM    2  C   UNL     1      26.497  48.522  40.422  1.00  0.00     0.177 A 
HETATM    3  N   UNL     1      27.502  48.748  41.296  1.00  0.00    -0.204 NA
HETATM    4  C   UNL     1      28.102  49.918  41.072  1.00  0.00     0.162 A 
HETATM    5  C   UNL     1      27.826  50.809  40.057  1.00  0.00     0.081 A 
HETATM    6  C   UNL     1      26.840  50.490  39.108  1.00  0.00     0.124 A 
HETATM    7  N   UNL     1      29.105  50.464  41.819  1.00  0.00    -0.260 N 
HETATM    8  H   UNL     1      29.553  50.076  42.643  1.00  0.00     0.191 HD
HETATM    9  N   UNL     1      29.504  51.662  41.369  1.00  0.00    -0.177 NA
HETATM   10  C   UNL     1      28.727  51.889  40.302  1.00  0.00     0.068 A 
HETATM   11  C   UNL     1      28.885  53.163  39.551  1.00  0.00     0.073 C 
ENDROOT
BRANCH   2  12
HETATM   12  S   UNL     1      25.556  47.021  40.763  1.00  0.00    -0.082 SA
BRANCH  12  13
HETATM   13  C   UNL     1      26.916  45.830  40.988  1.00  0.00     0.185 C 
BRANCH  13  14
HETATM   14  C   UNL     1      27.275  45.085  39.706  1.00  0.00     0.227 C 
HETATM   15  N   UNL     1      28.447  45.444  39.085  1.00  0.00    -0.360 N 
HETATM   16  H   UNL     1      28.677  44.879  38.272  1.00  0.00     0.162 HD
HETATM   17  O   UNL     1      26.579  44.188  39.226  1.00  0.00    -0.273 OA
BRANCH  15  18
HETATM   18  C   UNL     1      29.480  46.282  39.673  1.00  0.00     0.127 C 
BRANCH  18  19
HETATM   19  C   UNL     1      30.097  47.284  38.696  1.00  0.00     0.058 C 
BRANCH  19  20
HETATM   20  C   UNL     1      30.918  48.297  39.461  1.00  0.00    -0.057 A 
HETATM   21  C   UNL     1      31.225  49.539  38.887  1.00  0.00     0.009 A 
HETATM   22  C   UNL     1      32.079  50.429  39.542  1.00  0.00     0.025 A 
HETATM   23  C   UNL     1      32.623  50.080  40.780  1.00  0.00     0.074 A 
HETATM   24  C   UNL     1      32.317  48.851  41.369  1.00  0.00     0.025 A 
HETATM   25  C   UNL     1      31.463  47.965  40.712  1.00  0.00     0.009 A 
BRANCH  23  26
HETATM   26  S   UNL     1      33.798  51.156  41.552  1.00  0.00     0.239 S 
HETATM   27  O   UNL     1      33.131  51.913  42.585  1.00  0.00    -0.206 OA
HETATM   28  O   UNL     1      35.013  50.415  41.799  1.00  0.00    -0.206 OA
BRANCH  26  29
HETATM   29  N   UNL     1      34.148  52.241  40.323  1.00  0.00    -0.225 NA
HETATM   30  H   UNL     1      33.287  52.523  39.852  1.00  0.00     0.136 HD
HETATM   31  H   UNL     1      34.684  53.027  40.694  1.00  0.00     0.136 HD
ENDBRANCH  26  29
ENDBRANCH  23  26
ENDBRANCH  19  20
ENDBRANCH  18  19
ENDBRANCH  15  18
ENDBRANCH  13  14
ENDBRANCH  12  13
ENDBRANCH   2  12
BRANCH   1  32
HETATM   32  C   UNL     1      25.146  48.917  38.454  1.00  0.00     0.051 A 
HETATM   33  C   UNL     1      25.450  48.143  37.319  1.00  0.00    -0.035 A 
HETATM   34  C   UNL     1      26.821  47.609  37.014  1.00  0.00     0.050 C 
HETATM   35  C   UNL     1      24.392  47.813  36.461  1.00  0.00     0.011 A 
HETATM   36  C   UNL     1      23.098  48.282  36.709  1.00  0.00     0.024 A 
HETATM   37  C   UNL     1      22.839  49.074  37.828  1.00  0.00     0.036 A 
HETATM   38  C   UNL     1      23.860  49.399  38.715  1.00  0.00     0.054 A 
HETATM   39 CL   UNL     1      21.252  49.666  38.108  1.00  0.00    -0.084 Cl
ENDBRANCH   1  32
BRANCH   6  40
HETATM   40  N   UNL     1      26.557  51.298  38.015  1.00  0.00    -0.384 N 
HETATM   41  H   UNL     1      25.617  51.298  37.635  1.00  0.00     0.157 HD
HETATM   42  H   UNL     1      27.100  52.123  37.795  1.00  0.00     0.157 HD
ENDBRANCH   6  40
TORSDOF 10
ENDMDL
