MODEL 1
REMARK VINA RESULT:     -11.0      0.000      0.000
REMARK  6 active torsions:
REMARK  status: ('A' for Active; 'I' for Inactive)
REMARK    1  A    between atoms: C_4  and  C_5 
REMARK    2  A    between atoms: C_9  and  C_10 
REMARK       I    between atoms: C_10  and  N_11 
REMARK    3  A    between atoms: N_11  and  N_12 
REMARK       I    between atoms: N_12  and  C_13 
REMARK    4  A    between atoms: C_13  and  C_14 
REMARK    5  A    between atoms: C_14  and  O_15 
REMARK    6  A    between atoms: O_15  and  C_16 
ROOT
HETATM    1  C   UNL     1      25.056  44.282  52.857  1.00  0.00     0.288 C 
HETATM    2  N   UNL     1      25.369  42.995  52.460  1.00  0.00    -0.262 N 
HETATM    3  O   UNL     1      24.829  44.476  54.052  1.00  0.00    -0.264 OA
HETATM    4  H   UNL     1      25.464  42.317  53.212  1.00  0.00     0.190 HD
ENDROOT
BRANCH   2   5
HETATM    5  N   UNL     1      25.759  42.603  51.186  1.00  0.00    -0.265 N 
HETATM    6  C   UNL     1      27.064  42.678  50.742  1.00  0.00     0.260 C 
HETATM    7  O   UNL     1      27.268  42.663  49.528  1.00  0.00    -0.269 OA
HETATM    8  H   UNL     1      25.053  42.636  50.453  1.00  0.00     0.190 HD
BRANCH   6   9
HETATM    9  C   UNL     1      28.179  42.714  51.797  1.00  0.00     0.280 C 
BRANCH   9  10
HETATM   10  O   UNL     1      28.385  43.986  52.405  1.00  0.00    -0.342 OA
BRANCH  10  11
HETATM   11  C   UNL     1      29.058  43.931  53.596  1.00  0.00     0.070 A 
HETATM   12  C   UNL     1      28.750  44.909  54.541  1.00  0.00     0.049 A 
HETATM   13  C   UNL     1      29.442  44.971  55.762  1.00  0.00    -0.023 A 
HETATM   14  C   UNL     1      30.474  44.041  56.021  1.00  0.00    -0.026 A 
HETATM   15  C   UNL     1      29.140  45.946  56.729  1.00  0.00     0.012 A 
HETATM   16  C   UNL     1      30.778  43.069  55.055  1.00  0.00     0.015 A 
HETATM   17  C   UNL     1      31.184  44.118  57.231  1.00  0.00     0.012 A 
HETATM   18  C   UNL     1      30.079  43.018  53.846  1.00  0.00     0.037 A 
HETATM   19  C   UNL     1      30.876  45.096  58.177  1.00  0.00     0.001 A 
HETATM   20  C   UNL     1      29.854  46.007  57.929  1.00  0.00     0.001 A 
ENDBRANCH  10  11
ENDBRANCH   9  10
ENDBRANCH   6   9
ENDBRANCH   2   5
BRANCH   1  21
HETATM   21  C   UNL     1      24.914  45.336  51.888  1.00  0.00     0.121 A 
HETATM   22  N   UNL     1      23.950  45.263  50.917  1.00  0.00    -0.272 N 
HETATM   23  N   UNL     1      24.037  46.216  49.981  1.00  0.00    -0.174 NA
HETATM   24  H   UNL     1      23.246  44.538  50.814  1.00  0.00     0.189 HD
HETATM   25  C   UNL     1      25.034  47.008  50.402  1.00  0.00     0.089 A 
HETATM   26  C   UNL     1      25.567  46.525  51.628  1.00  0.00     0.071 A 
BRANCH  25  27
HETATM   27  C   UNL     1      25.495  48.154  49.625  1.00  0.00    -0.006 A 
HETATM   28  C   UNL     1      26.858  48.463  49.534  1.00  0.00     0.014 A 
HETATM   29  C   UNL     1      27.288  49.533  48.745  1.00  0.00     0.001 A 
HETATM   30  C   UNL     1      26.362  50.298  48.037  1.00  0.00     0.000 A 
HETATM   31  C   UNL     1      25.003  50.000  48.123  1.00  0.00     0.001 A 
HETATM   32  C   UNL     1      24.571  48.937  48.919  1.00  0.00     0.014 A 
ENDBRANCH  25  27
ENDBRANCH   1  21
TORSDOF 6
ENDMDL
MODEL 2
REMARK VINA RESULT:     -10.8      1.002      1.524
REMARK  6 active torsions:
REMARK  status: ('A' for Active; 'I' for Inactive)
REMARK    1  A    between atoms: C_4  and  C_5 
REMARK    2  A    between atoms: C_9  and  C_10 
REMARK       I    between atoms: C_10  and  N_11 
REMARK    3  A    between atoms: N_11  and  N_12 
REMARK       I    between atoms: N_12  and  C_13 
REMARK    4  A    between atoms: C_13  and  C_14 
REMARK    5  A    between atoms: C_14  and  O_15 
REMARK    6  A    between atoms: O_15  and  C_16 
ROOT
HETATM    1  C   UNL     1      25.039  44.381  52.647  1.00  0.00     0.288 C 
HETATM    2  N   UNL     1      25.228  43.099  52.164  1.00  0.00    -0.262 N 
HETATM    3  O   UNL     1      24.730  44.509  53.831  1.00  0.00    -0.264 OA
HETATM    4  H   UNL     1      25.171  42.358  52.858  1.00  0.00     0.190 HD
ENDROOT
BRANCH   2   5
HETATM    5  N   UNL     1      25.683  42.761  50.895  1.00  0.00    -0.265 N 
HETATM    6  C   UNL     1      27.011  42.842  50.525  1.00  0.00     0.260 C 
HETATM    7  O   UNL     1      27.279  42.880  49.325  1.00  0.00    -0.269 OA
HETATM    8  H   UNL     1      25.019  42.833  50.128  1.00  0.00     0.190 HD
BRANCH   6   9
HETATM    9  C   UNL     1      28.068  42.821  51.638  1.00  0.00     0.280 C 
BRANCH   9  10
HETATM   10  O   UNL     1      28.247  44.062  52.316  1.00  0.00    -0.342 OA
BRANCH  10  11
HETATM   11  C   UNL     1      28.959  43.962  53.481  1.00  0.00     0.070 A 
HETATM   12  C   UNL     1      28.686  44.905  54.471  1.00  0.00     0.049 A 
HETATM   13  C   UNL     1      29.419  44.921  55.670  1.00  0.00    -0.023 A 
HETATM   14  C   UNL     1      30.456  43.979  55.859  1.00  0.00    -0.026 A 
HETATM   15  C   UNL     1      29.154  45.861  56.681  1.00  0.00     0.012 A 
HETATM   16  C   UNL     1      30.724  43.043  54.849  1.00  0.00     0.015 A 
HETATM   17  C   UNL     1      31.207  44.011  57.047  1.00  0.00     0.012 A 
HETATM   18  C   UNL     1      29.985  43.038  53.663  1.00  0.00     0.037 A 
HETATM   19  C   UNL     1      30.934  44.954  58.038  1.00  0.00     0.001 A 
HETATM   20  C   UNL     1      29.907  45.875  57.858  1.00  0.00     0.001 A 
ENDBRANCH  10  11
ENDBRANCH   9  10
ENDBRANCH   6   9
ENDBRANCH   2   5
BRANCH   1  21
HETATM   21  C   UNL     1      25.117  45.517  51.767  1.00  0.00     0.121 A 
HETATM   22  N   UNL     1      26.121  46.438  51.908  1.00  0.00    -0.272 N 
HETATM   23  N   UNL     1      25.979  47.529  51.145  1.00  0.00    -0.174 NA
HETATM   24  H   UNL     1      26.895  46.397  52.564  1.00  0.00     0.189 HD
HETATM   25  C   UNL     1      24.895  47.275  50.397  1.00  0.00     0.089 A 
HETATM   26  C   UNL     1      24.363  45.995  50.713  1.00  0.00     0.071 A 
BRANCH  25  27
HETATM   27  C   UNL     1      24.357  48.251  49.455  1.00  0.00    -0.006 A 
HETATM   28  C   UNL     1      22.990  48.282  49.151  1.00  0.00     0.014 A 
HETATM   29  C   UNL     1      22.482  49.254  48.285  1.00  0.00     0.001 A 
HETATM   30  C   UNL     1      23.332  50.206  47.724  1.00  0.00     0.000 A 
HETATM   31  C   UNL     1      24.694  50.181  48.018  1.00  0.00     0.001 A 
HETATM   32  C   UNL     1      25.205  49.204  48.875  1.00  0.00     0.014 A 
ENDBRANCH  25  27
ENDBRANCH   1  21
TORSDOF 6
ENDMDL
MODEL 3
REMARK VINA RESULT:     -10.4      2.790      4.071
REMARK  6 active torsions:
REMARK  status: ('A' for Active; 'I' for Inactive)
REMARK    1  A    between atoms: C_4  and  C_5 
REMARK    2  A    between atoms: C_9  and  C_10 
REMARK       I    between atoms: C_10  and  N_11 
REMARK    3  A    between atoms: N_11  and  N_12 
REMARK       I    between atoms: N_12  and  C_13 
REMARK    4  A    between atoms: C_13  and  C_14 
REMARK    5  A    between atoms: C_14  and  O_15 
REMARK    6  A    between atoms: O_15  and  C_16 
ROOT
HETATM    1  C   UNL     1      26.362  48.270  49.703  1.00  0.00     0.288 C 
HETATM    2  N   UNL     1      26.212  47.293  50.670  1.00  0.00    -0.262 N 
HETATM    3  O   UNL     1      27.495  48.705  49.496  1.00  0.00    -0.264 OA
HETATM    4  H   UNL     1      27.076  46.953  51.084  1.00  0.00     0.190 HD
ENDROOT
BRANCH   2   5
HETATM    5  N   UNL     1      25.041  46.608  50.968  1.00  0.00    -0.265 N 
HETATM    6  C   UNL     1      25.005  45.500  51.791  1.00  0.00     0.260 C 
HETATM    7  O   UNL     1      24.031  44.751  51.717  1.00  0.00    -0.269 OA
HETATM    8  H   UNL     1      24.285  46.662  50.288  1.00  0.00     0.190 HD
BRANCH   6   9
HETATM    9  C   UNL     1      26.158  45.310  52.787  1.00  0.00     0.280 C 
BRANCH   9  10
HETATM   10  O   UNL     1      27.300  44.641  52.259  1.00  0.00    -0.342 OA
BRANCH  10  11
HETATM   11  C   UNL     1      28.197  44.236  53.210  1.00  0.00     0.070 A 
HETATM   12  C   UNL     1      28.380  45.080  54.305  1.00  0.00     0.049 A 
HETATM   13  C   UNL     1      29.333  44.778  55.294  1.00  0.00    -0.023 A 
HETATM   14  C   UNL     1      30.123  43.615  55.159  1.00  0.00    -0.026 A 
HETATM   15  C   UNL     1      29.526  45.614  56.407  1.00  0.00     0.012 A 
HETATM   16  C   UNL     1      29.933  42.781  54.046  1.00  0.00     0.015 A 
HETATM   17  C   UNL     1      31.094  43.325  56.133  1.00  0.00     0.012 A 
HETATM   18  C   UNL     1      28.980  43.093  53.073  1.00  0.00     0.037 A 
HETATM   19  C   UNL     1      31.277  44.169  57.229  1.00  0.00     0.001 A 
HETATM   20  C   UNL     1      30.493  45.310  57.369  1.00  0.00     0.001 A 
ENDBRANCH  10  11
ENDBRANCH   9  10
ENDBRANCH   6   9
ENDBRANCH   2   5
BRANCH   1  21
HETATM   21  C   UNL     1      25.215  48.818  49.029  1.00  0.00     0.121 A 
HETATM   22  N   UNL     1      25.374  49.664  47.963  1.00  0.00    -0.272 N 
HETATM   23  N   UNL     1      24.240  50.236  47.540  1.00  0.00    -0.174 NA
HETATM   24  H   UNL     1      26.252  49.936  47.528  1.00  0.00     0.189 HD
HETATM   25  C   UNL     1      23.281  49.671  48.287  1.00  0.00     0.089 A 
HETATM   26  C   UNL     1      23.847  48.729  49.190  1.00  0.00     0.071 A 
BRANCH  25  27
HETATM   27  C   UNL     1      21.880  50.064  48.178  1.00  0.00    -0.006 A 
HETATM   28  C   UNL     1      21.445  51.317  48.627  1.00  0.00     0.014 A 
HETATM   29  C   UNL     1      20.110  51.699  48.471  1.00  0.00     0.001 A 
HETATM   30  C   UNL     1      19.202  50.836  47.859  1.00  0.00     0.000 A 
HETATM   31  C   UNL     1      19.625  49.586  47.411  1.00  0.00     0.001 A 
HETATM   32  C   UNL     1      20.956  49.199  47.575  1.00  0.00     0.014 A 
ENDBRANCH  25  27
ENDBRANCH   1  21
TORSDOF 6
ENDMDL
MODEL 4
REMARK VINA RESULT:     -10.3      1.377      2.584
REMARK  6 active torsions:
REMARK  status: ('A' for Active; 'I' for Inactive)
REMARK    1  A    between atoms: C_4  and  C_5 
REMARK    2  A    between atoms: C_9  and  C_10 
REMARK       I    between atoms: C_10  and  N_11 
REMARK    3  A    between atoms: N_11  and  N_12 
REMARK       I    between atoms: N_12  and  C_13 
REMARK    4  A    between atoms: C_13  and  C_14 
REMARK    5  A    between atoms: C_14  and  O_15 
REMARK    6  A    between atoms: O_15  and  C_16 
ROOT
HETATM    1  C   UNL     1      26.003  43.733  50.071  1.00  0.00     0.288 C 
HETATM    2  N   UNL     1      26.063  43.187  51.340  1.00  0.00    -0.262 N 
HETATM    3  O   UNL     1      26.828  43.350  49.241  1.00  0.00    -0.264 OA
HETATM    4  H   UNL     1      26.746  42.444  51.464  1.00  0.00     0.190 HD
ENDROOT
BRANCH   2   5
HETATM    5  N   UNL     1      25.158  43.409  52.371  1.00  0.00    -0.265 N 
HETATM    6  C   UNL     1      25.434  44.222  53.453  1.00  0.00     0.260 C 
HETATM    7  O   UNL     1      24.757  44.085  54.471  1.00  0.00    -0.269 OA
HETATM    8  H   UNL     1      24.462  42.687  52.543  1.00  0.00     0.190 HD
BRANCH   6   9
HETATM    9  C   UNL     1      26.532  45.283  53.291  1.00  0.00     0.280 C 
BRANCH   9  10
HETATM   10  O   UNL     1      27.785  44.781  52.836  1.00  0.00    -0.342 OA
BRANCH  10  11
HETATM   11  C   UNL     1      28.640  44.423  53.844  1.00  0.00     0.070 A 
HETATM   12  C   UNL     1      28.706  45.273  54.947  1.00  0.00     0.049 A 
HETATM   13  C   UNL     1      29.608  45.021  55.995  1.00  0.00    -0.023 A 
HETATM   14  C   UNL     1      30.468  43.903  55.913  1.00  0.00    -0.026 A 
HETATM   15  C   UNL     1      29.684  45.864  57.118  1.00  0.00     0.012 A 
HETATM   16  C   UNL     1      30.396  43.063  54.791  1.00  0.00     0.015 A 
HETATM   17  C   UNL     1      31.388  43.664  56.948  1.00  0.00     0.012 A 
HETATM   18  C   UNL     1      29.492  43.325  53.759  1.00  0.00     0.037 A 
HETATM   19  C   UNL     1      31.455  44.514  58.053  1.00  0.00     0.001 A 
HETATM   20  C   UNL     1      30.601  45.610  58.140  1.00  0.00     0.001 A 
ENDBRANCH  10  11
ENDBRANCH   9  10
ENDBRANCH   6   9
ENDBRANCH   2   5
BRANCH   1  21
HETATM   21  C   UNL     1      25.062  44.778  49.765  1.00  0.00     0.121 A 
HETATM   22  N   UNL     1      23.797  44.471  49.339  1.00  0.00    -0.272 N 
HETATM   23  N   UNL     1      23.084  45.525  48.924  1.00  0.00    -0.174 NA
HETATM   24  H   UNL     1      23.394  43.542  49.251  1.00  0.00     0.189 HD
HETATM   25  C   UNL     1      23.870  46.581  49.179  1.00  0.00     0.089 A 
HETATM   26  C   UNL     1      25.094  46.158  49.765  1.00  0.00     0.071 A 
BRANCH  25  27
HETATM   27  C   UNL     1      23.483  47.941  48.818  1.00  0.00    -0.006 A 
HETATM   28  C   UNL     1      22.188  48.227  48.364  1.00  0.00     0.014 A 
HETATM   29  C   UNL     1      21.818  49.541  48.069  1.00  0.00     0.001 A 
HETATM   30  C   UNL     1      22.733  50.580  48.233  1.00  0.00     0.000 A 
HETATM   31  C   UNL     1      24.024  50.306  48.682  1.00  0.00     0.001 A 
HETATM   32  C   UNL     1      24.399  48.991  48.967  1.00  0.00     0.014 A 
ENDBRANCH  25  27
ENDBRANCH   1  21
TORSDOF 6
ENDMDL
MODEL 5
REMARK VINA RESULT:     -10.2      3.334      4.767
REMARK  6 active torsions:
REMARK  status: ('A' for Active; 'I' for Inactive)
REMARK    1  A    between atoms: C_4  and  C_5 
REMARK    2  A    between atoms: C_9  and  C_10 
REMARK       I    between atoms: C_10  and  N_11 
REMARK    3  A    between atoms: N_11  and  N_12 
REMARK       I    between atoms: N_12  and  C_13 
REMARK    4  A    between atoms: C_13  and  C_14 
REMARK    5  A    between atoms: C_14  and  O_15 
REMARK    6  A    between atoms: O_15  and  C_16 
ROOT
HETATM    1  C   UNL     1      24.835  48.204  49.548  1.00  0.00     0.288 C 
HETATM    2  N   UNL     1      24.994  47.077  50.333  1.00  0.00    -0.262 N 
HETATM    3  O   UNL     1      25.817  48.927  49.375  1.00  0.00    -0.264 OA
HETATM    4  H   UNL     1      25.944  46.893  50.646  1.00  0.00     0.190 HD
ENDROOT
BRANCH   2   5
HETATM    5  N   UNL     1      24.041  46.090  50.551  1.00  0.00    -0.265 N 
HETATM    6  C   UNL     1      24.330  44.886  51.162  1.00  0.00     0.260 C 
HETATM    7  O   UNL     1      23.552  43.947  50.996  1.00  0.00    -0.269 OA
HETATM    8  H   UNL     1      23.238  46.073  49.926  1.00  0.00     0.190 HD
BRANCH   6   9
HETATM    9  C   UNL     1      25.575  44.817  52.057  1.00  0.00     0.280 C 
BRANCH   9  10
HETATM   10  O   UNL     1      25.575  45.729  53.152  1.00  0.00    -0.342 OA
BRANCH  10  11
HETATM   11  C   UNL     1      26.747  45.751  53.858  1.00  0.00     0.070 A 
HETATM   12  C   UNL     1      27.505  44.580  53.861  1.00  0.00     0.049 A 
HETATM   13  C   UNL     1      28.686  44.490  54.617  1.00  0.00    -0.023 A 
HETATM   14  C   UNL     1      29.095  45.597  55.395  1.00  0.00    -0.026 A 
HETATM   15  C   UNL     1      29.465  43.320  54.627  1.00  0.00     0.012 A 
HETATM   16  C   UNL     1      28.316  46.765  55.388  1.00  0.00     0.015 A 
HETATM   17  C   UNL     1      30.262  45.500  56.172  1.00  0.00     0.012 A 
HETATM   18  C   UNL     1      27.145  46.839  54.630  1.00  0.00     0.037 A 
HETATM   19  C   UNL     1      31.020  44.328  56.175  1.00  0.00     0.001 A 
HETATM   20  C   UNL     1      30.625  43.241  55.402  1.00  0.00     0.001 A 
ENDBRANCH  10  11
ENDBRANCH   9  10
ENDBRANCH   6   9
ENDBRANCH   2   5
BRANCH   1  21
HETATM   21  C   UNL     1      23.543  48.560  49.026  1.00  0.00     0.121 A 
HETATM   22  N   UNL     1      22.957  47.804  48.045  1.00  0.00    -0.272 N 
HETATM   23  N   UNL     1      21.843  48.338  47.529  1.00  0.00    -0.174 NA
HETATM   24  H   UNL     1      23.318  46.942  47.644  1.00  0.00     0.189 HD
HETATM   25  C   UNL     1      21.627  49.438  48.265  1.00  0.00     0.089 A 
HETATM   26  C   UNL     1      22.638  49.577  49.256  1.00  0.00     0.071 A 
BRANCH  25  27
HETATM   27  C   UNL     1      20.525  50.353  47.989  1.00  0.00    -0.006 A 
HETATM   28  C   UNL     1      19.604  50.086  46.967  1.00  0.00     0.014 A 
HETATM   29  C   UNL     1      18.526  50.946  46.746  1.00  0.00     0.001 A 
HETATM   30  C   UNL     1      18.353  52.073  47.548  1.00  0.00     0.000 A 
HETATM   31  C   UNL     1      19.265  52.349  48.566  1.00  0.00     0.001 A 
HETATM   32  C   UNL     1      20.349  51.496  48.781  1.00  0.00     0.014 A 
ENDBRANCH  25  27
ENDBRANCH   1  21
TORSDOF 6
ENDMDL
MODEL 6
REMARK VINA RESULT:     -10.2      3.458      9.542
REMARK  6 active torsions:
REMARK  status: ('A' for Active; 'I' for Inactive)
REMARK    1  A    between atoms: C_4  and  C_5 
REMARK    2  A    between atoms: C_9  and  C_10 
REMARK       I    between atoms: C_10  and  N_11 
REMARK    3  A    between atoms: N_11  and  N_12 
REMARK       I    between atoms: N_12  and  C_13 
REMARK    4  A    between atoms: C_13  and  C_14 
REMARK    5  A    between atoms: C_14  and  O_15 
REMARK    6  A    between atoms: O_15  and  C_16 
ROOT
HETATM    1  C   UNL     1      24.968  44.147  51.752  1.00  0.00     0.288 C 
HETATM    2  N   UNL     1      24.319  45.298  51.346  1.00  0.00    -0.262 N 
HETATM    3  O   UNL     1      24.348  43.085  51.687  1.00  0.00    -0.264 OA
HETATM    4  H   UNL     1      23.393  45.161  50.947  1.00  0.00     0.190 HD
ENDROOT
BRANCH   2   5
HETATM    5  N   UNL     1      24.883  46.564  51.243  1.00  0.00    -0.265 N 
HETATM    6  C   UNL     1      24.720  47.373  50.136  1.00  0.00     0.260 C 
HETATM    7  O   UNL     1      25.521  48.292  49.964  1.00  0.00    -0.269 OA
HETATM    8  H   UNL     1      25.726  46.743  51.785  1.00  0.00     0.190 HD
BRANCH   6   9
HETATM    9  C   UNL     1      23.513  47.108  49.225  1.00  0.00     0.280 C 
BRANCH   9  10
HETATM   10  O   UNL     1      23.370  48.023  48.142  1.00  0.00    -0.342 OA
BRANCH  10  11
HETATM   11  C   UNL     1      22.503  49.052  48.395  1.00  0.00     0.070 A 
HETATM   12  C   UNL     1      21.304  48.727  49.029  1.00  0.00     0.049 A 
HETATM   13  C   UNL     1      20.326  49.708  49.264  1.00  0.00    -0.023 A 
HETATM   14  C   UNL     1      20.559  51.034  48.832  1.00  0.00    -0.026 A 
HETATM   15  C   UNL     1      19.114  49.399  49.906  1.00  0.00     0.012 A 
HETATM   16  C   UNL     1      21.767  51.342  48.187  1.00  0.00     0.015 A 
HETATM   17  C   UNL     1      19.571  52.010  49.043  1.00  0.00     0.012 A 
HETATM   18  C   UNL     1      22.731  50.356  47.963  1.00  0.00     0.037 A 
HETATM   19  C   UNL     1      18.371  51.685  49.677  1.00  0.00     0.001 A 
HETATM   20  C   UNL     1      18.144  50.383  50.112  1.00  0.00     0.001 A 
ENDBRANCH  10  11
ENDBRANCH   9  10
ENDBRANCH   6   9
ENDBRANCH   2   5
BRANCH   1  21
HETATM   21  C   UNL     1      26.291  44.209  52.313  1.00  0.00     0.121 A 
HETATM   22  N   UNL     1      27.373  43.781  51.590  1.00  0.00    -0.272 N 
HETATM   23  N   UNL     1      28.516  43.729  52.286  1.00  0.00    -0.174 NA
HETATM   24  H   UNL     1      27.370  43.448  50.630  1.00  0.00     0.189 HD
HETATM   25  C   UNL     1      28.199  44.237  53.486  1.00  0.00     0.089 A 
HETATM   26  C   UNL     1      26.827  44.608  53.521  1.00  0.00     0.071 A 
BRANCH  25  27
HETATM   27  C   UNL     1      29.165  44.309  54.577  1.00  0.00    -0.006 A 
HETATM   28  C   UNL     1      29.206  45.416  55.435  1.00  0.00     0.014 A 
HETATM   29  C   UNL     1      30.103  45.448  56.505  1.00  0.00     0.001 A 
HETATM   30  C   UNL     1      30.961  44.372  56.732  1.00  0.00     0.000 A 
HETATM   31  C   UNL     1      30.930  43.267  55.883  1.00  0.00     0.001 A 
HETATM   32  C   UNL     1      30.041  43.238  54.807  1.00  0.00     0.014 A 
ENDBRANCH  25  27
ENDBRANCH   1  21
TORSDOF 6
ENDMDL
MODEL 7
REMARK VINA RESULT:     -10.1      1.614      8.137
REMARK  6 active torsions:
REMARK  status: ('A' for Active; 'I' for Inactive)
REMARK    1  A    between atoms: C_4  and  C_5 
REMARK    2  A    between atoms: C_9  and  C_10 
REMARK       I    between atoms: C_10  and  N_11 
REMARK    3  A    between atoms: N_11  and  N_12 
REMARK       I    between atoms: N_12  and  C_13 
REMARK    4  A    between atoms: C_13  and  C_14 
REMARK    5  A    between atoms: C_14  and  O_15 
REMARK    6  A    between atoms: O_15  and  C_16 
ROOT
HETATM    1  C   UNL     1      27.007  41.618  50.538  1.00  0.00     0.288 C 
HETATM    2  N   UNL     1      25.652  41.867  50.414  1.00  0.00    -0.262 N 
HETATM    3  O   UNL     1      27.581  41.079  49.591  1.00  0.00    -0.264 OA
HETATM    4  H   UNL     1      25.249  41.651  49.506  1.00  0.00     0.190 HD
ENDROOT
BRANCH   2   5
HETATM    5  N   UNL     1      24.861  42.560  51.322  1.00  0.00    -0.265 N 
HETATM    6  C   UNL     1      24.881  43.936  51.442  1.00  0.00     0.260 C 
HETATM    7  O   UNL     1      24.446  44.435  52.479  1.00  0.00    -0.269 OA
HETATM    8  H   UNL     1      24.565  42.060  52.158  1.00  0.00     0.190 HD
BRANCH   6   9
HETATM    9  C   UNL     1      25.392  44.752  50.247  1.00  0.00     0.280 C 
BRANCH   9  10
HETATM   10  O   UNL     1      26.179  45.889  50.593  1.00  0.00    -0.342 OA
BRANCH  10  11
HETATM   11  C   UNL     1      25.752  47.056  50.019  1.00  0.00     0.070 A 
HETATM   12  C   UNL     1      24.380  47.189  49.803  1.00  0.00     0.049 A 
HETATM   13  C   UNL     1      23.862  48.323  49.154  1.00  0.00    -0.023 A 
HETATM   14  C   UNL     1      24.747  49.327  48.703  1.00  0.00    -0.026 A 
HETATM   15  C   UNL     1      22.482  48.475  48.933  1.00  0.00     0.012 A 
HETATM   16  C   UNL     1      26.126  49.174  48.920  1.00  0.00     0.015 A 
HETATM   17  C   UNL     1      24.232  50.449  48.032  1.00  0.00     0.012 A 
HETATM   18  C   UNL     1      26.626  48.042  49.568  1.00  0.00     0.037 A 
HETATM   19  C   UNL     1      22.860  50.582  47.815  1.00  0.00     0.001 A 
HETATM   20  C   UNL     1      21.986  49.599  48.268  1.00  0.00     0.001 A 
ENDBRANCH  10  11
ENDBRANCH   9  10
ENDBRANCH   6   9
ENDBRANCH   2   5
BRANCH   1  21
HETATM   21  C   UNL     1      27.696  41.901  51.768  1.00  0.00     0.121 A 
HETATM   22  N   UNL     1      27.620  41.032  52.824  1.00  0.00    -0.272 N 
HETATM   23  N   UNL     1      28.160  41.493  53.959  1.00  0.00    -0.174 NA
HETATM   24  H   UNL     1      27.148  40.131  52.837  1.00  0.00     0.189 HD
HETATM   25  C   UNL     1      28.703  42.670  53.616  1.00  0.00     0.089 A 
HETATM   26  C   UNL     1      28.488  42.932  52.235  1.00  0.00     0.071 A 
BRANCH  25  27
HETATM   27  C   UNL     1      29.352  43.539  54.592  1.00  0.00    -0.006 A 
HETATM   28  C   UNL     1      28.804  44.783  54.930  1.00  0.00     0.014 A 
HETATM   29  C   UNL     1      29.410  45.581  55.903  1.00  0.00     0.001 A 
HETATM   30  C   UNL     1      30.564  45.141  56.551  1.00  0.00     0.000 A 
HETATM   31  C   UNL     1      31.119  43.906  56.220  1.00  0.00     0.001 A 
HETATM   32  C   UNL     1      30.519  43.111  55.240  1.00  0.00     0.014 A 
ENDBRANCH  25  27
ENDBRANCH   1  21
TORSDOF 6
ENDMDL
MODEL 8
REMARK VINA RESULT:     -10.0      3.499      9.647
REMARK  6 active torsions:
REMARK  status: ('A' for Active; 'I' for Inactive)
REMARK    1  A    between atoms: C_4  and  C_5 
REMARK    2  A    between atoms: C_9  and  C_10 
REMARK       I    between atoms: C_10  and  N_11 
REMARK    3  A    between atoms: N_11  and  N_12 
REMARK       I    between atoms: N_12  and  C_13 
REMARK    4  A    between atoms: C_13  and  C_14 
REMARK    5  A    between atoms: C_14  and  O_15 
REMARK    6  A    between atoms: O_15  and  C_16 
ROOT
HETATM    1  C   UNL     1      25.083  45.803  51.116  1.00  0.00     0.288 C 
HETATM    2  N   UNL     1      25.316  46.824  50.213  1.00  0.00    -0.262 N 
HETATM    3  O   UNL     1      24.107  45.078  50.924  1.00  0.00    -0.264 OA
HETATM    4  H   UNL     1      24.697  46.844  49.407  1.00  0.00     0.190 HD
ENDROOT
BRANCH   2   5
HETATM    5  N   UNL     1      26.419  47.670  50.200  1.00  0.00    -0.265 N 
HETATM    6  C   UNL     1      26.541  48.734  49.328  1.00  0.00     0.260 C 
HETATM    7  O   UNL     1      27.664  49.197  49.130  1.00  0.00    -0.269 OA
HETATM    8  H   UNL     1      27.299  47.291  50.542  1.00  0.00     0.190 HD
BRANCH   6   9
HETATM    9  C   UNL     1      25.257  49.305  48.709  1.00  0.00     0.280 C 
BRANCH   9  10
HETATM   10  O   UNL     1      24.118  49.275  49.564  1.00  0.00    -0.342 OA
BRANCH  10  11
HETATM   11  C   UNL     1      22.923  49.370  48.902  1.00  0.00     0.070 A 
HETATM   12  C   UNL     1      22.207  50.556  49.059  1.00  0.00     0.049 A 
HETATM   13  C   UNL     1      20.939  50.712  48.473  1.00  0.00    -0.023 A 
HETATM   14  C   UNL     1      20.382  49.644  47.735  1.00  0.00    -0.026 A 
HETATM   15  C   UNL     1      20.206  51.903  48.615  1.00  0.00     0.012 A 
HETATM   16  C   UNL     1      21.111  48.453  47.596  1.00  0.00     0.015 A 
HETATM   17  C   UNL     1      19.103  49.789  47.172  1.00  0.00     0.012 A 
HETATM   18  C   UNL     1      22.372  48.314  48.182  1.00  0.00     0.037 A 
HETATM   19  C   UNL     1      18.386  50.976  47.328  1.00  0.00     0.001 A 
HETATM   20  C   UNL     1      18.938  52.033  48.045  1.00  0.00     0.001 A 
ENDBRANCH  10  11
ENDBRANCH   9  10
ENDBRANCH   6   9
ENDBRANCH   2   5
BRANCH   1  21
HETATM   21  C   UNL     1      25.907  45.656  52.287  1.00  0.00     0.121 A 
HETATM   22  N   UNL     1      25.749  46.495  53.358  1.00  0.00    -0.272 N 
HETATM   23  N   UNL     1      26.687  46.363  54.304  1.00  0.00    -0.174 NA
HETATM   24  H   UNL     1      25.049  47.225  53.460  1.00  0.00     0.189 HD
HETATM   25  C   UNL     1      27.435  45.330  53.892  1.00  0.00     0.089 A 
HETATM   26  C   UNL     1      26.939  44.819  52.661  1.00  0.00     0.071 A 
BRANCH  25  27
HETATM   27  C   UNL     1      28.617  44.888  54.624  1.00  0.00    -0.006 A 
HETATM   28  C   UNL     1      29.255  43.682  54.305  1.00  0.00     0.014 A 
HETATM   29  C   UNL     1      30.415  43.296  54.981  1.00  0.00     0.001 A 
HETATM   30  C   UNL     1      30.952  44.115  55.974  1.00  0.00     0.000 A 
HETATM   31  C   UNL     1      30.324  45.316  56.300  1.00  0.00     0.001 A 
HETATM   32  C   UNL     1      29.159  45.698  55.632  1.00  0.00     0.014 A 
ENDBRANCH  25  27
ENDBRANCH   1  21
TORSDOF 6
ENDMDL
MODEL 9
REMARK VINA RESULT:     -10.0      2.976      9.438
REMARK  6 active torsions:
REMARK  status: ('A' for Active; 'I' for Inactive)
REMARK    1  A    between atoms: C_4  and  C_5 
REMARK    2  A    between atoms: C_9  and  C_10 
REMARK       I    between atoms: C_10  and  N_11 
REMARK    3  A    between atoms: N_11  and  N_12 
REMARK       I    between atoms: N_12  and  C_13 
REMARK    4  A    between atoms: C_13  and  C_14 
REMARK    5  A    between atoms: C_14  and  O_15 
REMARK    6  A    between atoms: O_15  and  C_16 
ROOT
HETATM    1  C   UNL     1      26.000  47.237  53.456  1.00  0.00     0.288 C 
HETATM    2  N   UNL     1      25.710  47.225  52.104  1.00  0.00    -0.262 N 
HETATM    3  O   UNL     1      25.402  48.047  54.165  1.00  0.00    -0.264 OA
HETATM    4  H   UNL     1      24.957  47.843  51.813  1.00  0.00     0.190 HD
ENDROOT
BRANCH   2   5
HETATM    5  N   UNL     1      26.197  46.318  51.170  1.00  0.00    -0.265 N 
HETATM    6  C   UNL     1      25.477  45.920  50.061  1.00  0.00     0.260 C 
HETATM    7  O   UNL     1      25.806  44.877  49.498  1.00  0.00    -0.269 OA
HETATM    8  H   UNL     1      26.896  45.652  51.490  1.00  0.00     0.190 HD
BRANCH   6   9
HETATM    9  C   UNL     1      24.350  46.840  49.570  1.00  0.00     0.280 C 
BRANCH   9  10
HETATM   10  O   UNL     1      24.775  48.134  49.152  1.00  0.00    -0.342 OA
BRANCH  10  11
HETATM   11  C   UNL     1      23.761  49.048  49.054  1.00  0.00     0.070 A 
HETATM   12  C   UNL     1      22.469  48.586  49.304  1.00  0.00     0.049 A 
HETATM   13  C   UNL     1      21.360  49.438  49.158  1.00  0.00    -0.023 A 
HETATM   14  C   UNL     1      21.564  50.771  48.733  1.00  0.00    -0.026 A 
HETATM   15  C   UNL     1      20.052  48.992  49.412  1.00  0.00     0.012 A 
HETATM   16  C   UNL     1      22.870  51.217  48.476  1.00  0.00     0.015 A 
HETATM   17  C   UNL     1      20.454  51.616  48.562  1.00  0.00     0.012 A 
HETATM   18  C   UNL     1      23.962  50.359  48.629  1.00  0.00     0.037 A 
HETATM   19  C   UNL     1      19.161  51.154  48.812  1.00  0.00     0.001 A 
HETATM   20  C   UNL     1      18.960  49.846  49.241  1.00  0.00     0.001 A 
ENDBRANCH  10  11
ENDBRANCH   9  10
ENDBRANCH   6   9
ENDBRANCH   2   5
BRANCH   1  21
HETATM   21  C   UNL     1      27.032  46.391  53.994  1.00  0.00     0.121 A 
HETATM   22  N   UNL     1      27.034  45.046  53.733  1.00  0.00    -0.272 N 
HETATM   23  N   UNL     1      27.941  44.351  54.430  1.00  0.00    -0.174 NA
HETATM   24  H   UNL     1      26.387  44.542  53.132  1.00  0.00     0.189 HD
HETATM   25  C   UNL     1      28.632  45.283  55.102  1.00  0.00     0.089 A 
HETATM   26  C   UNL     1      28.132  46.580  54.806  1.00  0.00     0.071 A 
BRANCH  25  27
HETATM   27  C   UNL     1      29.695  44.935  56.039  1.00  0.00    -0.006 A 
HETATM   28  C   UNL     1      29.845  45.623  57.250  1.00  0.00     0.014 A 
HETATM   29  C   UNL     1      30.836  45.246  58.159  1.00  0.00     0.001 A 
HETATM   30  C   UNL     1      31.680  44.174  57.870  1.00  0.00     0.000 A 
HETATM   31  C   UNL     1      31.541  43.484  56.667  1.00  0.00     0.001 A 
HETATM   32  C   UNL     1      30.557  43.866  55.753  1.00  0.00     0.014 A 
ENDBRANCH  25  27
ENDBRANCH   1  21
TORSDOF 6
ENDMDL
MODEL 10
REMARK VINA RESULT:      -9.8      2.759      5.953
REMARK  6 active torsions:
REMARK  status: ('A' for Active; 'I' for Inactive)
REMARK    1  A    between atoms: C_4  and  C_5 
REMARK    2  A    between atoms: C_9  and  C_10 
REMARK       I    between atoms: C_10  and  N_11 
REMARK    3  A    between atoms: N_11  and  N_12 
REMARK       I    between atoms: N_12  and  C_13 
REMARK    4  A    between atoms: C_13  and  C_14 
REMARK    5  A    between atoms: C_14  and  O_15 
REMARK    6  A    between atoms: O_15  and  C_16 
ROOT
HETATM    1  C   UNL     1      23.764  43.396  50.325  1.00  0.00     0.288 C 
HETATM    2  N   UNL     1      24.113  44.688  49.979  1.00  0.00    -0.262 N 
HETATM    3  O   UNL     1      22.606  43.192  50.691  1.00  0.00    -0.264 OA
HETATM    4  H   UNL     1      23.352  45.362  49.980  1.00  0.00     0.190 HD
ENDROOT
BRANCH   2   5
HETATM    5  N   UNL     1      25.330  45.092  49.442  1.00  0.00    -0.265 N 
HETATM    6  C   UNL     1      26.145  46.030  50.044  1.00  0.00     0.260 C 
HETATM    7  O   UNL     1      26.996  46.589  49.354  1.00  0.00    -0.269 OA
HETATM    8  H   UNL     1      25.445  45.007  48.434  1.00  0.00     0.190 HD
BRANCH   6   9
HETATM    9  C   UNL     1      25.971  46.269  51.551  1.00  0.00     0.280 C 
BRANCH   9  10
HETATM   10  O   UNL     1      26.160  45.114  52.364  1.00  0.00    -0.342 OA
BRANCH  10  11
HETATM   11  C   UNL     1      27.126  45.262  53.323  1.00  0.00     0.070 A 
HETATM   12  C   UNL     1      28.027  44.209  53.479  1.00  0.00     0.049 A 
HETATM   13  C   UNL     1      29.006  44.245  54.487  1.00  0.00    -0.023 A 
HETATM   14  C   UNL     1      29.060  45.355  55.359  1.00  0.00    -0.026 A 
HETATM   15  C   UNL     1      29.926  43.195  54.655  1.00  0.00     0.012 A 
HETATM   16  C   UNL     1      28.140  46.402  55.195  1.00  0.00     0.015 A 
HETATM   17  C   UNL     1      30.022  45.380  56.383  1.00  0.00     0.012 A 
HETATM   18  C   UNL     1      27.174  46.353  54.187  1.00  0.00     0.037 A 
HETATM   19  C   UNL     1      30.924  44.326  56.540  1.00  0.00     0.001 A 
HETATM   20  C   UNL     1      30.879  43.238  55.675  1.00  0.00     0.001 A 
ENDBRANCH  10  11
ENDBRANCH   9  10
ENDBRANCH   6   9
ENDBRANCH   2   5
BRANCH   1  21
HETATM   21  C   UNL     1      24.749  42.347  50.340  1.00  0.00     0.121 A 
HETATM   22  N   UNL     1      25.647  42.251  51.370  1.00  0.00    -0.272 N 
HETATM   23  N   UNL     1      26.612  41.345  51.178  1.00  0.00    -0.174 NA
HETATM   24  H   UNL     1      25.680  42.833  52.204  1.00  0.00     0.189 HD
HETATM   25  C   UNL     1      26.284  40.748  50.023  1.00  0.00     0.089 A 
HETATM   26  C   UNL     1      25.087  41.306  49.498  1.00  0.00     0.071 A 
BRANCH  25  27
HETATM   27  C   UNL     1      27.123  39.719  49.416  1.00  0.00    -0.006 A 
HETATM   28  C   UNL     1      26.616  38.863  48.429  1.00  0.00     0.014 A 
HETATM   29  C   UNL     1      27.445  37.917  47.822  1.00  0.00     0.001 A 
HETATM   30  C   UNL     1      28.787  37.823  48.189  1.00  0.00     0.000 A 
HETATM   31  C   UNL     1      29.300  38.668  49.171  1.00  0.00     0.001 A 
HETATM   32  C   UNL     1      28.471  39.608  49.786  1.00  0.00     0.014 A 
ENDBRANCH  25  27
ENDBRANCH   1  21
TORSDOF 6
ENDMDL
