MODEL 1
REMARK VINA RESULT:      -9.5      0.000      0.000
REMARK  5 active torsions:
REMARK  status: ('A' for Active; 'I' for Inactive)
REMARK    1  A    between atoms: C_5  and  C_6 
REMARK    2  A    between atoms: C_9  and  O_10 
REMARK    3  A    between atoms: N_14  and  C_15 
REMARK    4  A    between atoms: C_15  and  C_16 
REMARK       I    between atoms: C_16  and  N_17 
REMARK    5  A    between atoms: N_17  and  C_18 
ROOT
HETATM    1  C   UNL     1      28.467  38.775  49.810  1.00  0.00     0.156 C 
HETATM    2  N   UNL     1      27.474  39.822  49.828  1.00  0.00    -0.346 N 
HETATM    3  C   UNL     1      27.312  40.744  50.803  1.00  0.00     0.113 A 
HETATM    4  C   UNL     1      26.250  41.554  50.505  1.00  0.00     0.014 A 
HETATM    5  C   UNL     1      26.042  42.550  51.587  1.00  0.00     0.158 A 
HETATM    6  N   UNL     1      27.208  42.230  52.448  1.00  0.00    -0.325 N 
HETATM    7  C   UNL     1      27.931  41.109  52.032  1.00  0.00     0.272 A 
HETATM    8  O   UNL     1      28.879  40.584  52.587  1.00  0.00    -0.266 OA
HETATM    9  C   UNL     1      25.734  41.154  49.260  1.00  0.00     0.002 A 
HETATM   10  C   UNL     1      26.527  40.066  48.838  1.00  0.00     0.045 A 
HETATM   11  C   UNL     1      24.695  41.606  48.427  1.00  0.00     0.014 A 
HETATM   12  C   UNL     1      24.475  40.975  47.198  1.00  0.00     0.001 A 
HETATM   13  C   UNL     1      25.269  39.903  46.798  1.00  0.00     0.002 A 
HETATM   14  C   UNL     1      26.305  39.428  47.608  1.00  0.00     0.030 A 
ENDROOT
BRANCH   6  15
HETATM   15  C   UNL     1      27.402  42.827  53.763  1.00  0.00     0.229 C 
BRANCH  15  16
HETATM   16  C   UNL     1      28.676  43.676  53.900  1.00  0.00     0.235 C 
HETATM   17  N   UNL     1      28.929  44.121  55.174  1.00  0.00    -0.355 N 
HETATM   18  H   UNL     1      28.170  43.969  55.825  1.00  0.00     0.162 HD
HETATM   19  O   UNL     1      29.417  43.853  52.940  1.00  0.00    -0.272 OA
BRANCH  17  20
HETATM   20  C   UNL     1      29.998  44.995  55.640  1.00  0.00     0.084 C 
HETATM   21  C   UNL     1      29.593  46.023  56.707  1.00  0.00     0.025 C 
HETATM   22  C   UNL     1      29.824  45.604  58.159  1.00  0.00     0.002 C 
HETATM   23  C   UNL     1      31.167  44.919  58.373  1.00  0.00     0.000 C 
HETATM   24  C   UNL     1      31.363  43.754  57.412  1.00  0.00     0.002 C 
HETATM   25  C   UNL     1      31.279  44.222  55.966  1.00  0.00     0.025 C 
ENDBRANCH  17  20
ENDBRANCH  15  16
ENDBRANCH   6  15
BRANCH   5  26
HETATM   26  C   UNL     1      26.064  43.950  51.020  1.00  0.00    -0.030 A 
HETATM   27  C   UNL     1      25.057  44.845  51.418  1.00  0.00     0.012 A 
HETATM   28  C   UNL     1      25.049  46.168  50.964  1.00  0.00     0.037 A 
HETATM   29  C   UNL     1      26.047  46.634  50.110  1.00  0.00     0.068 A 
HETATM   30  C   UNL     1      27.058  45.763  49.710  1.00  0.00     0.037 A 
HETATM   31  C   UNL     1      27.068  44.438  50.165  1.00  0.00     0.012 A 
BRANCH  29  32
HETATM   32  O   UNL     1      25.921  47.945  49.745  1.00  0.00    -0.356 OA
HETATM   33  C   UNL     1      27.101  48.609  49.313  1.00  0.00     0.210 C 
ENDBRANCH  29  32
ENDBRANCH   5  26
TORSDOF 5
ENDMDL
MODEL 2
REMARK VINA RESULT:      -8.9      5.919      9.582
REMARK  5 active torsions:
REMARK  status: ('A' for Active; 'I' for Inactive)
REMARK    1  A    between atoms: C_5  and  C_6 
REMARK    2  A    between atoms: C_9  and  O_10 
REMARK    3  A    between atoms: N_14  and  C_15 
REMARK    4  A    between atoms: C_15  and  C_16 
REMARK       I    between atoms: C_16  and  N_17 
REMARK    5  A    between atoms: N_17  and  C_18 
ROOT
HETATM    1  C   UNL     1      17.524  49.013  46.036  1.00  0.00     0.156 C 
HETATM    2  N   UNL     1      18.549  49.147  47.044  1.00  0.00    -0.346 N 
HETATM    3  C   UNL     1      19.581  48.296  47.242  1.00  0.00     0.113 A 
HETATM    4  C   UNL     1      20.330  48.714  48.308  1.00  0.00     0.014 A 
HETATM    5  C   UNL     1      21.447  47.768  48.556  1.00  0.00     0.158 A 
HETATM    6  N   UNL     1      21.256  46.849  47.406  1.00  0.00    -0.325 N 
HETATM    7  C   UNL     1      20.104  47.108  46.658  1.00  0.00     0.272 A 
HETATM    8  O   UNL     1      19.667  46.472  45.716  1.00  0.00    -0.266 OA
HETATM    9  C   UNL     1      19.771  49.912  48.788  1.00  0.00     0.002 A 
HETATM   10  C   UNL     1      18.653  50.179  47.970  1.00  0.00     0.045 A 
HETATM   11  C   UNL     1      20.100  50.817  49.814  1.00  0.00     0.014 A 
HETATM   12  C   UNL     1      19.319  51.963  49.995  1.00  0.00     0.001 A 
HETATM   13  C   UNL     1      18.220  52.211  49.177  1.00  0.00     0.002 A 
HETATM   14  C   UNL     1      17.866  51.326  48.154  1.00  0.00     0.030 A 
ENDROOT
BRANCH   6  15
HETATM   15  C   UNL     1      22.013  45.614  47.252  1.00  0.00     0.229 C 
BRANCH  15  16
HETATM   16  C   UNL     1      22.197  44.809  48.550  1.00  0.00     0.235 C 
HETATM   17  N   UNL     1      23.499  44.697  48.969  1.00  0.00    -0.355 N 
HETATM   18  H   UNL     1      24.182  45.020  48.295  1.00  0.00     0.162 HD
HETATM   19  O   UNL     1      21.227  44.385  49.167  1.00  0.00    -0.272 OA
BRANCH  17  20
HETATM   20  C   UNL     1      24.032  43.955  50.104  1.00  0.00     0.084 C 
HETATM   21  C   UNL     1      25.022  42.834  49.754  1.00  0.00     0.025 C 
HETATM   22  C   UNL     1      26.503  43.213  49.799  1.00  0.00     0.002 C 
HETATM   23  C   UNL     1      26.862  44.062  51.011  1.00  0.00     0.000 C 
HETATM   24  C   UNL     1      25.963  45.285  51.125  1.00  0.00     0.002 C 
HETATM   25  C   UNL     1      24.500  44.877  51.233  1.00  0.00     0.025 C 
ENDBRANCH  17  20
ENDBRANCH  15  16
ENDBRANCH   6  15
BRANCH   5  26
HETATM   26  C   UNL     1      22.768  48.503  48.540  1.00  0.00    -0.030 A 
HETATM   27  C   UNL     1      23.834  47.971  49.284  1.00  0.00     0.012 A 
HETATM   28  C   UNL     1      25.093  48.579  49.272  1.00  0.00     0.037 A 
HETATM   29  C   UNL     1      25.324  49.726  48.515  1.00  0.00     0.068 A 
HETATM   30  C   UNL     1      24.280  50.264  47.766  1.00  0.00     0.037 A 
HETATM   31  C   UNL     1      23.018  49.655  47.774  1.00  0.00     0.012 A 
BRANCH  29  32
HETATM   32  O   UNL     1      26.597  50.216  48.592  1.00  0.00    -0.356 OA
HETATM   33  C   UNL     1      27.610  49.311  49.011  1.00  0.00     0.210 C 
ENDBRANCH  29  32
ENDBRANCH   5  26
TORSDOF 5
ENDMDL
MODEL 3
REMARK VINA RESULT:      -8.7      2.852      8.255
REMARK  5 active torsions:
REMARK  status: ('A' for Active; 'I' for Inactive)
REMARK    1  A    between atoms: C_5  and  C_6 
REMARK    2  A    between atoms: C_9  and  O_10 
REMARK    3  A    between atoms: N_14  and  C_15 
REMARK    4  A    between atoms: C_15  and  C_16 
REMARK       I    between atoms: C_16  and  N_17 
REMARK    5  A    between atoms: N_17  and  C_18 
ROOT
HETATM    1  C   UNL     1      27.971  47.797  54.593  1.00  0.00     0.156 C 
HETATM    2  N   UNL     1      27.866  46.386  54.305  1.00  0.00    -0.346 N 
HETATM    3  C   UNL     1      26.926  45.804  53.526  1.00  0.00     0.113 A 
HETATM    4  C   UNL     1      27.111  44.448  53.509  1.00  0.00     0.014 A 
HETATM    5  C   UNL     1      26.063  43.795  52.684  1.00  0.00     0.158 A 
HETATM    6  N   UNL     1      25.362  44.999  52.173  1.00  0.00    -0.325 N 
HETATM    7  C   UNL     1      25.818  46.199  52.724  1.00  0.00     0.272 A 
HETATM    8  O   UNL     1      25.378  47.320  52.542  1.00  0.00    -0.266 OA
HETATM    9  C   UNL     1      28.248  44.155  54.284  1.00  0.00     0.002 A 
HETATM   10  C   UNL     1      28.722  45.393  54.769  1.00  0.00     0.045 A 
HETATM   11  C   UNL     1      28.947  42.979  54.611  1.00  0.00     0.014 A 
HETATM   12  C   UNL     1      30.098  43.062  55.402  1.00  0.00     0.001 A 
HETATM   13  C   UNL     1      30.551  44.292  55.871  1.00  0.00     0.002 A 
HETATM   14  C   UNL     1      29.873  45.476  55.566  1.00  0.00     0.030 A 
ENDROOT
BRANCH   6  15
HETATM   15  C   UNL     1      24.121  44.923  51.414  1.00  0.00     0.229 C 
BRANCH  15  16
HETATM   16  C   UNL     1      24.187  45.553  50.013  1.00  0.00     0.235 C 
HETATM   17  N   UNL     1      23.617  46.798  49.921  1.00  0.00    -0.355 N 
HETATM   18  H   UNL     1      23.091  47.075  50.740  1.00  0.00     0.162 HD
HETATM   19  O   UNL     1      24.776  44.987  49.099  1.00  0.00    -0.272 OA
BRANCH  17  20
HETATM   20  C   UNL     1      23.445  47.639  48.744  1.00  0.00     0.084 C 
HETATM   21  C   UNL     1      22.107  47.477  48.006  1.00  0.00     0.025 C 
HETATM   22  C   UNL     1      21.006  48.463  48.397  1.00  0.00     0.002 C 
HETATM   23  C   UNL     1      21.513  49.891  48.547  1.00  0.00     0.000 C 
HETATM   24  C   UNL     1      22.701  49.968  49.496  1.00  0.00     0.002 C 
HETATM   25  C   UNL     1      23.847  49.094  49.006  1.00  0.00     0.025 C 
ENDBRANCH  17  20
ENDBRANCH  15  16
ENDBRANCH   6  15
BRANCH   5  26
HETATM   26  C   UNL     1      26.699  42.951  51.604  1.00  0.00    -0.030 A 
HETATM   27  C   UNL     1      27.074  41.636  51.922  1.00  0.00     0.012 A 
HETATM   28  C   UNL     1      27.624  40.790  50.953  1.00  0.00     0.037 A 
HETATM   29  C   UNL     1      27.809  41.231  49.644  1.00  0.00     0.068 A 
HETATM   30  C   UNL     1      27.438  42.531  49.309  1.00  0.00     0.037 A 
HETATM   31  C   UNL     1      26.884  43.379  50.277  1.00  0.00     0.012 A 
BRANCH  29  32
HETATM   32  O   UNL     1      28.355  40.305  48.800  1.00  0.00    -0.356 OA
HETATM   33  C   UNL     1      28.628  39.021  49.345  1.00  0.00     0.210 C 
ENDBRANCH  29  32
ENDBRANCH   5  26
TORSDOF 5
ENDMDL
MODEL 4
REMARK VINA RESULT:      -8.5      5.976     10.034
REMARK  5 active torsions:
REMARK  status: ('A' for Active; 'I' for Inactive)
REMARK    1  A    between atoms: C_5  and  C_6 
REMARK    2  A    between atoms: C_9  and  O_10 
REMARK    3  A    between atoms: N_14  and  C_15 
REMARK    4  A    between atoms: C_15  and  C_16 
REMARK       I    between atoms: C_16  and  N_17 
REMARK    5  A    between atoms: N_17  and  C_18 
ROOT
HETATM    1  C   UNL     1      27.929  47.795  49.101  1.00  0.00     0.156 C 
HETATM    2  N   UNL     1      26.577  47.401  49.418  1.00  0.00    -0.346 N 
HETATM    3  C   UNL     1      25.462  48.124  49.173  1.00  0.00     0.113 A 
HETATM    4  C   UNL     1      24.363  47.458  49.642  1.00  0.00     0.014 A 
HETATM    5  C   UNL     1      23.135  48.260  49.407  1.00  0.00     0.158 A 
HETATM    6  N   UNL     1      23.719  49.394  48.648  1.00  0.00    -0.325 N 
HETATM    7  C   UNL     1      25.113  49.363  48.564  1.00  0.00     0.272 A 
HETATM    8  O   UNL     1      25.850  50.197  48.070  1.00  0.00    -0.266 OA
HETATM    9  C   UNL     1      24.794  46.232  50.179  1.00  0.00     0.002 A 
HETATM   10  C   UNL     1      26.196  46.205  50.018  1.00  0.00     0.045 A 
HETATM   11  C   UNL     1      24.151  45.127  50.764  1.00  0.00     0.014 A 
HETATM   12  C   UNL     1      24.912  44.024  51.167  1.00  0.00     0.001 A 
HETATM   13  C   UNL     1      26.294  44.014  50.999  1.00  0.00     0.002 A 
HETATM   14  C   UNL     1      26.960  45.101  50.425  1.00  0.00     0.030 A 
ENDROOT
BRANCH   6  15
HETATM   15  C   UNL     1      22.952  50.581  48.293  1.00  0.00     0.229 C 
BRANCH  15  16
HETATM   16  C   UNL     1      21.908  51.006  49.340  1.00  0.00     0.235 C 
HETATM   17  N   UNL     1      20.636  51.153  48.846  1.00  0.00    -0.355 N 
HETATM   18  H   UNL     1      20.575  51.117  47.837  1.00  0.00     0.162 HD
HETATM   19  O   UNL     1      22.216  51.120  50.520  1.00  0.00    -0.272 OA
BRANCH  17  20
HETATM   20  C   UNL     1      19.436  51.607  49.538  1.00  0.00     0.084 C 
HETATM   21  C   UNL     1      18.553  52.589  48.753  1.00  0.00     0.025 C 
HETATM   22  C   UNL     1      17.399  51.967  47.966  1.00  0.00     0.002 C 
HETATM   23  C   UNL     1      16.660  50.889  48.746  1.00  0.00     0.000 C 
HETATM   24  C   UNL     1      17.615  49.829  49.280  1.00  0.00     0.002 C 
HETATM   25  C   UNL     1      18.668  50.451  50.186  1.00  0.00     0.025 C 
ENDBRANCH  17  20
ENDBRANCH  15  16
ENDBRANCH   6  15
BRANCH   5  26
HETATM   26  C   UNL     1      22.125  47.453  48.625  1.00  0.00    -0.030 A 
HETATM   27  C   UNL     1      20.763  47.635  48.911  1.00  0.00     0.012 A 
HETATM   28  C   UNL     1      19.778  46.952  48.190  1.00  0.00     0.037 A 
HETATM   29  C   UNL     1      20.126  46.077  47.162  1.00  0.00     0.068 A 
HETATM   30  C   UNL     1      21.473  45.889  46.859  1.00  0.00     0.037 A 
HETATM   31  C   UNL     1      22.460  46.574  47.579  1.00  0.00     0.012 A 
BRANCH  29  32
HETATM   32  O   UNL     1      19.068  45.477  46.539  1.00  0.00    -0.356 OA
HETATM   33  C   UNL     1      17.790  46.071  46.727  1.00  0.00     0.210 C 
ENDBRANCH  29  32
ENDBRANCH   5  26
TORSDOF 5
ENDMDL
MODEL 5
REMARK VINA RESULT:      -8.4      3.180      8.285
REMARK  5 active torsions:
REMARK  status: ('A' for Active; 'I' for Inactive)
REMARK    1  A    between atoms: C_5  and  C_6 
REMARK    2  A    between atoms: C_9  and  O_10 
REMARK    3  A    between atoms: N_14  and  C_15 
REMARK    4  A    between atoms: C_15  and  C_16 
REMARK       I    between atoms: C_16  and  N_17 
REMARK    5  A    between atoms: N_17  and  C_18 
ROOT
HETATM    1  C   UNL     1      26.670  46.945  53.229  1.00  0.00     0.156 C 
HETATM    2  N   UNL     1      26.740  45.519  53.019  1.00  0.00    -0.346 N 
HETATM    3  C   UNL     1      25.916  44.793  52.232  1.00  0.00     0.113 A 
HETATM    4  C   UNL     1      26.252  43.468  52.303  1.00  0.00     0.014 A 
HETATM    5  C   UNL     1      25.331  42.656  51.468  1.00  0.00     0.158 A 
HETATM    6  N   UNL     1      24.529  43.743  50.853  1.00  0.00    -0.325 N 
HETATM    7  C   UNL     1      24.817  45.016  51.354  1.00  0.00     0.272 A 
HETATM    8  O   UNL     1      24.265  46.067  51.085  1.00  0.00    -0.266 OA
HETATM    9  C   UNL     1      27.369  43.349  53.149  1.00  0.00     0.002 A 
HETATM   10  C   UNL     1      27.674  44.656  53.583  1.00  0.00     0.045 A 
HETATM   11  C   UNL     1      28.176  42.279  53.579  1.00  0.00     0.014 A 
HETATM   12  C   UNL     1      29.264  42.535  54.419  1.00  0.00     0.001 A 
HETATM   13  C   UNL     1      29.550  43.832  54.837  1.00  0.00     0.002 A 
HETATM   14  C   UNL     1      28.763  44.914  54.430  1.00  0.00     0.030 A 
ENDROOT
BRANCH   6  15
HETATM   15  C   UNL     1      23.348  43.486  50.039  1.00  0.00     0.229 C 
BRANCH  15  16
HETATM   16  C   UNL     1      23.145  44.468  48.874  1.00  0.00     0.235 C 
HETATM   17  N   UNL     1      22.151  45.393  49.076  1.00  0.00    -0.355 N 
HETATM   18  H   UNL     1      21.578  45.215  49.891  1.00  0.00     0.162 HD
HETATM   19  O   UNL     1      23.883  44.440  47.895  1.00  0.00    -0.272 OA
BRANCH  17  20
HETATM   20  C   UNL     1      21.654  46.413  48.162  1.00  0.00     0.084 C 
HETATM   21  C   UNL     1      20.151  46.716  48.265  1.00  0.00     0.025 C 
HETATM   22  C   UNL     1      19.766  47.887  49.171  1.00  0.00     0.002 C 
HETATM   23  C   UNL     1      20.677  49.095  48.998  1.00  0.00     0.000 C 
HETATM   24  C   UNL     1      22.144  48.719  49.156  1.00  0.00     0.002 C 
HETATM   25  C   UNL     1      22.546  47.658  48.141  1.00  0.00     0.025 C 
ENDBRANCH  17  20
ENDBRANCH  15  16
ENDBRANCH   6  15
BRANCH   5  26
HETATM   26  C   UNL     1      26.116  41.835  50.471  1.00  0.00    -0.030 A 
HETATM   27  C   UNL     1      26.205  40.449  50.676  1.00  0.00     0.012 A 
HETATM   28  C   UNL     1      26.878  39.629  49.765  1.00  0.00     0.037 A 
HETATM   29  C   UNL     1      27.473  40.168  48.625  1.00  0.00     0.068 A 
HETATM   30  C   UNL     1      27.390  41.540  48.403  1.00  0.00     0.037 A 
HETATM   31  C   UNL     1      26.713  42.363  49.313  1.00  0.00     0.012 A 
BRANCH  29  32
HETATM   32  O   UNL     1      28.096  39.256  47.820  1.00  0.00    -0.356 OA
HETATM   33  C   UNL     1      28.725  38.155  48.461  1.00  0.00     0.210 C 
ENDBRANCH  29  32
ENDBRANCH   5  26
TORSDOF 5
ENDMDL
MODEL 6
REMARK VINA RESULT:      -8.3      8.085     12.150
REMARK  5 active torsions:
REMARK  status: ('A' for Active; 'I' for Inactive)
REMARK    1  A    between atoms: C_5  and  C_6 
REMARK    2  A    between atoms: C_9  and  O_10 
REMARK    3  A    between atoms: N_14  and  C_15 
REMARK    4  A    between atoms: C_15  and  C_16 
REMARK       I    between atoms: C_16  and  N_17 
REMARK    5  A    between atoms: N_17  and  C_18 
ROOT
HETATM    1  C   UNL     1      23.159  44.511  49.660  1.00  0.00     0.156 C 
HETATM    2  N   UNL     1      22.879  45.820  49.120  1.00  0.00    -0.346 N 
HETATM    3  C   UNL     1      21.731  46.199  48.515  1.00  0.00     0.113 A 
HETATM    4  C   UNL     1      21.834  47.497  48.095  1.00  0.00     0.014 A 
HETATM    5  C   UNL     1      20.590  47.913  47.399  1.00  0.00     0.158 A 
HETATM    6  N   UNL     1      19.768  46.694  47.605  1.00  0.00    -0.325 N 
HETATM    7  C   UNL     1      20.460  45.638  48.204  1.00  0.00     0.272 A 
HETATM    8  O   UNL     1      20.058  44.510  48.421  1.00  0.00    -0.266 OA
HETATM    9  C   UNL     1      23.095  47.982  48.485  1.00  0.00     0.002 A 
HETATM   10  C   UNL     1      23.739  46.913  49.144  1.00  0.00     0.045 A 
HETATM   11  C   UNL     1      23.758  49.217  48.375  1.00  0.00     0.014 A 
HETATM   12  C   UNL     1      25.036  49.362  48.926  1.00  0.00     0.001 A 
HETATM   13  C   UNL     1      25.655  48.297  49.574  1.00  0.00     0.002 A 
HETATM   14  C   UNL     1      25.022  47.056  49.693  1.00  0.00     0.030 A 
ENDROOT
BRANCH   6  15
HETATM   15  C   UNL     1      18.470  46.504  46.971  1.00  0.00     0.229 C 
BRANCH  15  16
HETATM   16  C   UNL     1      17.303  47.217  47.674  1.00  0.00     0.235 C 
HETATM   17  N   UNL     1      16.461  47.897  46.830  1.00  0.00    -0.355 N 
HETATM   18  H   UNL     1      16.800  47.975  45.880  1.00  0.00     0.162 HD
HETATM   19  O   UNL     1      17.134  47.099  48.882  1.00  0.00    -0.272 OA
BRANCH  17  20
HETATM   20  C   UNL     1      15.312  48.729  47.163  1.00  0.00     0.084 C 
HETATM   21  C   UNL     1      15.643  50.128  47.703  1.00  0.00     0.025 C 
HETATM   22  C   UNL     1      15.673  51.254  46.668  1.00  0.00     0.002 C 
HETATM   23  C   UNL     1      14.518  51.181  45.678  1.00  0.00     0.000 C 
HETATM   24  C   UNL     1      14.430  49.811  45.019  1.00  0.00     0.002 C 
HETATM   25  C   UNL     1      14.248  48.716  46.061  1.00  0.00     0.025 C 
ENDBRANCH  17  20
ENDBRANCH  15  16
ENDBRANCH   6  15
BRANCH   5  26
HETATM   26  C   UNL     1      20.019  49.154  48.046  1.00  0.00    -0.030 A 
HETATM   27  C   UNL     1      19.690  50.242  47.222  1.00  0.00     0.012 A 
HETATM   28  C   UNL     1      19.115  51.401  47.755  1.00  0.00     0.037 A 
HETATM   29  C   UNL     1      18.848  51.501  49.119  1.00  0.00     0.068 A 
HETATM   30  C   UNL     1      19.162  50.429  49.951  1.00  0.00     0.037 A 
HETATM   31  C   UNL     1      19.736  49.267  49.418  1.00  0.00     0.012 A 
BRANCH  29  32
HETATM   32  O   UNL     1      18.286  52.685  49.506  1.00  0.00    -0.356 OA
HETATM   33  C   UNL     1      16.935  52.640  49.949  1.00  0.00     0.210 C 
ENDBRANCH  29  32
ENDBRANCH   5  26
TORSDOF 5
ENDMDL
MODEL 7
REMARK VINA RESULT:      -8.1      2.645      7.936
REMARK  5 active torsions:
REMARK  status: ('A' for Active; 'I' for Inactive)
REMARK    1  A    between atoms: C_5  and  C_6 
REMARK    2  A    between atoms: C_9  and  O_10 
REMARK    3  A    between atoms: N_14  and  C_15 
REMARK    4  A    between atoms: C_15  and  C_16 
REMARK       I    between atoms: C_16  and  N_17 
REMARK    5  A    between atoms: N_17  and  C_18 
ROOT
HETATM    1  C   UNL     1      28.745  43.020  54.436  1.00  0.00     0.156 C 
HETATM    2  N   UNL     1      27.964  43.770  53.482  1.00  0.00    -0.346 N 
HETATM    3  C   UNL     1      27.667  43.381  52.221  1.00  0.00     0.113 A 
HETATM    4  C   UNL     1      26.943  44.357  51.592  1.00  0.00     0.014 A 
HETATM    5  C   UNL     1      26.640  43.955  50.195  1.00  0.00     0.158 A 
HETATM    6  N   UNL     1      27.206  42.582  50.202  1.00  0.00    -0.325 N 
HETATM    7  C   UNL     1      27.885  42.255  51.378  1.00  0.00     0.272 A 
HETATM    8  O   UNL     1      28.503  41.235  51.624  1.00  0.00    -0.266 OA
HETATM    9  C   UNL     1      26.735  45.403  52.509  1.00  0.00     0.002 A 
HETATM   10  C   UNL     1      27.375  45.010  53.704  1.00  0.00     0.045 A 
HETATM   11  C   UNL     1      26.053  46.633  52.470  1.00  0.00     0.014 A 
HETATM   12  C   UNL     1      26.019  47.435  53.616  1.00  0.00     0.001 A 
HETATM   13  C   UNL     1      26.656  47.031  54.786  1.00  0.00     0.002 A 
HETATM   14  C   UNL     1      27.346  45.816  54.852  1.00  0.00     0.030 A 
ENDROOT
BRANCH   6  15
HETATM   15  C   UNL     1      27.315  41.771  48.998  1.00  0.00     0.229 C 
BRANCH  15  16
HETATM   16  C   UNL     1      26.177  40.755  48.804  1.00  0.00     0.235 C 
HETATM   17  N   UNL     1      25.478  40.901  47.632  1.00  0.00    -0.355 N 
HETATM   18  H   UNL     1      25.695  41.748  47.122  1.00  0.00     0.162 HD
HETATM   19  O   UNL     1      25.992  39.858  49.618  1.00  0.00    -0.272 OA
BRANCH  17  20
HETATM   20  C   UNL     1      24.309  40.164  47.168  1.00  0.00     0.084 C 
HETATM   21  C   UNL     1      22.952  40.735  47.605  1.00  0.00     0.025 C 
HETATM   22  C   UNL     1      22.273  41.679  46.612  1.00  0.00     0.002 C 
HETATM   23  C   UNL     1      22.354  41.185  45.173  1.00  0.00     0.000 C 
HETATM   24  C   UNL     1      23.788  40.874  44.766  1.00  0.00     0.002 C 
HETATM   25  C   UNL     1      24.396  39.818  45.679  1.00  0.00     0.025 C 
ENDBRANCH  17  20
ENDBRANCH  15  16
ENDBRANCH   6  15
BRANCH   5  26
HETATM   26  C   UNL     1      25.150  44.002  49.949  1.00  0.00    -0.030 A 
HETATM   27  C   UNL     1      24.661  44.910  48.996  1.00  0.00     0.012 A 
HETATM   28  C   UNL     1      23.298  44.969  48.690  1.00  0.00     0.037 A 
HETATM   29  C   UNL     1      22.389  44.121  49.321  1.00  0.00     0.068 A 
HETATM   30  C   UNL     1      22.856  43.210  50.265  1.00  0.00     0.037 A 
HETATM   31  C   UNL     1      24.222  43.147  50.570  1.00  0.00     0.012 A 
BRANCH  29  32
HETATM   32  O   UNL     1      21.090  44.283  48.929  1.00  0.00    -0.356 OA
HETATM   33  C   UNL     1      20.846  45.200  47.870  1.00  0.00     0.210 C 
ENDBRANCH  29  32
ENDBRANCH   5  26
TORSDOF 5
ENDMDL
MODEL 8
REMARK VINA RESULT:      -8.1      6.601     11.032
REMARK  5 active torsions:
REMARK  status: ('A' for Active; 'I' for Inactive)
REMARK    1  A    between atoms: C_5  and  C_6 
REMARK    2  A    between atoms: C_9  and  O_10 
REMARK    3  A    between atoms: N_14  and  C_15 
REMARK    4  A    between atoms: C_15  and  C_16 
REMARK       I    between atoms: C_16  and  N_17 
REMARK    5  A    between atoms: N_17  and  C_18 
ROOT
HETATM    1  C   UNL     1      26.696  49.453  48.679  1.00  0.00     0.156 C 
HETATM    2  N   UNL     1      25.568  48.616  49.010  1.00  0.00    -0.346 N 
HETATM    3  C   UNL     1      24.274  48.879  48.720  1.00  0.00     0.113 A 
HETATM    4  C   UNL     1      23.474  47.887  49.218  1.00  0.00     0.014 A 
HETATM    5  C   UNL     1      22.047  48.184  48.935  1.00  0.00     0.158 A 
HETATM    6  N   UNL     1      22.205  49.414  48.120  1.00  0.00    -0.325 N 
HETATM    7  C   UNL     1      23.520  49.882  48.046  1.00  0.00     0.272 A 
HETATM    8  O   UNL     1      23.922  50.899  47.512  1.00  0.00    -0.266 OA
HETATM    9  C   UNL     1      24.303  46.923  49.820  1.00  0.00     0.002 A 
HETATM   10  C   UNL     1      25.625  47.392  49.669  1.00  0.00     0.045 A 
HETATM   11  C   UNL     1      24.083  45.689  50.459  1.00  0.00     0.014 A 
HETATM   12  C   UNL     1      25.178  44.952  50.923  1.00  0.00     0.001 A 
HETATM   13  C   UNL     1      26.476  45.430  50.764  1.00  0.00     0.002 A 
HETATM   14  C   UNL     1      26.723  46.656  50.137  1.00  0.00     0.030 A 
ENDROOT
BRANCH   6  15
HETATM   15  C   UNL     1      21.073  50.230  47.699  1.00  0.00     0.229 C 
BRANCH  15  16
HETATM   16  C   UNL     1      19.865  50.189  48.650  1.00  0.00     0.235 C 
HETATM   17  N   UNL     1      18.762  49.550  48.140  1.00  0.00    -0.355 N 
HETATM   18  H   UNL     1      18.829  49.329  47.155  1.00  0.00     0.162 HD
HETATM   19  O   UNL     1      19.949  50.634  49.789  1.00  0.00    -0.272 OA
BRANCH  17  20
HETATM   20  C   UNL     1      17.442  49.393  48.737  1.00  0.00     0.084 C 
HETATM   21  C   UNL     1      16.424  50.488  48.386  1.00  0.00     0.025 C 
HETATM   22  C   UNL     1      15.502  50.189  47.203  1.00  0.00     0.002 C 
HETATM   23  C   UNL     1      14.967  48.764  47.213  1.00  0.00     0.000 C 
HETATM   24  C   UNL     1      16.091  47.743  47.325  1.00  0.00     0.002 C 
HETATM   25  C   UNL     1      16.906  47.966  48.591  1.00  0.00     0.025 C 
ENDBRANCH  17  20
ENDBRANCH  15  16
ENDBRANCH   6  15
BRANCH   5  26
HETATM   26  C   UNL     1      21.411  47.033  48.190  1.00  0.00    -0.030 A 
HETATM   27  C   UNL     1      20.290  46.409  48.761  1.00  0.00     0.012 A 
HETATM   28  C   UNL     1      19.630  45.370  48.098  1.00  0.00     0.037 A 
HETATM   29  C   UNL     1      20.066  44.930  46.849  1.00  0.00     0.068 A 
HETATM   30  C   UNL     1      21.172  45.541  46.264  1.00  0.00     0.037 A 
HETATM   31  C   UNL     1      21.834  46.584  46.925  1.00  0.00     0.012 A 
BRANCH  29  32
HETATM   32  O   UNL     1      19.331  43.910  46.314  1.00  0.00    -0.356 OA
HETATM   33  C   UNL     1      18.535  44.218  45.177  1.00  0.00     0.210 C 
ENDBRANCH  29  32
ENDBRANCH   5  26
TORSDOF 5
ENDMDL
MODEL 9
REMARK VINA RESULT:      -8.1      2.703      7.300
REMARK  5 active torsions:
REMARK  status: ('A' for Active; 'I' for Inactive)
REMARK    1  A    between atoms: C_5  and  C_6 
REMARK    2  A    between atoms: C_9  and  O_10 
REMARK    3  A    between atoms: N_14  and  C_15 
REMARK    4  A    between atoms: C_15  and  C_16 
REMARK       I    between atoms: C_16  and  N_17 
REMARK    5  A    between atoms: N_17  and  C_18 
ROOT
HETATM    1  C   UNL     1      28.741  42.767  54.126  1.00  0.00     0.156 C 
HETATM    2  N   UNL     1      27.934  43.578  53.245  1.00  0.00    -0.346 N 
HETATM    3  C   UNL     1      27.615  43.281  51.966  1.00  0.00     0.113 A 
HETATM    4  C   UNL     1      26.871  44.294  51.425  1.00  0.00     0.014 A 
HETATM    5  C   UNL     1      26.543  43.995  50.008  1.00  0.00     0.158 A 
HETATM    6  N   UNL     1      27.120  42.631  49.902  1.00  0.00    -0.325 N 
HETATM    7  C   UNL     1      27.826  42.223  51.037  1.00  0.00     0.272 A 
HETATM    8  O   UNL     1      28.457  41.194  51.193  1.00  0.00    -0.266 OA
HETATM    9  C   UNL     1      26.673  45.267  52.422  1.00  0.00     0.002 A 
HETATM   10  C   UNL     1      27.340  44.792  53.571  1.00  0.00     0.045 A 
HETATM   11  C   UNL     1      25.980  46.490  52.489  1.00  0.00     0.014 A 
HETATM   12  C   UNL     1      25.962  47.204  53.691  1.00  0.00     0.001 A 
HETATM   13  C   UNL     1      26.626  46.720  54.815  1.00  0.00     0.002 A 
HETATM   14  C   UNL     1      27.327  45.510  54.777  1.00  0.00     0.030 A 
ENDROOT
BRANCH   6  15
HETATM   15  C   UNL     1      27.212  41.913  48.638  1.00  0.00     0.229 C 
BRANCH  15  16
HETATM   16  C   UNL     1      27.154  40.382  48.765  1.00  0.00     0.235 C 
HETATM   17  N   UNL     1      28.352  39.747  48.547  1.00  0.00    -0.355 N 
HETATM   18  H   UNL     1      29.078  40.347  48.178  1.00  0.00     0.162 HD
HETATM   19  O   UNL     1      26.120  39.820  49.110  1.00  0.00    -0.272 OA
BRANCH  17  20
HETATM   20  C   UNL     1      28.636  38.318  48.519  1.00  0.00     0.084 C 
HETATM   21  C   UNL     1      28.168  37.528  49.750  1.00  0.00     0.025 C 
HETATM   22  C   UNL     1      26.793  36.867  49.637  1.00  0.00     0.002 C 
HETATM   23  C   UNL     1      26.568  36.192  48.290  1.00  0.00     0.000 C 
HETATM   24  C   UNL     1      26.832  37.147  47.134  1.00  0.00     0.002 C 
HETATM   25  C   UNL     1      28.258  37.677  47.180  1.00  0.00     0.025 C 
ENDBRANCH  17  20
ENDBRANCH  15  16
ENDBRANCH   6  15
BRANCH   5  26
HETATM   26  C   UNL     1      25.048  44.046  49.795  1.00  0.00    -0.030 A 
HETATM   27  C   UNL     1      24.521  45.098  49.030  1.00  0.00     0.012 A 
HETATM   28  C   UNL     1      23.151  45.175  48.758  1.00  0.00     0.037 A 
HETATM   29  C   UNL     1      22.274  44.203  49.237  1.00  0.00     0.068 A 
HETATM   30  C   UNL     1      22.780  43.148  49.993  1.00  0.00     0.037 A 
HETATM   31  C   UNL     1      24.152  43.068  50.264  1.00  0.00     0.012 A 
BRANCH  29  32
HETATM   32  O   UNL     1      20.965  44.398  48.898  1.00  0.00    -0.356 OA
HETATM   33  C   UNL     1      20.587  45.715  48.520  1.00  0.00     0.210 C 
ENDBRANCH  29  32
ENDBRANCH   5  26
TORSDOF 5
ENDMDL
MODEL 10
REMARK VINA RESULT:      -8.0      2.451      8.360
REMARK  5 active torsions:
REMARK  status: ('A' for Active; 'I' for Inactive)
REMARK    1  A    between atoms: C_5  and  C_6 
REMARK    2  A    between atoms: C_9  and  O_10 
REMARK    3  A    between atoms: N_14  and  C_15 
REMARK    4  A    between atoms: C_15  and  C_16 
REMARK       I    between atoms: C_16  and  N_17 
REMARK    5  A    between atoms: N_17  and  C_18 
ROOT
HETATM    1  C   UNL     1      28.006  47.757  54.871  1.00  0.00     0.156 C 
HETATM    2  N   UNL     1      27.964  46.348  54.563  1.00  0.00    -0.346 N 
HETATM    3  C   UNL     1      27.014  45.726  53.829  1.00  0.00     0.113 A 
HETATM    4  C   UNL     1      27.273  44.383  53.776  1.00  0.00     0.014 A 
HETATM    5  C   UNL     1      26.217  43.684  53.000  1.00  0.00     0.158 A 
HETATM    6  N   UNL     1      25.421  44.855  52.552  1.00  0.00    -0.325 N 
HETATM    7  C   UNL     1      25.841  46.070  53.099  1.00  0.00     0.272 A 
HETATM    8  O   UNL     1      25.330  47.166  52.964  1.00  0.00    -0.266 OA
HETATM    9  C   UNL     1      28.467  44.143  54.479  1.00  0.00     0.002 A 
HETATM   10  C   UNL     1      28.899  45.397  54.959  1.00  0.00     0.045 A 
HETATM   11  C   UNL     1      29.248  43.003  54.744  1.00  0.00     0.014 A 
HETATM   12  C   UNL     1      30.436  43.139  55.470  1.00  0.00     0.001 A 
HETATM   13  C   UNL     1      30.847  44.385  55.935  1.00  0.00     0.002 A 
HETATM   14  C   UNL     1      30.088  45.534  55.691  1.00  0.00     0.030 A 
ENDROOT
BRANCH   6  15
HETATM   15  C   UNL     1      24.144  44.720  51.864  1.00  0.00     0.229 C 
BRANCH  15  16
HETATM   16  C   UNL     1      24.196  45.009  50.355  1.00  0.00     0.235 C 
HETATM   17  N   UNL     1      23.856  43.942  49.560  1.00  0.00    -0.355 N 
HETATM   18  H   UNL     1      23.768  43.066  50.057  1.00  0.00     0.162 HD
HETATM   19  O   UNL     1      24.452  46.134  49.940  1.00  0.00    -0.272 OA
BRANCH  17  20
HETATM   20  C   UNL     1      23.867  43.848  48.106  1.00  0.00     0.084 C 
HETATM   21  C   UNL     1      23.987  42.426  47.537  1.00  0.00     0.025 C 
HETATM   22  C   UNL     1      22.669  41.733  47.189  1.00  0.00     0.002 C 
HETATM   23  C   UNL     1      21.685  42.652  46.477  1.00  0.00     0.000 C 
HETATM   24  C   UNL     1      21.456  43.940  47.257  1.00  0.00     0.002 C 
HETATM   25  C   UNL     1      22.764  44.692  47.461  1.00  0.00     0.025 C 
ENDBRANCH  17  20
ENDBRANCH  15  16
ENDBRANCH   6  15
BRANCH   5  26
HETATM   26  C   UNL     1      26.835  42.895  51.870  1.00  0.00    -0.030 A 
HETATM   27  C   UNL     1      27.163  41.549  52.101  1.00  0.00     0.012 A 
HETATM   28  C   UNL     1      27.695  40.753  51.081  1.00  0.00     0.037 A 
HETATM   29  C   UNL     1      27.907  41.275  49.806  1.00  0.00     0.068 A 
HETATM   30  C   UNL     1      27.581  42.606  49.557  1.00  0.00     0.037 A 
HETATM   31  C   UNL     1      27.046  43.405  50.576  1.00  0.00     0.012 A 
BRANCH  29  32
HETATM   32  O   UNL     1      28.429  40.390  48.905  1.00  0.00    -0.356 OA
HETATM   33  C   UNL     1      28.036  40.546  47.548  1.00  0.00     0.210 C 
ENDBRANCH  29  32
ENDBRANCH   5  26
TORSDOF 5
ENDMDL
