MODEL 1
REMARK VINA RESULT:      -9.2      0.000      0.000
REMARK  6 active torsions:
REMARK  status: ('A' for Active; 'I' for Inactive)
REMARK    1  A    between atoms: C_2  and  C_4 
REMARK    2  A    between atoms: C_2  and  C_11 
REMARK    3  A    between atoms: C_2  and  O_3 
REMARK    4  A    between atoms: C_11  and  N_12 
REMARK       I    between atoms: N_12  and  C_13 
REMARK    5  A    between atoms: C_13  and  C_14 
REMARK    6  A    between atoms: C_15  and  C_16 
ROOT
HETATM    1  N   UNL     1      27.441  43.795  52.498  1.00  0.00    -0.354 N 
HETATM    2  C   UNL     1      26.969  44.091  53.758  1.00  0.00     0.255 C 
HETATM    3  O   UNL     1      26.368  43.260  54.433  1.00  0.00    -0.268 OA
HETATM    4  H   UNL     1      27.712  44.568  51.905  1.00  0.00     0.162 HD
ENDROOT
BRANCH   2   5
HETATM    5  C   UNL     1      27.211  45.454  54.188  1.00  0.00     0.080 A 
HETATM    6  C   UNL     1      28.266  45.976  55.005  1.00  0.00     0.104 A 
HETATM    7  N   UNL     1      28.166  47.315  55.107  1.00  0.00    -0.174 NA
HETATM    8  N   UNL     1      27.081  47.635  54.398  1.00  0.00    -0.288 N 
HETATM    9  H   UNL     1      26.824  48.615  54.334  1.00  0.00     0.188 HD
HETATM   10  C   UNL     1      26.460  46.563  53.839  1.00  0.00     0.128 A 
BRANCH   6  11
HETATM   11  C   UNL     1      29.338  45.272  55.716  1.00  0.00    -0.004 A 
HETATM   12  C   UNL     1      29.742  45.713  56.989  1.00  0.00     0.017 A 
HETATM   13  C   UNL     1      30.739  45.037  57.696  1.00  0.00     0.043 A 
HETATM   14  C   UNL     1      31.335  43.916  57.135  1.00  0.00     0.116 A 
HETATM   15  F   UNL     1      32.289  43.265  57.813  1.00  0.00    -0.206 F 
HETATM   16  C   UNL     1      30.949  43.455  55.882  1.00  0.00     0.043 A 
HETATM   17  C   UNL     1      29.947  44.128  55.176  1.00  0.00     0.017 A 
ENDBRANCH   6  11
ENDBRANCH   2   5
BRANCH   1  18
HETATM   18  C   UNL     1      27.182  42.506  51.869  1.00  0.00     0.165 C 
BRANCH  18  19
HETATM   19  C   UNL     1      28.180  41.377  52.277  1.00  0.00     0.097 C 
HETATM   20  C   UNL     1      29.493  42.015  52.758  1.00  0.00     0.053 C 
BRANCH  19  21
HETATM   21  C   UNL     1      28.462  40.412  51.119  1.00  0.00    -0.023 A 
HETATM   22  C   UNL     1      28.005  40.690  49.815  1.00  0.00     0.013 A 
HETATM   23  C   UNL     1      28.260  39.809  48.761  1.00  0.00     0.043 A 
HETATM   24  C   UNL     1      28.974  38.643  48.998  1.00  0.00     0.116 A 
HETATM   25  F   UNL     1      29.219  37.801  47.986  1.00  0.00    -0.206 F 
HETATM   26  C   UNL     1      29.442  38.342  50.269  1.00  0.00     0.043 A 
HETATM   27  C   UNL     1      29.189  39.224  51.322  1.00  0.00     0.013 A 
ENDBRANCH  19  21
BRANCH  19  28
HETATM   28  O   UNL     1      27.684  40.640  53.405  1.00  0.00    -0.384 OA
HETATM   29  H   UNL     1      28.399  40.561  54.070  1.00  0.00     0.211 HD
ENDBRANCH  19  28
ENDBRANCH  18  19
ENDBRANCH   1  18
TORSDOF 6
ENDMDL
MODEL 2
REMARK VINA RESULT:      -9.2      4.224      6.450
REMARK  6 active torsions:
REMARK  status: ('A' for Active; 'I' for Inactive)
REMARK    1  A    between atoms: C_2  and  C_4 
REMARK    2  A    between atoms: C_2  and  C_11 
REMARK    3  A    between atoms: C_2  and  O_3 
REMARK    4  A    between atoms: C_11  and  N_12 
REMARK       I    between atoms: N_12  and  C_13 
REMARK    5  A    between atoms: C_13  and  C_14 
REMARK    6  A    between atoms: C_15  and  C_16 
ROOT
HETATM    1  N   UNL     1      26.636  44.767  51.679  1.00  0.00    -0.354 N 
HETATM    2  C   UNL     1      26.694  43.836  52.693  1.00  0.00     0.255 C 
HETATM    3  O   UNL     1      25.853  43.802  53.587  1.00  0.00    -0.268 OA
HETATM    4  H   UNL     1      27.466  44.900  51.116  1.00  0.00     0.162 HD
ENDROOT
BRANCH   2   5
HETATM    5  C   UNL     1      27.837  42.946  52.629  1.00  0.00     0.080 A 
HETATM    6  C   UNL     1      29.001  42.899  53.463  1.00  0.00     0.104 A 
HETATM    7  N   UNL     1      29.794  41.870  53.110  1.00  0.00    -0.174 NA
HETATM    8  N   UNL     1      29.171  41.291  52.081  1.00  0.00    -0.288 N 
HETATM    9  H   UNL     1      29.601  40.474  51.661  1.00  0.00     0.188 HD
HETATM   10  C   UNL     1      28.005  41.900  51.738  1.00  0.00     0.128 A 
BRANCH   6  11
HETATM   11  C   UNL     1      29.414  43.794  54.550  1.00  0.00    -0.004 A 
HETATM   12  C   UNL     1      30.500  43.444  55.371  1.00  0.00     0.017 A 
HETATM   13  C   UNL     1      30.929  44.298  56.391  1.00  0.00     0.043 A 
HETATM   14  C   UNL     1      30.274  45.505  56.591  1.00  0.00     0.116 A 
HETATM   15  F   UNL     1      30.686  46.327  57.566  1.00  0.00    -0.206 F 
HETATM   16  C   UNL     1      29.203  45.878  55.788  1.00  0.00     0.043 A 
HETATM   17  C   UNL     1      28.777  45.027  54.765  1.00  0.00     0.017 A 
ENDBRANCH   6  11
ENDBRANCH   2   5
BRANCH   1  18
HETATM   18  C   UNL     1      25.618  45.809  51.656  1.00  0.00     0.165 C 
BRANCH  18  19
HETATM   19  C   UNL     1      25.020  46.096  50.243  1.00  0.00     0.097 C 
HETATM   20  C   UNL     1      25.345  44.919  49.311  1.00  0.00     0.053 C 
BRANCH  19  21
HETATM   21  C   UNL     1      25.559  47.401  49.644  1.00  0.00    -0.023 A 
HETATM   22  C   UNL     1      26.946  47.630  49.533  1.00  0.00     0.013 A 
HETATM   23  C   UNL     1      27.436  48.821  48.990  1.00  0.00     0.043 A 
HETATM   24  C   UNL     1      26.547  49.792  48.551  1.00  0.00     0.116 A 
HETATM   25  F   UNL     1      27.020  50.932  48.030  1.00  0.00    -0.206 F 
HETATM   26  C   UNL     1      25.177  49.597  48.643  1.00  0.00     0.043 A 
HETATM   27  C   UNL     1      24.687  48.406  49.184  1.00  0.00     0.013 A 
ENDBRANCH  19  21
BRANCH  19  28
HETATM   28  O   UNL     1      23.586  46.150  50.296  1.00  0.00    -0.384 OA
HETATM   29  H   UNL     1      23.232  46.043  49.389  1.00  0.00     0.211 HD
ENDBRANCH  19  28
ENDBRANCH  18  19
ENDBRANCH   1  18
TORSDOF 6
ENDMDL
MODEL 3
REMARK VINA RESULT:      -9.1      5.608      8.417
REMARK  6 active torsions:
REMARK  status: ('A' for Active; 'I' for Inactive)
REMARK    1  A    between atoms: C_2  and  C_4 
REMARK    2  A    between atoms: C_2  and  C_11 
REMARK    3  A    between atoms: C_2  and  O_3 
REMARK    4  A    between atoms: C_11  and  N_12 
REMARK       I    between atoms: N_12  and  C_13 
REMARK    5  A    between atoms: C_13  and  C_14 
REMARK    6  A    between atoms: C_15  and  C_16 
ROOT
HETATM    1  N   UNL     1      25.715  47.119  51.306  1.00  0.00    -0.354 N 
HETATM    2  C   UNL     1      26.023  47.005  49.968  1.00  0.00     0.255 C 
HETATM    3  O   UNL     1      25.958  45.929  49.381  1.00  0.00    -0.268 OA
HETATM    4  H   UNL     1      26.009  47.961  51.785  1.00  0.00     0.162 HD
ENDROOT
BRANCH   2   5
HETATM    5  C   UNL     1      26.456  48.238  49.342  1.00  0.00     0.080 A 
HETATM    6  C   UNL     1      25.670  49.307  48.800  1.00  0.00     0.104 A 
HETATM    7  N   UNL     1      26.465  50.308  48.374  1.00  0.00    -0.174 NA
HETATM    8  N   UNL     1      27.709  49.889  48.617  1.00  0.00    -0.288 N 
HETATM    9  H   UNL     1      28.477  50.507  48.376  1.00  0.00     0.188 HD
HETATM   10  C   UNL     1      27.767  48.653  49.179  1.00  0.00     0.128 A 
BRANCH   6  11
HETATM   11  C   UNL     1      24.217  49.415  48.637  1.00  0.00    -0.004 A 
HETATM   12  C   UNL     1      23.611  50.683  48.580  1.00  0.00     0.017 A 
HETATM   13  C   UNL     1      22.231  50.807  48.394  1.00  0.00     0.043 A 
HETATM   14  C   UNL     1      21.454  49.664  48.261  1.00  0.00     0.116 A 
HETATM   15  F   UNL     1      20.132  49.782  48.078  1.00  0.00    -0.206 F 
HETATM   16  C   UNL     1      22.030  48.400  48.306  1.00  0.00     0.043 A 
HETATM   17  C   UNL     1      23.411  48.276  48.487  1.00  0.00     0.017 A 
ENDBRANCH   6  11
ENDBRANCH   2   5
BRANCH   1  18
HETATM   18  C   UNL     1      25.373  45.955  52.113  1.00  0.00     0.165 C 
BRANCH  18  19
HETATM   19  C   UNL     1      26.108  45.885  53.489  1.00  0.00     0.097 C 
HETATM   20  C   UNL     1      26.541  47.301  53.901  1.00  0.00     0.053 C 
BRANCH  19  21
HETATM   21  C   UNL     1      27.328  44.958  53.444  1.00  0.00    -0.023 A 
HETATM   22  C   UNL     1      28.190  44.839  54.552  1.00  0.00     0.013 A 
HETATM   23  C   UNL     1      29.304  43.995  54.509  1.00  0.00     0.043 A 
HETATM   24  C   UNL     1      29.565  43.261  53.361  1.00  0.00     0.116 A 
HETATM   25  F   UNL     1      30.632  42.452  53.323  1.00  0.00    -0.206 F 
HETATM   26  C   UNL     1      28.734  43.352  52.254  1.00  0.00     0.043 A 
HETATM   27  C   UNL     1      27.620  44.195  52.298  1.00  0.00     0.013 A 
ENDBRANCH  19  21
BRANCH  19  28
HETATM   28  O   UNL     1      25.213  45.450  54.524  1.00  0.00    -0.384 OA
HETATM   29  H   UNL     1      25.323  44.484  54.651  1.00  0.00     0.211 HD
ENDBRANCH  19  28
ENDBRANCH  18  19
ENDBRANCH   1  18
TORSDOF 6
ENDMDL
MODEL 4
REMARK VINA RESULT:      -9.1      5.768      8.451
REMARK  6 active torsions:
REMARK  status: ('A' for Active; 'I' for Inactive)
REMARK    1  A    between atoms: C_2  and  C_4 
REMARK    2  A    between atoms: C_2  and  C_11 
REMARK    3  A    between atoms: C_2  and  O_3 
REMARK    4  A    between atoms: C_11  and  N_12 
REMARK       I    between atoms: N_12  and  C_13 
REMARK    5  A    between atoms: C_13  and  C_14 
REMARK    6  A    between atoms: C_15  and  C_16 
ROOT
HETATM    1  N   UNL     1      25.990  46.157  49.997  1.00  0.00    -0.354 N 
HETATM    2  C   UNL     1      25.775  47.452  50.415  1.00  0.00     0.255 C 
HETATM    3  O   UNL     1      25.223  47.702  51.482  1.00  0.00    -0.268 OA
HETATM    4  H   UNL     1      26.227  46.010  49.024  1.00  0.00     0.162 HD
ENDROOT
BRANCH   2   5
HETATM    5  C   UNL     1      26.217  48.468  49.480  1.00  0.00     0.080 A 
HETATM    6  C   UNL     1      25.440  49.382  48.696  1.00  0.00     0.104 A 
HETATM    7  N   UNL     1      26.243  50.214  48.007  1.00  0.00    -0.174 NA
HETATM    8  N   UNL     1      27.485  49.837  48.324  1.00  0.00    -0.288 N 
HETATM    9  H   UNL     1      28.259  50.350  47.914  1.00  0.00     0.188 HD
HETATM   10  C   UNL     1      27.531  48.788  49.186  1.00  0.00     0.128 A 
BRANCH   6  11
HETATM   11  C   UNL     1      23.985  49.485  48.543  1.00  0.00    -0.004 A 
HETATM   12  C   UNL     1      23.374  50.750  48.494  1.00  0.00     0.017 A 
HETATM   13  C   UNL     1      21.993  50.870  48.317  1.00  0.00     0.043 A 
HETATM   14  C   UNL     1      21.219  49.725  48.184  1.00  0.00     0.116 A 
HETATM   15  F   UNL     1      19.895  49.838  48.010  1.00  0.00    -0.206 F 
HETATM   16  C   UNL     1      21.800  48.463  48.221  1.00  0.00     0.043 A 
HETATM   17  C   UNL     1      23.182  48.343  48.394  1.00  0.00     0.017 A 
ENDBRANCH   6  11
ENDBRANCH   2   5
BRANCH   1  18
HETATM   18  C   UNL     1      25.504  45.017  50.763  1.00  0.00     0.165 C 
BRANCH  18  19
HETATM   19  C   UNL     1      26.461  43.783  50.763  1.00  0.00     0.097 C 
HETATM   20  C   UNL     1      25.624  42.496  50.802  1.00  0.00     0.053 C 
BRANCH  19  21
HETATM   21  C   UNL     1      27.435  43.810  51.947  1.00  0.00    -0.023 A 
HETATM   22  C   UNL     1      27.215  44.661  53.048  1.00  0.00     0.013 A 
HETATM   23  C   UNL     1      28.105  44.688  54.126  1.00  0.00     0.043 A 
HETATM   24  C   UNL     1      29.220  43.863  54.115  1.00  0.00     0.116 A 
HETATM   25  F   UNL     1      30.071  43.888  55.150  1.00  0.00    -0.206 F 
HETATM   26  C   UNL     1      29.464  43.010  53.048  1.00  0.00     0.043 A 
HETATM   27  C   UNL     1      28.574  42.983  51.972  1.00  0.00     0.013 A 
ENDBRANCH  19  21
BRANCH  19  28
HETATM   28  O   UNL     1      27.202  43.713  49.535  1.00  0.00    -0.384 OA
HETATM   29  H   UNL     1      27.559  44.603  49.329  1.00  0.00     0.211 HD
ENDBRANCH  19  28
ENDBRANCH  18  19
ENDBRANCH   1  18
TORSDOF 6
ENDMDL
MODEL 5
REMARK VINA RESULT:      -9.0      3.947      7.595
REMARK  6 active torsions:
REMARK  status: ('A' for Active; 'I' for Inactive)
REMARK    1  A    between atoms: C_2  and  C_4 
REMARK    2  A    between atoms: C_2  and  C_11 
REMARK    3  A    between atoms: C_2  and  O_3 
REMARK    4  A    between atoms: C_11  and  N_12 
REMARK       I    between atoms: N_12  and  C_13 
REMARK    5  A    between atoms: C_13  and  C_14 
REMARK    6  A    between atoms: C_15  and  C_16 
ROOT
HETATM    1  N   UNL     1      26.871  44.477  52.390  1.00  0.00    -0.354 N 
HETATM    2  C   UNL     1      25.508  44.283  52.430  1.00  0.00     0.255 C 
HETATM    3  O   UNL     1      24.877  44.353  53.480  1.00  0.00    -0.268 OA
HETATM    4  H   UNL     1      27.364  44.179  51.558  1.00  0.00     0.162 HD
ENDROOT
BRANCH   2   5
HETATM    5  C   UNL     1      24.908  43.959  51.150  1.00  0.00     0.080 A 
HETATM    6  C   UNL     1      24.805  44.760  49.966  1.00  0.00     0.104 A 
HETATM    7  N   UNL     1      24.235  44.056  48.969  1.00  0.00    -0.174 NA
HETATM    8  N   UNL     1      23.969  42.859  49.499  1.00  0.00    -0.288 N 
HETATM    9  H   UNL     1      23.539  42.159  48.903  1.00  0.00     0.188 HD
HETATM   10  C   UNL     1      24.334  42.748  50.803  1.00  0.00     0.128 A 
BRANCH   6  11
HETATM   11  C   UNL     1      25.186  46.158  49.742  1.00  0.00    -0.004 A 
HETATM   12  C   UNL     1      26.545  46.510  49.663  1.00  0.00     0.017 A 
HETATM   13  C   UNL     1      26.928  47.831  49.419  1.00  0.00     0.043 A 
HETATM   14  C   UNL     1      25.953  48.805  49.250  1.00  0.00     0.116 A 
HETATM   15  F   UNL     1      26.318  50.072  49.012  1.00  0.00    -0.206 F 
HETATM   16  C   UNL     1      24.603  48.482  49.317  1.00  0.00     0.043 A 
HETATM   17  C   UNL     1      24.220  47.159  49.556  1.00  0.00     0.017 A 
ENDBRANCH   6  11
ENDBRANCH   2   5
BRANCH   1  18
HETATM   18  C   UNL     1      27.647  44.697  53.604  1.00  0.00     0.165 C 
BRANCH  18  19
HETATM   19  C   UNL     1      28.779  43.649  53.846  1.00  0.00     0.097 C 
HETATM   20  C   UNL     1      28.151  42.252  53.978  1.00  0.00     0.053 C 
BRANCH  19  21
HETATM   21  C   UNL     1      29.605  43.971  55.096  1.00  0.00    -0.023 A 
HETATM   22  C   UNL     1      30.577  43.070  55.576  1.00  0.00     0.013 A 
HETATM   23  C   UNL     1      31.327  43.364  56.718  1.00  0.00     0.043 A 
HETATM   24  C   UNL     1      31.116  44.560  57.389  1.00  0.00     0.116 A 
HETATM   25  F   UNL     1      31.838  44.839  58.483  1.00  0.00    -0.206 F 
HETATM   26  C   UNL     1      30.170  45.470  56.941  1.00  0.00     0.043 A 
HETATM   27  C   UNL     1      29.421  45.177  55.799  1.00  0.00     0.013 A 
ENDBRANCH  19  21
BRANCH  19  28
HETATM   28  O   UNL     1      29.648  43.564  52.706  1.00  0.00    -0.384 OA
HETATM   29  H   UNL     1      29.124  43.276  51.929  1.00  0.00     0.211 HD
ENDBRANCH  19  28
ENDBRANCH  18  19
ENDBRANCH   1  18
TORSDOF 6
ENDMDL
MODEL 6
REMARK VINA RESULT:      -8.9      3.625      7.461
REMARK  6 active torsions:
REMARK  status: ('A' for Active; 'I' for Inactive)
REMARK    1  A    between atoms: C_2  and  C_4 
REMARK    2  A    between atoms: C_2  and  C_11 
REMARK    3  A    between atoms: C_2  and  O_3 
REMARK    4  A    between atoms: C_11  and  N_12 
REMARK       I    between atoms: N_12  and  C_13 
REMARK    5  A    between atoms: C_13  and  C_14 
REMARK    6  A    between atoms: C_15  and  C_16 
ROOT
HETATM    1  N   UNL     1      27.114  41.920  52.904  1.00  0.00    -0.354 N 
HETATM    2  C   UNL     1      27.557  41.161  51.844  1.00  0.00     0.255 C 
HETATM    3  O   UNL     1      28.687  40.679  51.823  1.00  0.00    -0.268 OA
HETATM    4  H   UNL     1      26.281  42.477  52.766  1.00  0.00     0.162 HD
ENDROOT
BRANCH   2   5
HETATM    5  C   UNL     1      26.602  41.018  50.762  1.00  0.00     0.080 A 
HETATM    6  C   UNL     1      25.871  42.029  50.057  1.00  0.00     0.104 A 
HETATM    7  N   UNL     1      25.138  41.479  49.070  1.00  0.00    -0.174 NA
HETATM    8  N   UNL     1      25.377  40.167  49.152  1.00  0.00    -0.288 N 
HETATM    9  H   UNL     1      24.923  39.556  48.481  1.00  0.00     0.188 HD
HETATM   10  C   UNL     1      26.231  39.831  50.155  1.00  0.00     0.128 A 
BRANCH   6  11
HETATM   11  C   UNL     1      25.807  43.476  50.289  1.00  0.00    -0.004 A 
HETATM   12  C   UNL     1      26.834  44.308  49.809  1.00  0.00     0.017 A 
HETATM   13  C   UNL     1      26.776  45.692  49.993  1.00  0.00     0.043 A 
HETATM   14  C   UNL     1      25.689  46.248  50.653  1.00  0.00     0.116 A 
HETATM   15  F   UNL     1      25.629  47.576  50.826  1.00  0.00    -0.206 F 
HETATM   16  C   UNL     1      24.657  45.449  51.129  1.00  0.00     0.043 A 
HETATM   17  C   UNL     1      24.713  44.064  50.942  1.00  0.00     0.017 A 
ENDBRANCH   6  11
ENDBRANCH   2   5
BRANCH   1  18
HETATM   18  C   UNL     1      27.987  42.256  54.020  1.00  0.00     0.165 C 
BRANCH  18  19
HETATM   19  C   UNL     1      28.927  43.475  53.759  1.00  0.00     0.097 C 
HETATM   20  C   UNL     1      30.294  43.205  54.408  1.00  0.00     0.053 C 
BRANCH  19  21
HETATM   21  C   UNL     1      28.340  44.783  54.303  1.00  0.00    -0.023 A 
HETATM   22  C   UNL     1      27.157  45.327  53.762  1.00  0.00     0.013 A 
HETATM   23  C   UNL     1      26.623  46.520  54.256  1.00  0.00     0.043 A 
HETATM   24  C   UNL     1      27.264  47.180  55.295  1.00  0.00     0.116 A 
HETATM   25  F   UNL     1      26.749  48.323  55.768  1.00  0.00    -0.206 F 
HETATM   26  C   UNL     1      28.427  46.670  55.852  1.00  0.00     0.043 A 
HETATM   27  C   UNL     1      28.960  45.476  55.359  1.00  0.00     0.013 A 
ENDBRANCH  19  21
BRANCH  19  28
HETATM   28  O   UNL     1      29.199  43.619  52.356  1.00  0.00    -0.384 OA
HETATM   29  H   UNL     1      30.117  43.943  52.243  1.00  0.00     0.211 HD
ENDBRANCH  19  28
ENDBRANCH  18  19
ENDBRANCH   1  18
TORSDOF 6
ENDMDL
MODEL 7
REMARK VINA RESULT:      -8.7      4.405      6.920
REMARK  6 active torsions:
REMARK  status: ('A' for Active; 'I' for Inactive)
REMARK    1  A    between atoms: C_2  and  C_4 
REMARK    2  A    between atoms: C_2  and  C_11 
REMARK    3  A    between atoms: C_2  and  O_3 
REMARK    4  A    between atoms: C_11  and  N_12 
REMARK       I    between atoms: N_12  and  C_13 
REMARK    5  A    between atoms: C_13  and  C_14 
REMARK    6  A    between atoms: C_15  and  C_16 
ROOT
HETATM    1  N   UNL     1      27.069  43.716  50.160  1.00  0.00    -0.354 N 
HETATM    2  C   UNL     1      26.604  42.476  50.540  1.00  0.00     0.255 C 
HETATM    3  O   UNL     1      25.438  42.140  50.357  1.00  0.00    -0.268 OA
HETATM    4  H   UNL     1      27.954  44.023  50.541  1.00  0.00     0.162 HD
ENDROOT
BRANCH   2   5
HETATM    5  C   UNL     1      27.589  41.639  51.197  1.00  0.00     0.080 A 
HETATM    6  C   UNL     1      28.214  41.803  52.476  1.00  0.00     0.104 A 
HETATM    7  N   UNL     1      29.022  40.760  52.744  1.00  0.00    -0.174 NA
HETATM    8  N   UNL     1      28.931  39.968  51.672  1.00  0.00    -0.288 N 
HETATM    9  H   UNL     1      29.463  39.104  51.670  1.00  0.00     0.188 HD
HETATM   10  C   UNL     1      28.103  40.450  50.708  1.00  0.00     0.128 A 
BRANCH   6  11
HETATM   11  C   UNL     1      28.110  42.907  53.437  1.00  0.00    -0.004 A 
HETATM   12  C   UNL     1      29.277  43.500  53.949  1.00  0.00     0.017 A 
HETATM   13  C   UNL     1      29.200  44.573  54.842  1.00  0.00     0.043 A 
HETATM   14  C   UNL     1      27.956  45.057  55.221  1.00  0.00     0.116 A 
HETATM   15  F   UNL     1      27.880  46.088  56.074  1.00  0.00    -0.206 F 
HETATM   16  C   UNL     1      26.788  44.493  54.723  1.00  0.00     0.043 A 
HETATM   17  C   UNL     1      26.865  43.424  53.826  1.00  0.00     0.017 A 
ENDBRANCH   6  11
ENDBRANCH   2   5
BRANCH   1  18
HETATM   18  C   UNL     1      26.182  44.722  49.591  1.00  0.00     0.165 C 
BRANCH  18  19
HETATM   19  C   UNL     1      25.747  45.839  50.592  1.00  0.00     0.097 C 
HETATM   20  C   UNL     1      24.535  45.347  51.399  1.00  0.00     0.053 C 
BRANCH  19  21
HETATM   21  C   UNL     1      25.401  47.151  49.877  1.00  0.00    -0.023 A 
HETATM   22  C   UNL     1      24.065  47.480  49.571  1.00  0.00     0.013 A 
HETATM   23  C   UNL     1      23.751  48.674  48.917  1.00  0.00     0.043 A 
HETATM   24  C   UNL     1      24.767  49.551  48.564  1.00  0.00     0.116 A 
HETATM   25  F   UNL     1      24.463  50.696  47.938  1.00  0.00    -0.206 F 
HETATM   26  C   UNL     1      26.091  49.259  48.854  1.00  0.00     0.043 A 
HETATM   27  C   UNL     1      26.405  48.066  49.509  1.00  0.00     0.013 A 
ENDBRANCH  19  21
BRANCH  19  28
HETATM   28  O   UNL     1      26.775  46.080  51.565  1.00  0.00    -0.384 OA
HETATM   29  H   UNL     1      26.356  46.210  52.442  1.00  0.00     0.211 HD
ENDBRANCH  19  28
ENDBRANCH  18  19
ENDBRANCH   1  18
TORSDOF 6
ENDMDL
MODEL 8
REMARK VINA RESULT:      -8.7      3.729      6.477
REMARK  6 active torsions:
REMARK  status: ('A' for Active; 'I' for Inactive)
REMARK    1  A    between atoms: C_2  and  C_4 
REMARK    2  A    between atoms: C_2  and  C_11 
REMARK    3  A    between atoms: C_2  and  O_3 
REMARK    4  A    between atoms: C_11  and  N_12 
REMARK       I    between atoms: N_12  and  C_13 
REMARK    5  A    between atoms: C_13  and  C_14 
REMARK    6  A    between atoms: C_15  and  C_16 
ROOT
HETATM    1  N   UNL     1      27.464  43.357  51.752  1.00  0.00    -0.354 N 
HETATM    2  C   UNL     1      26.842  42.718  50.702  1.00  0.00     0.255 C 
HETATM    3  O   UNL     1      27.474  42.052  49.887  1.00  0.00    -0.268 OA
HETATM    4  H   UNL     1      26.941  44.071  52.243  1.00  0.00     0.162 HD
ENDROOT
BRANCH   2   5
HETATM    5  C   UNL     1      25.410  42.934  50.628  1.00  0.00     0.080 A 
HETATM    6  C   UNL     1      24.616  43.973  51.213  1.00  0.00     0.104 A 
HETATM    7  N   UNL     1      23.328  43.849  50.841  1.00  0.00    -0.174 NA
HETATM    8  N   UNL     1      23.296  42.764  50.062  1.00  0.00    -0.288 N 
HETATM    9  H   UNL     1      22.405  42.491  49.659  1.00  0.00     0.188 HD
HETATM   10  C   UNL     1      24.507  42.166  49.913  1.00  0.00     0.128 A 
BRANCH   6  11
HETATM   11  C   UNL     1      25.007  45.051  52.127  1.00  0.00    -0.004 A 
HETATM   12  C   UNL     1      25.182  44.780  53.495  1.00  0.00     0.017 A 
HETATM   13  C   UNL     1      25.585  45.787  54.377  1.00  0.00     0.043 A 
HETATM   14  C   UNL     1      25.816  47.067  53.893  1.00  0.00     0.116 A 
HETATM   15  F   UNL     1      26.205  48.032  54.736  1.00  0.00    -0.206 F 
HETATM   16  C   UNL     1      25.657  47.359  52.544  1.00  0.00     0.043 A 
HETATM   17  C   UNL     1      25.260  46.351  51.660  1.00  0.00     0.017 A 
ENDBRANCH   6  11
ENDBRANCH   2   5
BRANCH   1  18
HETATM   18  C   UNL     1      28.913  43.339  51.907  1.00  0.00     0.165 C 
BRANCH  18  19
HETATM   19  C   UNL     1      29.415  42.604  53.190  1.00  0.00     0.097 C 
HETATM   20  C   UNL     1      28.373  41.556  53.610  1.00  0.00     0.053 C 
BRANCH  19  21
HETATM   21  C   UNL     1      29.675  43.577  54.346  1.00  0.00    -0.023 A 
HETATM   22  C   UNL     1      28.895  44.740  54.505  1.00  0.00     0.013 A 
HETATM   23  C   UNL     1      29.134  45.628  55.558  1.00  0.00     0.043 A 
HETATM   24  C   UNL     1      30.152  45.361  56.462  1.00  0.00     0.116 A 
HETATM   25  F   UNL     1      30.379  46.213  57.471  1.00  0.00    -0.206 F 
HETATM   26  C   UNL     1      30.936  44.223  56.337  1.00  0.00     0.043 A 
HETATM   27  C   UNL     1      30.695  43.335  55.285  1.00  0.00     0.013 A 
ENDBRANCH  19  21
BRANCH  19  28
HETATM   28  O   UNL     1      30.611  41.857  52.914  1.00  0.00    -0.384 OA
HETATM   29  H   UNL     1      31.387  42.434  53.075  1.00  0.00     0.211 HD
ENDBRANCH  19  28
ENDBRANCH  18  19
ENDBRANCH   1  18
TORSDOF 6
ENDMDL
MODEL 9
REMARK VINA RESULT:      -8.6     14.581     16.264
REMARK  6 active torsions:
REMARK  status: ('A' for Active; 'I' for Inactive)
REMARK    1  A    between atoms: C_2  and  C_4 
REMARK    2  A    between atoms: C_2  and  C_11 
REMARK    3  A    between atoms: C_2  and  O_3 
REMARK    4  A    between atoms: C_11  and  N_12 
REMARK       I    between atoms: N_12  and  C_13 
REMARK    5  A    between atoms: C_13  and  C_14 
REMARK    6  A    between atoms: C_15  and  C_16 
ROOT
HETATM    1  N   UNL     1      29.864  47.970  40.294  1.00  0.00    -0.354 N 
HETATM    2  C   UNL     1      29.122  47.986  39.133  1.00  0.00     0.255 C 
HETATM    3  O   UNL     1      29.588  47.601  38.065  1.00  0.00    -0.268 OA
HETATM    4  H   UNL     1      29.519  48.508  41.078  1.00  0.00     0.162 HD
ENDROOT
BRANCH   2   5
HETATM    5  C   UNL     1      27.783  48.522  39.281  1.00  0.00     0.080 A 
HETATM    6  C   UNL     1      27.367  49.867  39.547  1.00  0.00     0.104 A 
HETATM    7  N   UNL     1      26.023  49.956  39.537  1.00  0.00    -0.174 NA
HETATM    8  N   UNL     1      25.596  48.715  39.290  1.00  0.00    -0.288 N 
HETATM    9  H   UNL     1      24.596  48.558  39.229  1.00  0.00     0.188 HD
HETATM   10  C   UNL     1      26.602  47.813  39.145  1.00  0.00     0.128 A 
BRANCH   6  11
HETATM   11  C   UNL     1      28.171  51.057  39.843  1.00  0.00    -0.004 A 
HETATM   12  C   UNL     1      28.784  51.194  41.101  1.00  0.00     0.017 A 
HETATM   13  C   UNL     1      29.580  52.306  41.391  1.00  0.00     0.043 A 
HETATM   14  C   UNL     1      29.768  53.282  40.422  1.00  0.00     0.116 A 
HETATM   15  F   UNL     1      30.534  54.347  40.697  1.00  0.00    -0.206 F 
HETATM   16  C   UNL     1      29.180  53.167  39.169  1.00  0.00     0.043 A 
HETATM   17  C   UNL     1      28.388  52.053  38.877  1.00  0.00     0.017 A 
ENDBRANCH   6  11
ENDBRANCH   2   5
BRANCH   1  18
HETATM   18  C   UNL     1      31.265  47.570  40.299  1.00  0.00     0.165 C 
BRANCH  18  19
HETATM   19  C   UNL     1      32.168  48.395  41.270  1.00  0.00     0.097 C 
HETATM   20  C   UNL     1      31.426  48.593  42.601  1.00  0.00     0.053 C 
BRANCH  19  21
HETATM   21  C   UNL     1      32.554  49.757  40.679  1.00  0.00    -0.023 A 
HETATM   22  C   UNL     1      33.388  50.645  41.389  1.00  0.00     0.013 A 
HETATM   23  C   UNL     1      33.737  51.886  40.851  1.00  0.00     0.043 A 
HETATM   24  C   UNL     1      33.260  52.252  39.600  1.00  0.00     0.116 A 
HETATM   25  F   UNL     1      33.598  53.442  39.087  1.00  0.00    -0.206 F 
HETATM   26  C   UNL     1      32.441  51.399  38.874  1.00  0.00     0.043 A 
HETATM   27  C   UNL     1      32.093  50.157  39.412  1.00  0.00     0.013 A 
ENDBRANCH  19  21
BRANCH  19  28
HETATM   28  O   UNL     1      33.357  47.664  41.607  1.00  0.00    -0.384 OA
HETATM   29  H   UNL     1      33.150  47.042  42.335  1.00  0.00     0.211 HD
ENDBRANCH  19  28
ENDBRANCH  18  19
ENDBRANCH   1  18
TORSDOF 6
ENDMDL
MODEL 10
REMARK VINA RESULT:      -8.6      2.375      7.458
REMARK  6 active torsions:
REMARK  status: ('A' for Active; 'I' for Inactive)
REMARK    1  A    between atoms: C_2  and  C_4 
REMARK    2  A    between atoms: C_2  and  C_11 
REMARK    3  A    between atoms: C_2  and  O_3 
REMARK    4  A    between atoms: C_11  and  N_12 
REMARK       I    between atoms: N_12  and  C_13 
REMARK    5  A    between atoms: C_13  and  C_14 
REMARK    6  A    between atoms: C_15  and  C_16 
ROOT
HETATM    1  N   UNL     1      26.146  43.247  52.582  1.00  0.00    -0.354 N 
HETATM    2  C   UNL     1      25.971  43.817  51.340  1.00  0.00     0.255 C 
HETATM    3  O   UNL     1      26.560  44.843  51.012  1.00  0.00    -0.268 OA
HETATM    4  H   UNL     1      25.472  42.554  52.880  1.00  0.00     0.162 HD
ENDROOT
BRANCH   2   5
HETATM    5  C   UNL     1      25.018  43.129  50.490  1.00  0.00     0.080 A 
HETATM    6  C   UNL     1      25.193  41.944  49.703  1.00  0.00     0.104 A 
HETATM    7  N   UNL     1      24.034  41.594  49.113  1.00  0.00    -0.174 NA
HETATM    8  N   UNL     1      23.157  42.526  49.495  1.00  0.00    -0.288 N 
HETATM    9  H   UNL     1      22.201  42.445  49.165  1.00  0.00     0.188 HD
HETATM   10  C   UNL     1      23.692  43.478  50.304  1.00  0.00     0.128 A 
BRANCH   6  11
HETATM   11  C   UNL     1      26.402  41.152  49.455  1.00  0.00    -0.004 A 
HETATM   12  C   UNL     1      27.021  41.193  48.193  1.00  0.00     0.017 A 
HETATM   13  C   UNL     1      28.191  40.470  47.947  1.00  0.00     0.043 A 
HETATM   14  C   UNL     1      28.747  39.705  48.963  1.00  0.00     0.116 A 
HETATM   15  F   UNL     1      29.871  39.013  48.730  1.00  0.00    -0.206 F 
HETATM   16  C   UNL     1      28.160  39.653  50.221  1.00  0.00     0.043 A 
HETATM   17  C   UNL     1      26.992  40.380  50.469  1.00  0.00     0.017 A 
ENDBRANCH   6  11
ENDBRANCH   2   5
BRANCH   1  18
HETATM   18  C   UNL     1      26.979  43.875  53.599  1.00  0.00     0.165 C 
BRANCH  18  19
HETATM   19  C   UNL     1      28.462  43.386  53.610  1.00  0.00     0.097 C 
HETATM   20  C   UNL     1      28.486  41.850  53.637  1.00  0.00     0.053 C 
BRANCH  19  21
HETATM   21  C   UNL     1      29.243  43.942  54.807  1.00  0.00    -0.023 A 
HETATM   22  C   UNL     1      28.846  45.138  55.440  1.00  0.00     0.013 A 
HETATM   23  C   UNL     1      29.560  45.645  56.528  1.00  0.00     0.043 A 
HETATM   24  C   UNL     1      30.674  44.963  56.997  1.00  0.00     0.116 A 
HETATM   25  F   UNL     1      31.356  45.451  58.042  1.00  0.00    -0.206 F 
HETATM   26  C   UNL     1      31.089  43.782  56.400  1.00  0.00     0.043 A 
HETATM   27  C   UNL     1      30.374  43.274  55.312  1.00  0.00     0.013 A 
ENDBRANCH  19  21
BRANCH  19  28
HETATM   28  O   UNL     1      29.129  43.752  52.392  1.00  0.00    -0.384 OA
HETATM   29  H   UNL     1      29.974  43.258  52.333  1.00  0.00     0.211 HD
ENDBRANCH  19  28
ENDBRANCH  18  19
ENDBRANCH   1  18
TORSDOF 6
ENDMDL
