MODEL 1
REMARK VINA RESULT:      -9.3      0.000      0.000
REMARK  3 active torsions:
REMARK  status: ('A' for Active; 'I' for Inactive)
REMARK    1  A    between atoms: C_3  and  N_4 
REMARK       I    between atoms: N_4  and  C_5 
REMARK       I    between atoms: C_5  and  N_6 
REMARK    2  A    between atoms: N_6  and  C_7 
REMARK    3  A    between atoms: C_7  and  C_8 
ROOT
HETATM    1  C   UNL     1      28.402  44.381  53.745  1.00  0.00    -0.036 A 
HETATM    2  C   UNL     1      29.223  43.253  53.617  1.00  0.00     0.011 A 
HETATM    3  C   UNL     1      30.217  42.975  54.565  1.00  0.00     0.023 A 
HETATM    4  C   UNL     1      30.409  43.826  55.656  1.00  0.00     0.044 A 
HETATM    5  C   UNL     1      31.425  43.542  56.625  1.00  0.00     0.099 C 
HETATM    6  N   UNL     1      32.248  43.316  57.413  1.00  0.00    -0.191 NA
HETATM    7  C   UNL     1      29.604  44.956  55.795  1.00  0.00     0.023 A 
HETATM    8  C   UNL     1      28.612  45.231  54.848  1.00  0.00     0.011 A 
ENDROOT
BRANCH   1   9
HETATM    9  C   UNL     1      27.320  44.743  52.741  1.00  0.00     0.115 C 
HETATM   10  C   UNL     1      26.482  43.528  52.338  1.00  0.00     0.037 C 
BRANCH   9  11
HETATM   11  N   UNL     1      26.562  45.949  53.068  1.00  0.00    -0.335 N 
HETATM   12  C   UNL     1      25.970  46.944  52.357  1.00  0.00     0.321 C 
HETATM   13  N   UNL     1      26.192  46.959  51.014  1.00  0.00    -0.307 N 
HETATM   14  O   UNL     1      25.301  47.755  52.988  1.00  0.00    -0.247 OA
HETATM   15  H   UNL     1      27.093  46.597  50.758  1.00  0.00     0.170 HD
HETATM   16  H   UNL     1      26.271  46.015  54.037  1.00  0.00     0.165 HD
BRANCH  13  17
HETATM   17  C   UNL     1      25.622  47.842  50.063  1.00  0.00     0.059 A 
HETATM   18  C   UNL     1      26.307  48.747  49.239  1.00  0.00    -0.032 A 
HETATM   19  C   UNL     1      27.787  49.002  49.280  1.00  0.00     0.050 C 
HETATM   20  C   UNL     1      25.560  49.498  48.313  1.00  0.00     0.028 A 
HETATM   21  C   UNL     1      24.180  49.381  48.282  1.00  0.00     0.117 A 
HETATM   22  N   UNL     1      23.488  48.576  49.108  1.00  0.00    -0.271 NA
HETATM   23  C   UNL     1      24.223  47.836  49.969  1.00  0.00     0.146 A 
ENDBRANCH  13  17
ENDBRANCH   9  11
ENDBRANCH   1   9
TORSDOF 3
ENDMDL
MODEL 2
REMARK VINA RESULT:      -9.1      0.931      1.566
REMARK  3 active torsions:
REMARK  status: ('A' for Active; 'I' for Inactive)
REMARK    1  A    between atoms: C_3  and  N_4 
REMARK       I    between atoms: N_4  and  C_5 
REMARK       I    between atoms: C_5  and  N_6 
REMARK    2  A    between atoms: N_6  and  C_7 
REMARK    3  A    between atoms: C_7  and  C_8 
ROOT
HETATM    1  C   UNL     1      28.368  44.288  53.617  1.00  0.00    -0.036 A 
HETATM    2  C   UNL     1      29.293  43.249  53.445  1.00  0.00     0.011 A 
HETATM    3  C   UNL     1      30.283  43.002  54.406  1.00  0.00     0.023 A 
HETATM    4  C   UNL     1      30.367  43.794  55.553  1.00  0.00     0.044 A 
HETATM    5  C   UNL     1      31.379  43.541  56.535  1.00  0.00     0.099 C 
HETATM    6  N   UNL     1      32.198  43.340  57.333  1.00  0.00    -0.191 NA
HETATM    7  C   UNL     1      29.458  44.837  55.735  1.00  0.00     0.023 A 
HETATM    8  C   UNL     1      28.470  45.081  54.776  1.00  0.00     0.011 A 
ENDROOT
BRANCH   1   9
HETATM    9  C   UNL     1      27.285  44.615  52.602  1.00  0.00     0.115 C 
HETATM   10  C   UNL     1      26.447  43.386  52.243  1.00  0.00     0.037 C 
BRANCH   9  11
HETATM   11  N   UNL     1      26.526  45.831  52.889  1.00  0.00    -0.335 N 
HETATM   12  C   UNL     1      26.099  46.899  52.167  1.00  0.00     0.321 C 
HETATM   13  N   UNL     1      26.545  46.996  50.885  1.00  0.00    -0.307 N 
HETATM   14  O   UNL     1      25.364  47.697  52.738  1.00  0.00    -0.247 OA
HETATM   15  H   UNL     1      27.462  46.609  50.755  1.00  0.00     0.170 HD
HETATM   16  H   UNL     1      26.079  45.845  53.799  1.00  0.00     0.165 HD
BRANCH  13  17
HETATM   17  C   UNL     1      26.176  47.968  49.922  1.00  0.00     0.059 A 
HETATM   18  C   UNL     1      24.902  48.168  49.373  1.00  0.00    -0.032 A 
HETATM   19  C   UNL     1      23.697  47.314  49.654  1.00  0.00     0.050 C 
HETATM   20  C   UNL     1      24.727  49.231  48.468  1.00  0.00     0.028 A 
HETATM   21  C   UNL     1      25.814  50.004  48.094  1.00  0.00     0.117 A 
HETATM   22  N   UNL     1      27.062  49.793  48.546  1.00  0.00    -0.271 NA
HETATM   23  C   UNL     1      27.207  48.788  49.441  1.00  0.00     0.146 A 
ENDBRANCH  13  17
ENDBRANCH   9  11
ENDBRANCH   1   9
TORSDOF 3
ENDMDL
MODEL 3
REMARK VINA RESULT:      -8.3      1.697      2.498
REMARK  3 active torsions:
REMARK  status: ('A' for Active; 'I' for Inactive)
REMARK    1  A    between atoms: C_3  and  N_4 
REMARK       I    between atoms: N_4  and  C_5 
REMARK       I    between atoms: C_5  and  N_6 
REMARK    2  A    between atoms: N_6  and  C_7 
REMARK    3  A    between atoms: C_7  and  C_8 
ROOT
HETATM    1  C   UNL     1      28.751  43.905  53.574  1.00  0.00    -0.036 A 
HETATM    2  C   UNL     1      28.601  44.861  54.588  1.00  0.00     0.011 A 
HETATM    3  C   UNL     1      29.471  44.885  55.686  1.00  0.00     0.023 A 
HETATM    4  C   UNL     1      30.503  43.950  55.791  1.00  0.00     0.044 A 
HETATM    5  C   UNL     1      31.391  43.975  56.915  1.00  0.00     0.099 C 
HETATM    6  N   UNL     1      32.114  43.992  57.824  1.00  0.00    -0.191 NA
HETATM    7  C   UNL     1      30.661  42.988  54.793  1.00  0.00     0.023 A 
HETATM    8  C   UNL     1      29.793  42.966  53.697  1.00  0.00     0.011 A 
ENDROOT
BRANCH   1   9
HETATM    9  C   UNL     1      27.829  43.818  52.368  1.00  0.00     0.115 C 
HETATM   10  C   UNL     1      28.157  42.613  51.483  1.00  0.00     0.037 C 
BRANCH   9  11
HETATM   11  N   UNL     1      26.412  44.010  52.668  1.00  0.00    -0.335 N 
HETATM   12  C   UNL     1      25.380  44.676  52.087  1.00  0.00     0.321 C 
HETATM   13  N   UNL     1      25.681  45.479  51.031  1.00  0.00    -0.307 N 
HETATM   14  O   UNL     1      24.268  44.510  52.575  1.00  0.00    -0.247 OA
HETATM   15  H   UNL     1      26.598  45.884  51.090  1.00  0.00     0.170 HD
HETATM   16  H   UNL     1      26.049  43.407  53.398  1.00  0.00     0.165 HD
BRANCH  13  17
HETATM   17  C   UNL     1      24.771  46.203  50.220  1.00  0.00     0.059 A 
HETATM   18  C   UNL     1      23.900  45.676  49.256  1.00  0.00    -0.032 A 
HETATM   19  C   UNL     1      23.836  44.232  48.847  1.00  0.00     0.050 C 
HETATM   20  C   UNL     1      23.028  46.560  48.594  1.00  0.00     0.028 A 
HETATM   21  C   UNL     1      23.094  47.920  48.856  1.00  0.00     0.117 A 
HETATM   22  N   UNL     1      23.967  48.464  49.721  1.00  0.00    -0.271 NA
HETATM   23  C   UNL     1      24.776  47.597  50.373  1.00  0.00     0.146 A 
ENDBRANCH  13  17
ENDBRANCH   9  11
ENDBRANCH   1   9
TORSDOF 3
ENDMDL
MODEL 4
REMARK VINA RESULT:      -8.2      2.605      3.404
REMARK  3 active torsions:
REMARK  status: ('A' for Active; 'I' for Inactive)
REMARK    1  A    between atoms: C_3  and  N_4 
REMARK       I    between atoms: N_4  and  C_5 
REMARK       I    between atoms: C_5  and  N_6 
REMARK    2  A    between atoms: N_6  and  C_7 
REMARK    3  A    between atoms: C_7  and  C_8 
ROOT
HETATM    1  C   UNL     1      28.218  44.765  54.171  1.00  0.00    -0.036 A 
HETATM    2  C   UNL     1      28.671  45.593  55.207  1.00  0.00     0.011 A 
HETATM    3  C   UNL     1      29.730  45.195  56.033  1.00  0.00     0.023 A 
HETATM    4  C   UNL     1      30.350  43.958  55.840  1.00  0.00     0.044 A 
HETATM    5  C   UNL     1      31.433  43.551  56.686  1.00  0.00     0.099 C 
HETATM    6  N   UNL     1      32.310  43.217  57.369  1.00  0.00    -0.191 NA
HETATM    7  C   UNL     1      29.906  43.120  54.817  1.00  0.00     0.023 A 
HETATM    8  C   UNL     1      28.850  43.520  53.992  1.00  0.00     0.011 A 
ENDROOT
BRANCH   1   9
HETATM    9  C   UNL     1      27.063  45.135  53.254  1.00  0.00     0.115 C 
HETATM   10  C   UNL     1      26.579  46.567  53.492  1.00  0.00     0.037 C 
BRANCH   9  11
HETATM   11  N   UNL     1      27.250  44.759  51.854  1.00  0.00    -0.335 N 
HETATM   12  C   UNL     1      26.435  44.574  50.783  1.00  0.00     0.321 C 
HETATM   13  N   UNL     1      25.095  44.614  51.013  1.00  0.00    -0.307 N 
HETATM   14  O   UNL     1      26.976  44.369  49.702  1.00  0.00    -0.247 OA
HETATM   15  H   UNL     1      24.840  44.285  51.928  1.00  0.00     0.170 HD
HETATM   16  H   UNL     1      28.214  44.766  51.540  1.00  0.00     0.165 HD
BRANCH  13  17
HETATM   17  C   UNL     1      24.058  44.530  50.051  1.00  0.00     0.059 A 
HETATM   18  C   UNL     1      23.521  45.584  49.298  1.00  0.00    -0.032 A 
HETATM   19  C   UNL     1      23.902  47.030  49.442  1.00  0.00     0.050 C 
HETATM   20  C   UNL     1      22.531  45.283  48.345  1.00  0.00     0.028 A 
HETATM   21  C   UNL     1      22.065  43.983  48.220  1.00  0.00     0.117 A 
HETATM   22  N   UNL     1      22.508  42.964  48.977  1.00  0.00    -0.271 NA
HETATM   23  C   UNL     1      23.484  43.264  49.865  1.00  0.00     0.146 A 
ENDBRANCH  13  17
ENDBRANCH   9  11
ENDBRANCH   1   9
TORSDOF 3
ENDMDL
MODEL 5
REMARK VINA RESULT:      -8.1      3.377      4.390
REMARK  3 active torsions:
REMARK  status: ('A' for Active; 'I' for Inactive)
REMARK    1  A    between atoms: C_3  and  N_4 
REMARK       I    between atoms: N_4  and  C_5 
REMARK       I    between atoms: C_5  and  N_6 
REMARK    2  A    between atoms: N_6  and  C_7 
REMARK    3  A    between atoms: C_7  and  C_8 
ROOT
HETATM    1  C   UNL     1      28.193  44.465  54.080  1.00  0.00    -0.036 A 
HETATM    2  C   UNL     1      28.926  43.275  53.972  1.00  0.00     0.011 A 
HETATM    3  C   UNL     1      29.994  43.008  54.838  1.00  0.00     0.023 A 
HETATM    4  C   UNL     1      30.352  43.931  55.824  1.00  0.00     0.044 A 
HETATM    5  C   UNL     1      31.445  43.658  56.709  1.00  0.00     0.099 C 
HETATM    6  N   UNL     1      32.330  43.441  57.428  1.00  0.00    -0.191 NA
HETATM    7  C   UNL     1      29.637  45.123  55.940  1.00  0.00     0.023 A 
HETATM    8  C   UNL     1      28.570  45.387  55.075  1.00  0.00     0.011 A 
ENDROOT
BRANCH   1   9
HETATM    9  C   UNL     1      27.037  44.818  53.159  1.00  0.00     0.115 C 
HETATM   10  C   UNL     1      26.361  46.129  53.564  1.00  0.00     0.037 C 
BRANCH   9  11
HETATM   11  N   UNL     1      27.326  44.674  51.733  1.00  0.00    -0.335 N 
HETATM   12  C   UNL     1      26.707  44.092  50.673  1.00  0.00     0.321 C 
HETATM   13  N   UNL     1      25.606  43.339  50.938  1.00  0.00    -0.307 N 
HETATM   14  O   UNL     1      27.204  44.280  49.568  1.00  0.00    -0.247 OA
HETATM   15  H   UNL     1      25.641  42.889  51.835  1.00  0.00     0.170 HD
HETATM   16  H   UNL     1      28.089  45.251  51.396  1.00  0.00     0.165 HD
BRANCH  13  17
HETATM   17  C   UNL     1      24.755  42.706  49.998  1.00  0.00     0.059 A 
HETATM   18  C   UNL     1      25.020  41.532  49.279  1.00  0.00    -0.032 A 
HETATM   19  C   UNL     1      26.314  40.769  49.320  1.00  0.00     0.050 C 
HETATM   20  C   UNL     1      24.016  41.030  48.431  1.00  0.00     0.028 A 
HETATM   21  C   UNL     1      22.831  41.731  48.275  1.00  0.00     0.117 A 
HETATM   22  N   UNL     1      22.575  42.897  48.894  1.00  0.00    -0.271 NA
HETATM   23  C   UNL     1      23.537  43.349  49.731  1.00  0.00     0.146 A 
ENDBRANCH  13  17
ENDBRANCH   9  11
ENDBRANCH   1   9
TORSDOF 3
ENDMDL
MODEL 6
REMARK VINA RESULT:      -8.0      3.421      5.267
REMARK  3 active torsions:
REMARK  status: ('A' for Active; 'I' for Inactive)
REMARK    1  A    between atoms: C_3  and  N_4 
REMARK       I    between atoms: N_4  and  C_5 
REMARK       I    between atoms: C_5  and  N_6 
REMARK    2  A    between atoms: N_6  and  C_7 
REMARK    3  A    between atoms: C_7  and  C_8 
ROOT
HETATM    1  C   UNL     1      28.072  44.593  54.151  1.00  0.00    -0.036 A 
HETATM    2  C   UNL     1      28.535  45.501  55.113  1.00  0.00     0.011 A 
HETATM    3  C   UNL     1      29.634  45.189  55.925  1.00  0.00     0.023 A 
HETATM    4  C   UNL     1      30.284  43.961  55.791  1.00  0.00     0.044 A 
HETATM    5  C   UNL     1      31.408  43.642  56.622  1.00  0.00     0.099 C 
HETATM    6  N   UNL     1      32.318  43.379  57.293  1.00  0.00    -0.191 NA
HETATM    7  C   UNL     1      29.831  43.043  54.843  1.00  0.00     0.023 A 
HETATM    8  C   UNL     1      28.735  43.357  54.032  1.00  0.00     0.011 A 
ENDROOT
BRANCH   1   9
HETATM    9  C   UNL     1      26.876  44.868  53.254  1.00  0.00     0.115 C 
HETATM   10  C   UNL     1      25.994  45.991  53.804  1.00  0.00     0.037 C 
BRANCH   9  11
HETATM   11  N   UNL     1      27.188  44.955  51.829  1.00  0.00    -0.335 N 
HETATM   12  C   UNL     1      27.144  44.101  50.773  1.00  0.00     0.321 C 
HETATM   13  N   UNL     1      26.865  42.797  51.046  1.00  0.00    -0.307 N 
HETATM   14  O   UNL     1      27.377  44.574  49.667  1.00  0.00    -0.247 OA
HETATM   15  H   UNL     1      27.198  42.501  51.946  1.00  0.00     0.170 HD
HETATM   16  H   UNL     1      27.344  45.897  51.487  1.00  0.00     0.165 HD
BRANCH  13  17
HETATM   17  C   UNL     1      26.687  41.747  50.111  1.00  0.00     0.059 A 
HETATM   18  C   UNL     1      25.530  41.466  49.371  1.00  0.00    -0.032 A 
HETATM   19  C   UNL     1      24.223  42.194  49.502  1.00  0.00     0.050 C 
HETATM   20  C   UNL     1      25.574  40.407  48.445  1.00  0.00     0.028 A 
HETATM   21  C   UNL     1      26.719  39.634  48.335  1.00  0.00     0.117 A 
HETATM   22  N   UNL     1      27.819  39.832  49.081  1.00  0.00    -0.271 NA
HETATM   23  C   UNL     1      27.773  40.875  49.943  1.00  0.00     0.146 A 
ENDBRANCH  13  17
ENDBRANCH   9  11
ENDBRANCH   1   9
TORSDOF 3
ENDMDL
MODEL 7
REMARK VINA RESULT:      -8.0      2.316      3.165
REMARK  3 active torsions:
REMARK  status: ('A' for Active; 'I' for Inactive)
REMARK    1  A    between atoms: C_3  and  N_4 
REMARK       I    between atoms: N_4  and  C_5 
REMARK       I    between atoms: C_5  and  N_6 
REMARK    2  A    between atoms: N_6  and  C_7 
REMARK    3  A    between atoms: C_7  and  C_8 
ROOT
HETATM    1  C   UNL     1      28.231  44.645  54.156  1.00  0.00    -0.036 A 
HETATM    2  C   UNL     1      28.827  43.384  54.025  1.00  0.00     0.011 A 
HETATM    3  C   UNL     1      29.891  43.002  54.852  1.00  0.00     0.023 A 
HETATM    4  C   UNL     1      30.380  43.878  55.823  1.00  0.00     0.044 A 
HETATM    5  C   UNL     1      31.468  43.487  56.669  1.00  0.00     0.099 C 
HETATM    6  N   UNL     1      32.350  43.175  57.357  1.00  0.00    -0.191 NA
HETATM    7  C   UNL     1      29.802  45.140  55.963  1.00  0.00     0.023 A 
HETATM    8  C   UNL     1      28.739  45.519  55.136  1.00  0.00     0.011 A 
ENDROOT
BRANCH   1   9
HETATM    9  C   UNL     1      27.087  45.122  53.277  1.00  0.00     0.115 C 
HETATM   10  C   UNL     1      26.683  46.564  53.593  1.00  0.00     0.037 C 
BRANCH   9  11
HETATM   11  N   UNL     1      27.237  44.808  51.857  1.00  0.00    -0.335 N 
HETATM   12  C   UNL     1      26.419  44.813  50.772  1.00  0.00     0.321 C 
HETATM   13  N   UNL     1      25.096  45.039  50.997  1.00  0.00    -0.307 N 
HETATM   14  O   UNL     1      26.939  44.595  49.684  1.00  0.00    -0.247 OA
HETATM   15  H   UNL     1      24.782  44.697  51.888  1.00  0.00     0.170 HD
HETATM   16  H   UNL     1      28.195  44.690  51.549  1.00  0.00     0.165 HD
BRANCH  13  17
HETATM   17  C   UNL     1      24.073  45.170  50.025  1.00  0.00     0.059 A 
HETATM   18  C   UNL     1      23.249  44.150  49.529  1.00  0.00    -0.032 A 
HETATM   19  C   UNL     1      23.364  42.695  49.887  1.00  0.00     0.050 C 
HETATM   20  C   UNL     1      22.246  44.496  48.604  1.00  0.00     0.028 A 
HETATM   21  C   UNL     1      22.140  45.804  48.159  1.00  0.00     0.117 A 
HETATM   22  N   UNL     1      22.961  46.790  48.561  1.00  0.00    -0.271 NA
HETATM   23  C   UNL     1      23.898  46.448  49.475  1.00  0.00     0.146 A 
ENDBRANCH  13  17
ENDBRANCH   9  11
ENDBRANCH   1   9
TORSDOF 3
ENDMDL
MODEL 8
REMARK VINA RESULT:      -7.8      3.963      9.907
REMARK  3 active torsions:
REMARK  status: ('A' for Active; 'I' for Inactive)
REMARK    1  A    between atoms: C_3  and  N_4 
REMARK       I    between atoms: N_4  and  C_5 
REMARK       I    between atoms: C_5  and  N_6 
REMARK    2  A    between atoms: N_6  and  C_7 
REMARK    3  A    between atoms: C_7  and  C_8 
ROOT
HETATM    1  C   UNL     1      20.693  49.495  49.174  1.00  0.00    -0.036 A 
HETATM    2  C   UNL     1      20.795  50.757  48.574  1.00  0.00     0.011 A 
HETATM    3  C   UNL     1      19.805  51.728  48.769  1.00  0.00     0.023 A 
HETATM    4  C   UNL     1      18.691  51.451  49.566  1.00  0.00     0.044 A 
HETATM    5  C   UNL     1      17.678  52.444  49.765  1.00  0.00     0.099 C 
HETATM    6  N   UNL     1      16.854  53.246  49.929  1.00  0.00    -0.191 NA
HETATM    7  C   UNL     1      18.571  50.197  50.165  1.00  0.00     0.023 A 
HETATM    8  C   UNL     1      19.562  49.229  49.970  1.00  0.00     0.011 A 
ENDROOT
BRANCH   1   9
HETATM    9  C   UNL     1      21.726  48.396  48.985  1.00  0.00     0.115 C 
HETATM   10  C   UNL     1      21.491  47.605  47.697  1.00  0.00     0.037 C 
BRANCH   9  11
HETATM   11  N   UNL     1      23.108  48.809  49.225  1.00  0.00    -0.335 N 
HETATM   12  C   UNL     1      24.250  48.187  49.619  1.00  0.00     0.321 C 
HETATM   13  N   UNL     1      24.141  46.891  50.020  1.00  0.00    -0.307 N 
HETATM   14  O   UNL     1      25.279  48.852  49.598  1.00  0.00    -0.247 OA
HETATM   15  H   UNL     1      23.257  46.683  50.448  1.00  0.00     0.170 HD
HETATM   16  H   UNL     1      23.333  49.741  48.898  1.00  0.00     0.165 HD
BRANCH  13  17
HETATM   17  C   UNL     1      25.194  46.020  50.393  1.00  0.00     0.059 A 
HETATM   18  C   UNL     1      25.834  45.959  51.639  1.00  0.00    -0.032 A 
HETATM   19  C   UNL     1      25.565  46.882  52.794  1.00  0.00     0.050 C 
HETATM   20  C   UNL     1      26.824  44.978  51.831  1.00  0.00     0.028 A 
HETATM   21  C   UNL     1      27.187  44.150  50.781  1.00  0.00     0.117 A 
HETATM   22  N   UNL     1      26.644  44.231  49.554  1.00  0.00    -0.271 NA
HETATM   23  C   UNL     1      25.671  45.157  49.395  1.00  0.00     0.146 A 
ENDBRANCH  13  17
ENDBRANCH   9  11
ENDBRANCH   1   9
TORSDOF 3
ENDMDL
MODEL 9
REMARK VINA RESULT:      -7.8      4.716      7.316
REMARK  3 active torsions:
REMARK  status: ('A' for Active; 'I' for Inactive)
REMARK    1  A    between atoms: C_3  and  N_4 
REMARK       I    between atoms: N_4  and  C_5 
REMARK       I    between atoms: C_5  and  N_6 
REMARK    2  A    between atoms: N_6  and  C_7 
REMARK    3  A    between atoms: C_7  and  C_8 
ROOT
HETATM    1  C   UNL     1      27.893  44.085  53.520  1.00  0.00    -0.036 A 
HETATM    2  C   UNL     1      28.643  44.734  54.511  1.00  0.00     0.011 A 
HETATM    3  C   UNL     1      28.185  45.920  55.098  1.00  0.00     0.023 A 
HETATM    4  C   UNL     1      26.970  46.481  54.700  1.00  0.00     0.044 A 
HETATM    5  C   UNL     1      26.502  47.695  55.301  1.00  0.00     0.099 C 
HETATM    6  N   UNL     1      26.119  48.679  55.784  1.00  0.00    -0.191 NA
HETATM    7  C   UNL     1      26.214  45.852  53.711  1.00  0.00     0.023 A 
HETATM    8  C   UNL     1      26.673  44.667  53.127  1.00  0.00     0.011 A 
ENDROOT
BRANCH   1   9
HETATM    9  C   UNL     1      28.346  42.807  52.835  1.00  0.00     0.115 C 
HETATM   10  C   UNL     1      29.328  42.011  53.698  1.00  0.00     0.037 C 
BRANCH   9  11
HETATM   11  N   UNL     1      27.271  42.026  52.225  1.00  0.00    -0.335 N 
HETATM   12  C   UNL     1      27.188  41.099  51.236  1.00  0.00     0.321 C 
HETATM   13  N   UNL     1      28.315  40.871  50.507  1.00  0.00    -0.307 N 
HETATM   14  O   UNL     1      26.100  40.558  51.071  1.00  0.00    -0.247 OA
HETATM   15  H   UNL     1      28.898  41.684  50.415  1.00  0.00     0.170 HD
HETATM   16  H   UNL     1      26.390  42.058  52.725  1.00  0.00     0.165 HD
BRANCH  13  17
HETATM   17  C   UNL     1      28.493  39.903  49.488  1.00  0.00     0.059 A 
HETATM   18  C   UNL     1      29.129  38.659  49.610  1.00  0.00    -0.032 A 
HETATM   19  C   UNL     1      29.819  38.160  50.848  1.00  0.00     0.050 C 
HETATM   20  C   UNL     1      29.152  37.811  48.488  1.00  0.00     0.028 A 
HETATM   21  C   UNL     1      28.614  38.242  47.286  1.00  0.00     0.117 A 
HETATM   22  N   UNL     1      28.062  39.456  47.117  1.00  0.00    -0.271 NA
HETATM   23  C   UNL     1      28.018  40.247  48.214  1.00  0.00     0.146 A 
ENDBRANCH  13  17
ENDBRANCH   9  11
ENDBRANCH   1   9
TORSDOF 3
ENDMDL
MODEL 10
REMARK VINA RESULT:      -7.7      2.381      7.253
REMARK  3 active torsions:
REMARK  status: ('A' for Active; 'I' for Inactive)
REMARK    1  A    between atoms: C_3  and  N_4 
REMARK       I    between atoms: N_4  and  C_5 
REMARK       I    between atoms: C_5  and  N_6 
REMARK    2  A    between atoms: N_6  and  C_7 
REMARK    3  A    between atoms: C_7  and  C_8 
ROOT
HETATM    1  C   UNL     1      25.727  44.975  51.145  1.00  0.00    -0.036 A 
HETATM    2  C   UNL     1      25.301  46.223  51.621  1.00  0.00     0.011 A 
HETATM    3  C   UNL     1      25.768  47.410  51.041  1.00  0.00     0.023 A 
HETATM    4  C   UNL     1      26.673  47.368  49.978  1.00  0.00     0.044 A 
HETATM    5  C   UNL     1      27.151  48.582  49.385  1.00  0.00     0.099 C 
HETATM    6  N   UNL     1      27.541  49.563  48.902  1.00  0.00    -0.191 NA
HETATM    7  C   UNL     1      27.112  46.134  49.497  1.00  0.00     0.023 A 
HETATM    8  C   UNL     1      26.643  44.950  50.077  1.00  0.00     0.011 A 
ENDROOT
BRANCH   1   9
HETATM    9  C   UNL     1      25.269  43.655  51.745  1.00  0.00     0.115 C 
HETATM   10  C   UNL     1      24.150  43.011  50.924  1.00  0.00     0.037 C 
BRANCH   9  11
HETATM   11  N   UNL     1      26.352  42.758  52.145  1.00  0.00    -0.335 N 
HETATM   12  C   UNL     1      27.430  42.847  52.965  1.00  0.00     0.321 C 
HETATM   13  N   UNL     1      27.708  44.072  53.489  1.00  0.00    -0.307 N 
HETATM   14  O   UNL     1      28.073  41.820  53.151  1.00  0.00    -0.247 OA
HETATM   15  H   UNL     1      27.448  44.829  52.884  1.00  0.00     0.170 HD
HETATM   16  H   UNL     1      26.221  41.790  51.872  1.00  0.00     0.165 HD
BRANCH  13  17
HETATM   17  C   UNL     1      28.723  44.392  54.426  1.00  0.00     0.059 A 
HETATM   18  C   UNL     1      28.833  45.570  55.177  1.00  0.00    -0.032 A 
HETATM   19  C   UNL     1      27.921  46.758  55.058  1.00  0.00     0.050 C 
HETATM   20  C   UNL     1      29.889  45.673  56.102  1.00  0.00     0.028 A 
HETATM   21  C   UNL     1      30.821  44.652  56.200  1.00  0.00     0.117 A 
HETATM   22  N   UNL     1      30.785  43.542  55.443  1.00  0.00    -0.271 NA
HETATM   23  C   UNL     1      29.745  43.444  54.583  1.00  0.00     0.146 A 
ENDBRANCH  13  17
ENDBRANCH   9  11
ENDBRANCH   1   9
TORSDOF 3
ENDMDL
