MODEL 1
REMARK VINA RESULT:      -9.2      0.000      0.000
REMARK  9 active torsions:
REMARK  status: ('A' for Active; 'I' for Inactive)
REMARK    1  A    between atoms: C_2  and  O_3 
REMARK    2  A    between atoms: O_3  and  C_4 
REMARK    3  A    between atoms: C_5  and  O_6 
REMARK    4  A    between atoms: C_9  and  C_10 
REMARK    5  A    between atoms: C_10  and  N_11 
REMARK    6  A    between atoms: C_13  and  C_14 
REMARK       I    between atoms: C_14  and  N_15 
REMARK    7  A    between atoms: N_15  and  C_16 
REMARK    8  A    between atoms: C_28  and  S_29 
REMARK    9  A    between atoms: S_29  and  C_30 
ROOT
HETATM    1  N   UNL     1      23.905  45.617  49.020  1.00  0.00    -0.053 N 
HETATM    2  H   UNL     1      24.495  45.152  48.318  1.00  0.00     0.281 HD
HETATM    3  C   UNL     1      24.761  46.765  49.578  1.00  0.00     0.281 C 
HETATM    4  C   UNL     1      23.736  47.765  50.074  1.00  0.00     0.060 C 
HETATM    5  C   UNL     1      22.550  47.635  49.107  1.00  0.00     0.082 C 
HETATM    6  C   UNL     1      22.768  46.327  48.323  1.00  0.00     0.252 C 
ENDROOT
BRANCH   3   7
HETATM    7  C   UNL     1      25.895  46.325  50.517  1.00  0.00     0.253 C 
HETATM    8  N   UNL     1      25.618  46.391  51.869  1.00  0.00    -0.325 N 
HETATM    9  H   UNL     1      24.674  46.601  52.173  1.00  0.00     0.169 HD
HETATM   10  O   UNL     1      26.975  46.014  50.020  1.00  0.00    -0.271 OA
BRANCH   8  11
HETATM   11  C   UNL     1      26.549  46.224  52.926  1.00  0.00     0.037 A 
HETATM   12  C   UNL     1      27.326  45.073  53.105  1.00  0.00     0.062 A 
HETATM   13  C   UNL     1      28.274  44.999  54.151  1.00  0.00     0.077 A 
HETATM   14  C   UNL     1      28.412  46.084  55.013  1.00  0.00     0.035 A 
HETATM   15  N   UNL     1      29.113  43.929  54.404  1.00  0.00    -0.245 NA
HETATM   16  S   UNL     1      29.627  45.721  56.177  1.00  0.00    -0.073 SA
HETATM   17  C   UNL     1      27.637  47.244  54.866  1.00  0.00     0.023 A 
HETATM   18  C   UNL     1      29.883  44.194  55.436  1.00  0.00     0.072 A 
HETATM   19  C   UNL     1      30.913  43.259  55.968  1.00  0.00     0.079 C 
HETATM   20  C   UNL     1      26.716  47.296  53.809  1.00  0.00     0.031 A 
ENDBRANCH   8  11
ENDBRANCH   3   7
BRANCH   1  21
HETATM   21  C   UNL     1      23.479  44.477  49.933  1.00  0.00     0.274 C 
BRANCH  21  22
HETATM   22  C   UNL     1      24.194  43.161  49.774  1.00  0.00    -0.030 A 
HETATM   23  C   UNL     1      23.904  42.332  48.674  1.00  0.00     0.012 A 
HETATM   24  C   UNL     1      24.547  41.107  48.519  1.00  0.00     0.040 A 
HETATM   25  C   UNL     1      25.479  40.706  49.463  1.00  0.00     0.099 A 
HETATM   26  C   UNL     1      25.793  41.504  50.565  1.00  0.00     0.102 A 
HETATM   27  C   UNL     1      25.168  42.746  50.703  1.00  0.00     0.048 A 
BRANCH  25  28
HETATM   28  O   UNL     1      26.088  39.494  49.285  1.00  0.00    -0.358 OA
HETATM   29  H   UNL     1      25.456  38.950  48.775  1.00  0.00     0.218 HD
ENDBRANCH  25  28
BRANCH  26  30
HETATM   30  O   UNL     1      26.722  40.971  51.416  1.00  0.00    -0.349 OA
BRANCH  30  31
HETATM   31  C   UNL     1      27.943  41.692  51.580  1.00  0.00     0.171 C 
HETATM   32  C   UNL     1      28.836  40.881  52.501  1.00  0.00     0.034 C 
ENDBRANCH  30  31
ENDBRANCH  26  30
ENDBRANCH  21  22
ENDBRANCH   1  21
BRANCH   5  33
HETATM   33  S   UNL     1      22.501  49.083  47.986  1.00  0.00    -0.104 SA
BRANCH  33  34
HETATM   34  C   UNL     1      21.132  49.990  48.693  1.00  0.00     0.093 A 
HETATM   35  N   UNL     1      20.407  49.375  49.657  1.00  0.00    -0.254 NA
HETATM   36  C   UNL     1      19.374  50.076  50.184  1.00  0.00     0.118 A 
HETATM   37  C   UNL     1      19.017  51.350  49.776  1.00  0.00     0.019 A 
HETATM   38  C   UNL     1      19.765  51.949  48.772  1.00  0.00     0.004 A 
HETATM   39  C   UNL     1      20.844  51.263  48.219  1.00  0.00     0.039 A 
ENDBRANCH  33  34
ENDBRANCH   5  33
TORSDOF 9
ENDMDL
MODEL 2
REMARK VINA RESULT:      -9.1      2.721      5.893
REMARK  9 active torsions:
REMARK  status: ('A' for Active; 'I' for Inactive)
REMARK    1  A    between atoms: C_2  and  O_3 
REMARK    2  A    between atoms: O_3  and  C_4 
REMARK    3  A    between atoms: C_5  and  O_6 
REMARK    4  A    between atoms: C_9  and  C_10 
REMARK    5  A    between atoms: C_10  and  N_11 
REMARK    6  A    between atoms: C_13  and  C_14 
REMARK       I    between atoms: C_14  and  N_15 
REMARK    7  A    between atoms: N_15  and  C_16 
REMARK    8  A    between atoms: C_28  and  S_29 
REMARK    9  A    between atoms: S_29  and  C_30 
ROOT
HETATM    1  N   UNL     1      24.346  45.151  51.031  1.00  0.00    -0.053 N 
HETATM    2  H   UNL     1      24.042  44.719  51.914  1.00  0.00     0.281 HD
HETATM    3  C   UNL     1      25.387  44.187  50.440  1.00  0.00     0.281 C 
HETATM    4  C   UNL     1      25.330  44.470  48.952  1.00  0.00     0.060 C 
HETATM    5  C   UNL     1      23.863  44.827  48.670  1.00  0.00     0.082 C 
HETATM    6  C   UNL     1      23.209  45.100  50.037  1.00  0.00     0.252 C 
ENDROOT
BRANCH   3   7
HETATM    7  C   UNL     1      26.748  44.194  51.153  1.00  0.00     0.253 C 
HETATM    8  N   UNL     1      26.741  43.774  52.469  1.00  0.00    -0.325 N 
HETATM    9  H   UNL     1      25.894  43.377  52.859  1.00  0.00     0.169 HD
HETATM   10  O   UNL     1      27.722  44.628  50.543  1.00  0.00    -0.271 OA
BRANCH   8  11
HETATM   11  C   UNL     1      27.819  43.869  53.386  1.00  0.00     0.037 A 
HETATM   12  C   UNL     1      27.897  44.832  54.400  1.00  0.00     0.062 A 
HETATM   13  C   UNL     1      28.977  44.831  55.312  1.00  0.00     0.077 A 
HETATM   14  C   UNL     1      29.974  43.868  55.177  1.00  0.00     0.035 A 
HETATM   15  N   UNL     1      29.142  45.712  56.366  1.00  0.00    -0.245 NA
HETATM   16  S   UNL     1      31.149  44.103  56.411  1.00  0.00    -0.073 SA
HETATM   17  C   UNL     1      29.928  42.901  54.162  1.00  0.00     0.023 A 
HETATM   18  C   UNL     1      30.240  45.422  57.029  1.00  0.00     0.072 A 
HETATM   19  C   UNL     1      30.708  46.166  58.230  1.00  0.00     0.079 C 
HETATM   20  C   UNL     1      28.836  42.915  53.281  1.00  0.00     0.031 A 
ENDBRANCH   8  11
ENDBRANCH   3   7
BRANCH   1  21
HETATM   21  C   UNL     1      24.762  46.552  51.450  1.00  0.00     0.274 C 
BRANCH  21  22
HETATM   22  C   UNL     1      25.094  47.531  50.354  1.00  0.00    -0.030 A 
HETATM   23  C   UNL     1      26.438  47.830  50.063  1.00  0.00     0.012 A 
HETATM   24  C   UNL     1      26.762  48.742  49.062  1.00  0.00     0.040 A 
HETATM   25  C   UNL     1      25.744  49.358  48.351  1.00  0.00     0.099 A 
HETATM   26  C   UNL     1      24.400  49.082  48.611  1.00  0.00     0.102 A 
HETATM   27  C   UNL     1      24.078  48.146  49.596  1.00  0.00     0.048 A 
BRANCH  25  28
HETATM   28  O   UNL     1      26.095  50.252  47.377  1.00  0.00    -0.358 OA
HETATM   29  H   UNL     1      26.768  50.836  47.781  1.00  0.00     0.218 HD
ENDBRANCH  25  28
BRANCH  26  30
HETATM   30  O   UNL     1      23.510  49.775  47.837  1.00  0.00    -0.349 OA
BRANCH  30  31
HETATM   31  C   UNL     1      22.898  50.924  48.421  1.00  0.00     0.171 C 
HETATM   32  C   UNL     1      21.395  50.762  48.291  1.00  0.00     0.034 C 
ENDBRANCH  30  31
ENDBRANCH  26  30
ENDBRANCH  21  22
ENDBRANCH   1  21
BRANCH   5  33
HETATM   33  S   UNL     1      23.041  43.438  47.803  1.00  0.00    -0.104 SA
BRANCH  33  34
HETATM   34  C   UNL     1      21.670  44.298  47.044  1.00  0.00     0.093 A 
HETATM   35  N   UNL     1      20.469  43.674  47.037  1.00  0.00    -0.254 NA
HETATM   36  C   UNL     1      19.439  44.339  46.460  1.00  0.00     0.118 A 
HETATM   37  C   UNL     1      19.558  45.585  45.869  1.00  0.00     0.019 A 
HETATM   38  C   UNL     1      20.806  46.194  45.873  1.00  0.00     0.004 A 
HETATM   39  C   UNL     1      21.883  45.545  46.471  1.00  0.00     0.039 A 
ENDBRANCH  33  34
ENDBRANCH   5  33
TORSDOF 9
ENDMDL
MODEL 3
REMARK VINA RESULT:      -8.9      2.832      6.385
REMARK  9 active torsions:
REMARK  status: ('A' for Active; 'I' for Inactive)
REMARK    1  A    between atoms: C_2  and  O_3 
REMARK    2  A    between atoms: O_3  and  C_4 
REMARK    3  A    between atoms: C_5  and  O_6 
REMARK    4  A    between atoms: C_9  and  C_10 
REMARK    5  A    between atoms: C_10  and  N_11 
REMARK    6  A    between atoms: C_13  and  C_14 
REMARK       I    between atoms: C_14  and  N_15 
REMARK    7  A    between atoms: N_15  and  C_16 
REMARK    8  A    between atoms: C_28  and  S_29 
REMARK    9  A    between atoms: S_29  and  C_30 
ROOT
HETATM    1  N   UNL     1      24.133  45.517  50.705  1.00  0.00    -0.053 N 
HETATM    2  H   UNL     1      23.312  45.847  51.230  1.00  0.00     0.281 HD
HETATM    3  C   UNL     1      24.583  44.230  51.414  1.00  0.00     0.281 C 
HETATM    4  C   UNL     1      25.307  43.459  50.328  1.00  0.00     0.060 C 
HETATM    5  C   UNL     1      24.565  43.809  49.029  1.00  0.00     0.082 C 
HETATM    6  C   UNL     1      23.690  45.037  49.342  1.00  0.00     0.252 C 
ENDROOT
BRANCH   3   7
HETATM    7  C   UNL     1      25.278  44.450  52.767  1.00  0.00     0.253 C 
HETATM    8  N   UNL     1      26.547  44.991  52.712  1.00  0.00    -0.325 N 
HETATM    9  H   UNL     1      26.907  45.324  51.825  1.00  0.00     0.169 HD
HETATM   10  O   UNL     1      24.701  44.075  53.785  1.00  0.00    -0.271 OA
BRANCH   8  11
HETATM   11  C   UNL     1      27.456  45.111  53.795  1.00  0.00     0.037 A 
HETATM   12  C   UNL     1      28.428  44.152  54.105  1.00  0.00     0.062 A 
HETATM   13  C   UNL     1      29.336  44.365  55.167  1.00  0.00     0.077 A 
HETATM   14  C   UNL     1      29.239  45.538  55.912  1.00  0.00     0.035 A 
HETATM   15  N   UNL     1      30.351  43.504  55.544  1.00  0.00    -0.245 NA
HETATM   16  S   UNL     1      30.459  45.530  57.126  1.00  0.00    -0.073 SA
HETATM   17  C   UNL     1      28.267  46.509  55.632  1.00  0.00     0.023 A 
HETATM   18  C   UNL     1      31.023  44.013  56.554  1.00  0.00     0.072 A 
HETATM   19  C   UNL     1      32.190  43.349  57.197  1.00  0.00     0.079 C 
HETATM   20  C   UNL     1      27.389  46.278  54.562  1.00  0.00     0.031 A 
ENDBRANCH   8  11
ENDBRANCH   3   7
BRANCH   1  21
HETATM   21  C   UNL     1      25.049  46.731  50.685  1.00  0.00     0.274 C 
BRANCH  21  22
HETATM   22  C   UNL     1      24.664  47.872  49.780  1.00  0.00    -0.030 A 
HETATM   23  C   UNL     1      25.663  48.667  49.189  1.00  0.00     0.012 A 
HETATM   24  C   UNL     1      25.325  49.734  48.360  1.00  0.00     0.040 A 
HETATM   25  C   UNL     1      23.987  50.009  48.122  1.00  0.00     0.099 A 
HETATM   26  C   UNL     1      22.970  49.239  48.689  1.00  0.00     0.102 A 
HETATM   27  C   UNL     1      23.313  48.152  49.498  1.00  0.00     0.048 A 
BRANCH  25  28
HETATM   28  O   UNL     1      23.688  51.067  47.308  1.00  0.00    -0.358 OA
HETATM   29  H   UNL     1      23.367  51.776  47.900  1.00  0.00     0.218 HD
ENDBRANCH  25  28
BRANCH  26  30
HETATM   30  O   UNL     1      21.700  49.638  48.373  1.00  0.00    -0.349 OA
BRANCH  30  31
HETATM   31  C   UNL     1      20.971  50.341  49.379  1.00  0.00     0.171 C 
HETATM   32  C   UNL     1      20.327  51.548  48.722  1.00  0.00     0.034 C 
ENDBRANCH  30  31
ENDBRANCH  26  30
ENDBRANCH  21  22
ENDBRANCH   1  21
BRANCH   5  33
HETATM   33  S   UNL     1      23.547  42.384  48.493  1.00  0.00    -0.104 SA
BRANCH  33  34
HETATM   34  C   UNL     1      22.600  43.140  47.180  1.00  0.00     0.093 A 
HETATM   35  N   UNL     1      21.268  43.284  47.373  1.00  0.00    -0.254 NA
HETATM   36  C   UNL     1      20.564  43.861  46.370  1.00  0.00     0.118 A 
HETATM   37  C   UNL     1      21.123  44.278  45.174  1.00  0.00     0.019 A 
HETATM   38  C   UNL     1      22.488  44.100  44.993  1.00  0.00     0.004 A 
HETATM   39  C   UNL     1      23.244  43.525  46.011  1.00  0.00     0.039 A 
ENDBRANCH  33  34
ENDBRANCH   5  33
TORSDOF 9
ENDMDL
MODEL 4
REMARK VINA RESULT:      -8.8      2.838      9.879
REMARK  9 active torsions:
REMARK  status: ('A' for Active; 'I' for Inactive)
REMARK    1  A    between atoms: C_2  and  O_3 
REMARK    2  A    between atoms: O_3  and  C_4 
REMARK    3  A    between atoms: C_5  and  O_6 
REMARK    4  A    between atoms: C_9  and  C_10 
REMARK    5  A    between atoms: C_10  and  N_11 
REMARK    6  A    between atoms: C_13  and  C_14 
REMARK       I    between atoms: C_14  and  N_15 
REMARK    7  A    between atoms: N_15  and  C_16 
REMARK    8  A    between atoms: C_28  and  S_29 
REMARK    9  A    between atoms: S_29  and  C_30 
ROOT
HETATM    1  N   UNL     1      25.955  45.130  50.915  1.00  0.00    -0.053 N 
HETATM    2  H   UNL     1      26.262  45.201  49.935  1.00  0.00     0.281 HD
HETATM    3  C   UNL     1      25.385  43.712  51.065  1.00  0.00     0.281 C 
HETATM    4  C   UNL     1      25.547  43.417  52.543  1.00  0.00     0.060 C 
HETATM    5  C   UNL     1      26.835  44.143  52.955  1.00  0.00     0.082 C 
HETATM    6  C   UNL     1      27.169  45.123  51.815  1.00  0.00     0.252 C 
ENDROOT
BRANCH   3   7
HETATM    7  C   UNL     1      24.015  43.495  50.403  1.00  0.00     0.253 C 
HETATM    8  N   UNL     1      23.851  44.066  49.156  1.00  0.00    -0.325 N 
HETATM    9  H   UNL     1      24.650  44.483  48.692  1.00  0.00     0.169 HD
HETATM   10  O   UNL     1      23.148  42.901  51.039  1.00  0.00    -0.271 OA
BRANCH   8  11
HETATM   11  C   UNL     1      22.634  44.170  48.433  1.00  0.00     0.037 A 
HETATM   12  C   UNL     1      21.612  45.071  48.754  1.00  0.00     0.062 A 
HETATM   13  C   UNL     1      20.450  45.155  47.954  1.00  0.00     0.077 A 
HETATM   14  C   UNL     1      20.328  44.314  46.850  1.00  0.00     0.035 A 
HETATM   15  N   UNL     1      19.393  46.024  48.158  1.00  0.00    -0.245 NA
HETATM   16  S   UNL     1      18.828  44.633  46.068  1.00  0.00    -0.073 SA
HETATM   17  C   UNL     1      21.331  43.393  46.514  1.00  0.00     0.023 A 
HETATM   18  C   UNL     1      18.484  45.856  47.222  1.00  0.00     0.072 A 
HETATM   19  C   UNL     1      17.222  46.642  47.137  1.00  0.00     0.079 C 
HETATM   20  C   UNL     1      22.481  43.343  47.316  1.00  0.00     0.031 A 
ENDBRANCH   8  11
ENDBRANCH   3   7
BRANCH   1  21
HETATM   21  C   UNL     1      25.043  46.335  51.085  1.00  0.00     0.274 C 
BRANCH  21  22
HETATM   22  C   UNL     1      25.182  47.454  50.087  1.00  0.00    -0.030 A 
HETATM   23  C   UNL     1      26.440  48.047  49.866  1.00  0.00     0.012 A 
HETATM   24  C   UNL     1      26.583  49.091  48.956  1.00  0.00     0.040 A 
HETATM   25  C   UNL     1      25.471  49.545  48.265  1.00  0.00     0.099 A 
HETATM   26  C   UNL     1      24.210  48.978  48.456  1.00  0.00     0.102 A 
HETATM   27  C   UNL     1      24.073  47.913  49.349  1.00  0.00     0.048 A 
BRANCH  25  28
HETATM   28  O   UNL     1      25.645  50.575  47.382  1.00  0.00    -0.358 OA
HETATM   29  H   UNL     1      26.380  51.112  47.738  1.00  0.00     0.218 HD
ENDBRANCH  25  28
BRANCH  26  30
HETATM   30  O   UNL     1      23.207  49.540  47.713  1.00  0.00    -0.349 OA
BRANCH  30  31
HETATM   31  C   UNL     1      21.887  49.480  48.252  1.00  0.00     0.171 C 
HETATM   32  C   UNL     1      21.569  50.841  48.843  1.00  0.00     0.034 C 
ENDBRANCH  30  31
ENDBRANCH  26  30
ENDBRANCH  21  22
ENDBRANCH   1  21
BRANCH   5  33
HETATM   33  S   UNL     1      28.182  42.927  53.204  1.00  0.00    -0.104 SA
BRANCH  33  34
HETATM   34  C   UNL     1      29.119  43.741  54.489  1.00  0.00     0.093 A 
HETATM   35  N   UNL     1      28.681  44.951  54.910  1.00  0.00    -0.254 NA
HETATM   36  C   UNL     1      29.401  45.555  55.886  1.00  0.00     0.118 A 
HETATM   37  C   UNL     1      30.549  45.020  56.443  1.00  0.00     0.019 A 
HETATM   38  C   UNL     1      30.988  43.787  55.978  1.00  0.00     0.004 A 
HETATM   39  C   UNL     1      30.263  43.132  54.987  1.00  0.00     0.039 A 
ENDBRANCH  33  34
ENDBRANCH   5  33
TORSDOF 9
ENDMDL
MODEL 5
REMARK VINA RESULT:      -8.8      2.984      8.757
REMARK  9 active torsions:
REMARK  status: ('A' for Active; 'I' for Inactive)
REMARK    1  A    between atoms: C_2  and  O_3 
REMARK    2  A    between atoms: O_3  and  C_4 
REMARK    3  A    between atoms: C_5  and  O_6 
REMARK    4  A    between atoms: C_9  and  C_10 
REMARK    5  A    between atoms: C_10  and  N_11 
REMARK    6  A    between atoms: C_13  and  C_14 
REMARK       I    between atoms: C_14  and  N_15 
REMARK    7  A    between atoms: N_15  and  C_16 
REMARK    8  A    between atoms: C_28  and  S_29 
REMARK    9  A    between atoms: S_29  and  C_30 
ROOT
HETATM    1  N   UNL     1      27.585  42.854  51.888  1.00  0.00    -0.053 N 
HETATM    2  H   UNL     1      28.390  43.471  52.061  1.00  0.00     0.281 HD
HETATM    3  C   UNL     1      27.268  43.004  50.392  1.00  0.00     0.281 C 
HETATM    4  C   UNL     1      26.580  41.700  50.041  1.00  0.00     0.060 C 
HETATM    5  C   UNL     1      27.250  40.643  50.932  1.00  0.00     0.082 C 
HETATM    6  C   UNL     1      28.027  41.414  52.015  1.00  0.00     0.252 C 
ENDROOT
BRANCH   3   7
HETATM    7  C   UNL     1      26.598  44.332  50.007  1.00  0.00     0.253 C 
HETATM    8  N   UNL     1      25.218  44.352  50.069  1.00  0.00    -0.325 N 
HETATM    9  H   UNL     1      24.728  43.560  50.469  1.00  0.00     0.169 HD
HETATM   10  O   UNL     1      27.312  45.251  49.610  1.00  0.00    -0.271 OA
BRANCH   8  11
HETATM   11  C   UNL     1      24.371  45.383  49.587  1.00  0.00     0.037 A 
HETATM   12  C   UNL     1      24.474  46.723  49.980  1.00  0.00     0.062 A 
HETATM   13  C   UNL     1      23.629  47.705  49.416  1.00  0.00     0.077 A 
HETATM   14  C   UNL     1      22.678  47.317  48.474  1.00  0.00     0.035 A 
HETATM   15  N   UNL     1      23.660  49.058  49.706  1.00  0.00    -0.245 NA
HETATM   16  S   UNL     1      21.800  48.707  47.963  1.00  0.00    -0.073 SA
HETATM   17  C   UNL     1      22.544  45.980  48.074  1.00  0.00     0.023 A 
HETATM   18  C   UNL     1      22.756  49.693  48.993  1.00  0.00     0.072 A 
HETATM   19  C   UNL     1      22.532  51.163  49.051  1.00  0.00     0.079 C 
HETATM   20  C   UNL     1      23.407  45.029  48.638  1.00  0.00     0.031 A 
ENDBRANCH   8  11
ENDBRANCH   3   7
BRANCH   1  21
HETATM   21  C   UNL     1      26.569  43.302  52.927  1.00  0.00     0.274 C 
BRANCH  21  22
HETATM   22  C   UNL     1      26.785  44.647  53.570  1.00  0.00    -0.030 A 
HETATM   23  C   UNL     1      25.786  45.635  53.484  1.00  0.00     0.012 A 
HETATM   24  C   UNL     1      25.975  46.887  54.062  1.00  0.00     0.040 A 
HETATM   25  C   UNL     1      27.161  47.156  54.726  1.00  0.00     0.099 A 
HETATM   26  C   UNL     1      28.172  46.199  54.833  1.00  0.00     0.102 A 
HETATM   27  C   UNL     1      27.970  44.933  54.277  1.00  0.00     0.048 A 
BRANCH  25  28
HETATM   28  O   UNL     1      27.317  48.398  55.278  1.00  0.00    -0.358 OA
HETATM   29  H   UNL     1      27.785  48.256  56.124  1.00  0.00     0.218 HD
ENDBRANCH  25  28
BRANCH  26  30
HETATM   30  O   UNL     1      29.289  46.613  55.506  1.00  0.00    -0.349 OA
BRANCH  30  31
HETATM   31  C   UNL     1      29.750  45.784  56.572  1.00  0.00     0.171 C 
HETATM   32  C   UNL     1      28.899  46.087  57.791  1.00  0.00     0.034 C 
ENDBRANCH  30  31
ENDBRANCH  26  30
ENDBRANCH  21  22
ENDBRANCH   1  21
BRANCH   5  33
HETATM   33  S   UNL     1      28.370  39.601  49.924  1.00  0.00    -0.104 SA
BRANCH  33  34
HETATM   34  C   UNL     1      27.655  39.835  48.302  1.00  0.00     0.093 A 
HETATM   35  N   UNL     1      26.522  39.153  48.015  1.00  0.00    -0.254 NA
HETATM   36  C   UNL     1      25.992  39.342  46.783  1.00  0.00     0.118 A 
HETATM   37  C   UNL     1      26.552  40.161  45.818  1.00  0.00     0.019 A 
HETATM   38  C   UNL     1      27.726  40.834  46.132  1.00  0.00     0.004 A 
HETATM   39  C   UNL     1      28.289  40.674  47.395  1.00  0.00     0.039 A 
ENDBRANCH  33  34
ENDBRANCH   5  33
TORSDOF 9
ENDMDL
MODEL 6
REMARK VINA RESULT:      -8.8      1.713      2.167
REMARK  9 active torsions:
REMARK  status: ('A' for Active; 'I' for Inactive)
REMARK    1  A    between atoms: C_2  and  O_3 
REMARK    2  A    between atoms: O_3  and  C_4 
REMARK    3  A    between atoms: C_5  and  O_6 
REMARK    4  A    between atoms: C_9  and  C_10 
REMARK    5  A    between atoms: C_10  and  N_11 
REMARK    6  A    between atoms: C_13  and  C_14 
REMARK       I    between atoms: C_14  and  N_15 
REMARK    7  A    between atoms: N_15  and  C_16 
REMARK    8  A    between atoms: C_28  and  S_29 
REMARK    9  A    between atoms: S_29  and  C_30 
ROOT
HETATM    1  N   UNL     1      24.501  43.749  48.166  1.00  0.00    -0.053 N 
HETATM    2  H   UNL     1      25.316  43.659  47.545  1.00  0.00     0.281 HD
HETATM    3  C   UNL     1      24.597  45.160  48.767  1.00  0.00     0.281 C 
HETATM    4  C   UNL     1      23.161  45.496  49.118  1.00  0.00     0.060 C 
HETATM    5  C   UNL     1      22.314  44.806  48.039  1.00  0.00     0.082 C 
HETATM    6  C   UNL     1      23.243  43.803  47.330  1.00  0.00     0.252 C 
ENDROOT
BRANCH   3   7
HETATM    7  C   UNL     1      25.690  45.332  49.833  1.00  0.00     0.253 C 
HETATM    8  N   UNL     1      25.296  45.121  51.140  1.00  0.00    -0.325 N 
HETATM    9  H   UNL     1      24.370  44.754  51.326  1.00  0.00     0.169 HD
HETATM   10  O   UNL     1      26.804  45.706  49.470  1.00  0.00    -0.271 OA
BRANCH   8  11
HETATM   11  C   UNL     1      26.060  45.400  52.303  1.00  0.00     0.037 A 
HETATM   12  C   UNL     1      27.136  44.615  52.734  1.00  0.00     0.062 A 
HETATM   13  C   UNL     1      27.886  44.986  53.874  1.00  0.00     0.077 A 
HETATM   14  C   UNL     1      27.527  46.137  54.572  1.00  0.00     0.035 A 
HETATM   15  N   UNL     1      28.982  44.306  54.373  1.00  0.00    -0.245 NA
HETATM   16  S   UNL     1      28.603  46.342  55.900  1.00  0.00    -0.073 SA
HETATM   17  C   UNL     1      26.445  46.933  54.170  1.00  0.00     0.023 A 
HETATM   18  C   UNL     1      29.458  44.930  55.429  1.00  0.00     0.072 A 
HETATM   19  C   UNL     1      30.645  44.472  56.202  1.00  0.00     0.079 C 
HETATM   20  C   UNL     1      25.729  46.550  53.026  1.00  0.00     0.031 A 
ENDBRANCH   8  11
ENDBRANCH   3   7
BRANCH   1  21
HETATM   21  C   UNL     1      24.611  42.531  49.070  1.00  0.00     0.274 C 
BRANCH  21  22
HETATM   22  C   UNL     1      25.926  41.796  49.081  1.00  0.00    -0.030 A 
HETATM   23  C   UNL     1      26.553  41.459  47.867  1.00  0.00     0.012 A 
HETATM   24  C   UNL     1      27.762  40.768  47.859  1.00  0.00     0.040 A 
HETATM   25  C   UNL     1      28.347  40.412  49.064  1.00  0.00     0.099 A 
HETATM   26  C   UNL     1      27.755  40.733  50.287  1.00  0.00     0.102 A 
HETATM   27  C   UNL     1      26.556  41.450  50.293  1.00  0.00     0.048 A 
BRANCH  25  28
HETATM   28  O   UNL     1      29.531  39.729  49.022  1.00  0.00    -0.358 OA
HETATM   29  H   UNL     1      29.534  39.151  49.810  1.00  0.00     0.218 HD
ENDBRANCH  25  28
BRANCH  26  30
HETATM   30  O   UNL     1      28.442  40.305  51.390  1.00  0.00    -0.349 OA
BRANCH  30  31
HETATM   31  C   UNL     1      28.894  41.305  52.302  1.00  0.00     0.171 C 
HETATM   32  C   UNL     1      28.255  41.022  53.649  1.00  0.00     0.034 C 
ENDBRANCH  30  31
ENDBRANCH  26  30
ENDBRANCH  21  22
ENDBRANCH   1  21
BRANCH   5  33
HETATM   33  S   UNL     1      21.663  46.054  46.868  1.00  0.00    -0.104 SA
BRANCH  33  34
HETATM   34  C   UNL     1      20.890  47.193  48.009  1.00  0.00     0.093 A 
HETATM   35  N   UNL     1      19.733  46.803  48.593  1.00  0.00    -0.254 NA
HETATM   36  C   UNL     1      19.160  47.676  49.456  1.00  0.00     0.118 A 
HETATM   37  C   UNL     1      19.675  48.928  49.744  1.00  0.00     0.019 A 
HETATM   38  C   UNL     1      20.852  49.311  49.115  1.00  0.00     0.004 A 
HETATM   39  C   UNL     1      21.475  48.432  48.234  1.00  0.00     0.039 A 
ENDBRANCH  33  34
ENDBRANCH   5  33
TORSDOF 9
ENDMDL
MODEL 7
REMARK VINA RESULT:      -8.7      1.861      2.648
REMARK  9 active torsions:
REMARK  status: ('A' for Active; 'I' for Inactive)
REMARK    1  A    between atoms: C_2  and  O_3 
REMARK    2  A    between atoms: O_3  and  C_4 
REMARK    3  A    between atoms: C_5  and  O_6 
REMARK    4  A    between atoms: C_9  and  C_10 
REMARK    5  A    between atoms: C_10  and  N_11 
REMARK    6  A    between atoms: C_13  and  C_14 
REMARK       I    between atoms: C_14  and  N_15 
REMARK    7  A    between atoms: N_15  and  C_16 
REMARK    8  A    between atoms: C_28  and  S_29 
REMARK    9  A    between atoms: S_29  and  C_30 
ROOT
HETATM    1  N   UNL     1      24.506  43.932  48.490  1.00  0.00    -0.053 N 
HETATM    2  H   UNL     1      25.255  43.706  47.822  1.00  0.00     0.281 HD
HETATM    3  C   UNL     1      24.897  45.286  49.101  1.00  0.00     0.281 C 
HETATM    4  C   UNL     1      23.571  45.877  49.538  1.00  0.00     0.060 C 
HETATM    5  C   UNL     1      22.553  45.382  48.501  1.00  0.00     0.082 C 
HETATM    6  C   UNL     1      23.238  44.240  47.727  1.00  0.00     0.252 C 
ENDROOT
BRANCH   3   7
HETATM    7  C   UNL     1      26.059  45.227  50.106  1.00  0.00     0.253 C 
HETATM    8  N   UNL     1      25.702  45.142  51.437  1.00  0.00    -0.325 N 
HETATM    9  H   UNL     1      24.728  45.003  51.682  1.00  0.00     0.169 HD
HETATM   10  O   UNL     1      27.206  45.326  49.675  1.00  0.00    -0.271 OA
BRANCH   8  11
HETATM   11  C   UNL     1      26.573  45.265  52.550  1.00  0.00     0.037 A 
HETATM   12  C   UNL     1      27.515  44.294  52.912  1.00  0.00     0.062 A 
HETATM   13  C   UNL     1      28.388  44.510  54.002  1.00  0.00     0.077 A 
HETATM   14  C   UNL     1      28.285  45.697  54.724  1.00  0.00     0.035 A 
HETATM   15  N   UNL     1      29.373  43.638  54.431  1.00  0.00    -0.245 NA
HETATM   16  S   UNL     1      29.460  45.689  55.982  1.00  0.00    -0.073 SA
HETATM   17  C   UNL     1      27.341  46.680  54.392  1.00  0.00     0.023 A 
HETATM   18  C   UNL     1      30.016  44.153  55.456  1.00  0.00     0.072 A 
HETATM   19  C   UNL     1      31.147  43.480  56.152  1.00  0.00     0.079 C 
HETATM   20  C   UNL     1      26.499  46.446  53.294  1.00  0.00     0.031 A 
ENDBRANCH   8  11
ENDBRANCH   3   7
BRANCH   1  21
HETATM   21  C   UNL     1      24.434  42.695  49.371  1.00  0.00     0.274 C 
BRANCH  21  22
HETATM   22  C   UNL     1      25.696  41.888  49.533  1.00  0.00    -0.030 A 
HETATM   23  C   UNL     1      26.089  41.447  50.810  1.00  0.00     0.012 A 
HETATM   24  C   UNL     1      27.259  40.711  50.980  1.00  0.00     0.040 A 
HETATM   25  C   UNL     1      28.039  40.415  49.873  1.00  0.00     0.099 A 
HETATM   26  C   UNL     1      27.677  40.833  48.591  1.00  0.00     0.102 A 
HETATM   27  C   UNL     1      26.489  41.547  48.420  1.00  0.00     0.048 A 
BRANCH  25  28
HETATM   28  O   UNL     1      29.184  39.695  50.074  1.00  0.00    -0.358 OA
HETATM   29  H   UNL     1      29.813  39.998  49.390  1.00  0.00     0.218 HD
ENDBRANCH  25  28
BRANCH  26  30
HETATM   30  O   UNL     1      28.552  40.476  47.601  1.00  0.00    -0.349 OA
BRANCH  30  31
HETATM   31  C   UNL     1      28.033  39.692  46.527  1.00  0.00     0.171 C 
HETATM   32  C   UNL     1      28.176  40.504  45.253  1.00  0.00     0.034 C 
ENDBRANCH  30  31
ENDBRANCH  26  30
ENDBRANCH  21  22
ENDBRANCH   1  21
BRANCH   5  33
HETATM   33  S   UNL     1      22.085  46.757  47.385  1.00  0.00    -0.104 SA
BRANCH  33  34
HETATM   34  C   UNL     1      20.964  47.662  48.442  1.00  0.00     0.093 A 
HETATM   35  N   UNL     1      21.368  48.875  48.888  1.00  0.00    -0.254 NA
HETATM   36  C   UNL     1      20.507  49.549  49.686  1.00  0.00     0.118 A 
HETATM   37  C   UNL     1      19.273  49.060  50.079  1.00  0.00     0.019 A 
HETATM   38  C   UNL     1      18.892  47.805  49.624  1.00  0.00     0.004 A 
HETATM   39  C   UNL     1      19.747  47.091  48.789  1.00  0.00     0.039 A 
ENDBRANCH  33  34
ENDBRANCH   5  33
TORSDOF 9
ENDMDL
MODEL 8
REMARK VINA RESULT:      -8.6      2.777      5.321
REMARK  9 active torsions:
REMARK  status: ('A' for Active; 'I' for Inactive)
REMARK    1  A    between atoms: C_2  and  O_3 
REMARK    2  A    between atoms: O_3  and  C_4 
REMARK    3  A    between atoms: C_5  and  O_6 
REMARK    4  A    between atoms: C_9  and  C_10 
REMARK    5  A    between atoms: C_10  and  N_11 
REMARK    6  A    between atoms: C_13  and  C_14 
REMARK       I    between atoms: C_14  and  N_15 
REMARK    7  A    between atoms: N_15  and  C_16 
REMARK    8  A    between atoms: C_28  and  S_29 
REMARK    9  A    between atoms: S_29  and  C_30 
ROOT
HETATM    1  N   UNL     1      23.892  46.218  50.203  1.00  0.00    -0.053 N 
HETATM    2  H   UNL     1      23.612  46.131  51.190  1.00  0.00     0.281 HD
HETATM    3  C   UNL     1      23.308  44.981  49.503  1.00  0.00     0.281 C 
HETATM    4  C   UNL     1      23.160  45.425  48.061  1.00  0.00     0.060 C 
HETATM    5  C   UNL     1      22.820  46.921  48.137  1.00  0.00     0.082 C 
HETATM    6  C   UNL     1      23.145  47.370  49.574  1.00  0.00     0.252 C 
ENDROOT
BRANCH   3   7
HETATM    7  C   UNL     1      24.036  43.663  49.811  1.00  0.00     0.253 C 
HETATM    8  N   UNL     1      25.027  43.299  48.921  1.00  0.00    -0.325 N 
HETATM    9  H   UNL     1      25.309  43.952  48.198  1.00  0.00     0.169 HD
HETATM   10  O   UNL     1      23.651  42.996  50.768  1.00  0.00    -0.271 OA
BRANCH   8  11
HETATM   11  C   UNL     1      25.704  42.053  48.880  1.00  0.00     0.037 A 
HETATM   12  C   UNL     1      26.828  41.751  49.658  1.00  0.00     0.062 A 
HETATM   13  C   UNL     1      27.417  40.467  49.604  1.00  0.00     0.077 A 
HETATM   14  C   UNL     1      26.871  39.510  48.751  1.00  0.00     0.035 A 
HETATM   15  N   UNL     1      28.507  40.049  50.346  1.00  0.00    -0.245 NA
HETATM   16  S   UNL     1      27.780  38.055  48.891  1.00  0.00    -0.073 SA
HETATM   17  C   UNL     1      25.755  39.790  47.950  1.00  0.00     0.023 A 
HETATM   18  C   UNL     1      28.785  38.794  50.071  1.00  0.00     0.072 A 
HETATM   19  C   UNL     1      29.893  38.028  50.706  1.00  0.00     0.079 C 
HETATM   20  C   UNL     1      25.181  41.068  48.036  1.00  0.00     0.031 A 
ENDBRANCH   8  11
ENDBRANCH   3   7
BRANCH   1  21
HETATM   21  C   UNL     1      25.400  46.403  50.280  1.00  0.00     0.274 C 
BRANCH  21  22
HETATM   22  C   UNL     1      26.065  46.119  51.601  1.00  0.00    -0.030 A 
HETATM   23  C   UNL     1      26.091  47.109  52.602  1.00  0.00     0.012 A 
HETATM   24  C   UNL     1      26.713  46.868  53.824  1.00  0.00     0.040 A 
HETATM   25  C   UNL     1      27.309  45.638  54.050  1.00  0.00     0.099 A 
HETATM   26  C   UNL     1      27.299  44.632  53.082  1.00  0.00     0.102 A 
HETATM   27  C   UNL     1      26.651  44.866  51.866  1.00  0.00     0.048 A 
BRANCH  25  28
HETATM   28  O   UNL     1      27.916  45.434  55.259  1.00  0.00    -0.358 OA
HETATM   29  H   UNL     1      28.876  45.520  55.093  1.00  0.00     0.218 HD
ENDBRANCH  25  28
BRANCH  26  30
HETATM   30  O   UNL     1      27.938  43.477  53.443  1.00  0.00    -0.349 OA
BRANCH  30  31
HETATM   31  C   UNL     1      28.956  42.996  52.566  1.00  0.00     0.171 C 
HETATM   32  C   UNL     1      30.267  43.010  53.330  1.00  0.00     0.034 C 
ENDBRANCH  30  31
ENDBRANCH  26  30
ENDBRANCH  21  22
ENDBRANCH   1  21
BRANCH   5  33
HETATM   33  S   UNL     1      21.050  47.176  47.742  1.00  0.00    -0.104 SA
BRANCH  33  34
HETATM   34  C   UNL     1      20.790  48.792  48.460  1.00  0.00     0.093 A 
HETATM   35  N   UNL     1      19.971  48.873  49.535  1.00  0.00    -0.254 NA
HETATM   36  C   UNL     1      19.785  50.105  50.068  1.00  0.00     0.118 A 
HETATM   37  C   UNL     1      20.358  51.260  49.564  1.00  0.00     0.019 A 
HETATM   38  C   UNL     1      21.177  51.151  48.449  1.00  0.00     0.004 A 
HETATM   39  C   UNL     1      21.402  49.898  47.885  1.00  0.00     0.039 A 
ENDBRANCH  33  34
ENDBRANCH   5  33
TORSDOF 9
ENDMDL
MODEL 9
REMARK VINA RESULT:      -8.5      2.905      9.045
REMARK  9 active torsions:
REMARK  status: ('A' for Active; 'I' for Inactive)
REMARK    1  A    between atoms: C_2  and  O_3 
REMARK    2  A    between atoms: O_3  and  C_4 
REMARK    3  A    between atoms: C_5  and  O_6 
REMARK    4  A    between atoms: C_9  and  C_10 
REMARK    5  A    between atoms: C_10  and  N_11 
REMARK    6  A    between atoms: C_13  and  C_14 
REMARK       I    between atoms: C_14  and  N_15 
REMARK    7  A    between atoms: N_15  and  C_16 
REMARK    8  A    between atoms: C_28  and  S_29 
REMARK    9  A    between atoms: S_29  and  C_30 
ROOT
HETATM    1  N   UNL     1      25.311  45.585  50.603  1.00  0.00    -0.053 N 
HETATM    2  H   UNL     1      26.144  46.160  50.425  1.00  0.00     0.281 HD
HETATM    3  C   UNL     1      24.331  45.920  49.467  1.00  0.00     0.281 C 
HETATM    4  C   UNL     1      23.464  44.681  49.367  1.00  0.00     0.060 C 
HETATM    5  C   UNL     1      24.395  43.512  49.719  1.00  0.00     0.082 C 
HETATM    6  C   UNL     1      25.650  44.132  50.363  1.00  0.00     0.252 C 
ENDROOT
BRANCH   3   7
HETATM    7  C   UNL     1      23.661  47.298  49.581  1.00  0.00     0.253 C 
HETATM    8  N   UNL     1      22.359  47.374  49.127  1.00  0.00    -0.325 N 
HETATM    9  H   UNL     1      21.875  46.524  48.862  1.00  0.00     0.169 HD
HETATM   10  O   UNL     1      24.333  48.240  49.995  1.00  0.00    -0.271 OA
BRANCH   8  11
HETATM   11  C   UNL     1      21.599  48.559  48.951  1.00  0.00     0.037 A 
HETATM   12  C   UNL     1      20.321  48.752  49.489  1.00  0.00     0.062 A 
HETATM   13  C   UNL     1      19.645  49.981  49.317  1.00  0.00     0.077 A 
HETATM   14  C   UNL     1      20.264  50.995  48.588  1.00  0.00     0.035 A 
HETATM   15  N   UNL     1      18.398  50.293  49.826  1.00  0.00    -0.245 NA
HETATM   16  S   UNL     1      19.223  52.365  48.543  1.00  0.00    -0.073 SA
HETATM   17  C   UNL     1      21.538  50.824  48.027  1.00  0.00     0.023 A 
HETATM   18  C   UNL     1      18.072  51.525  49.500  1.00  0.00     0.072 A 
HETATM   19  C   UNL     1      16.798  52.183  49.900  1.00  0.00     0.079 C 
HETATM   20  C   UNL     1      22.192  49.599  48.227  1.00  0.00     0.031 A 
ENDBRANCH   8  11
ENDBRANCH   3   7
BRANCH   1  21
HETATM   21  C   UNL     1      24.948  45.925  52.040  1.00  0.00     0.274 C 
BRANCH  21  22
HETATM   22  C   UNL     1      26.076  46.010  53.035  1.00  0.00    -0.030 A 
HETATM   23  C   UNL     1      26.367  47.235  53.664  1.00  0.00     0.012 A 
HETATM   24  C   UNL     1      27.414  47.334  54.577  1.00  0.00     0.040 A 
HETATM   25  C   UNL     1      28.172  46.210  54.864  1.00  0.00     0.099 A 
HETATM   26  C   UNL     1      27.908  44.978  54.262  1.00  0.00     0.102 A 
HETATM   27  C   UNL     1      26.841  44.874  53.367  1.00  0.00     0.048 A 
BRANCH  25  28
HETATM   28  O   UNL     1      29.196  46.342  55.761  1.00  0.00    -0.358 OA
HETATM   29  H   UNL     1      29.820  45.617  55.561  1.00  0.00     0.218 HD
ENDBRANCH  25  28
BRANCH  26  30
HETATM   30  O   UNL     1      28.748  43.964  54.634  1.00  0.00    -0.349 OA
BRANCH  30  31
HETATM   31  C   UNL     1      28.834  42.838  53.761  1.00  0.00     0.171 C 
HETATM   32  C   UNL     1      30.251  42.784  53.219  1.00  0.00     0.034 C 
ENDBRANCH  30  31
ENDBRANCH  26  30
ENDBRANCH  21  22
ENDBRANCH   1  21
BRANCH   5  33
HETATM   33  S   UNL     1      24.818  42.576  48.203  1.00  0.00    -0.104 SA
BRANCH  33  34
HETATM   34  C   UNL     1      26.113  41.516  48.829  1.00  0.00     0.093 A 
HETATM   35  N   UNL     1      27.326  41.593  48.232  1.00  0.00    -0.254 NA
HETATM   36  C   UNL     1      28.298  40.784  48.719  1.00  0.00     0.118 A 
HETATM   37  C   UNL     1      28.109  39.887  49.756  1.00  0.00     0.019 A 
HETATM   38  C   UNL     1      26.850  39.813  50.336  1.00  0.00     0.004 A 
HETATM   39  C   UNL     1      25.833  40.642  49.871  1.00  0.00     0.039 A 
ENDBRANCH  33  34
ENDBRANCH   5  33
TORSDOF 9
ENDMDL
MODEL 10
REMARK VINA RESULT:      -8.4     12.921     15.838
REMARK  9 active torsions:
REMARK  status: ('A' for Active; 'I' for Inactive)
REMARK    1  A    between atoms: C_2  and  O_3 
REMARK    2  A    between atoms: O_3  and  C_4 
REMARK    3  A    between atoms: C_5  and  O_6 
REMARK    4  A    between atoms: C_9  and  C_10 
REMARK    5  A    between atoms: C_10  and  N_11 
REMARK    6  A    between atoms: C_13  and  C_14 
REMARK       I    between atoms: C_14  and  N_15 
REMARK    7  A    between atoms: N_15  and  C_16 
REMARK    8  A    between atoms: C_28  and  S_29 
REMARK    9  A    between atoms: S_29  and  C_30 
ROOT
HETATM    1  N   UNL     1      35.009  51.822  41.148  1.00  0.00    -0.053 N 
HETATM    2  H   UNL     1      35.066  51.121  40.397  1.00  0.00     0.281 HD
HETATM    3  C   UNL     1      34.608  51.039  42.408  1.00  0.00     0.281 C 
HETATM    4  C   UNL     1      35.142  51.892  43.542  1.00  0.00     0.060 C 
HETATM    5  C   UNL     1      36.428  52.526  42.993  1.00  0.00     0.082 C 
HETATM    6  C   UNL     1      36.399  52.322  41.467  1.00  0.00     0.252 C 
ENDROOT
BRANCH   3   7
HETATM    7  C   UNL     1      33.142  50.580  42.441  1.00  0.00     0.253 C 
HETATM    8  N   UNL     1      32.825  49.515  41.619  1.00  0.00    -0.325 N 
HETATM    9  H   UNL     1      33.569  49.020  41.140  1.00  0.00     0.169 HD
HETATM   10  O   UNL     1      32.347  51.218  43.127  1.00  0.00    -0.271 OA
BRANCH   8  11
HETATM   11  C   UNL     1      31.522  49.035  41.332  1.00  0.00     0.037 A 
HETATM   12  C   UNL     1      31.143  48.504  40.093  1.00  0.00     0.062 A 
HETATM   13  C   UNL     1      29.840  47.994  39.896  1.00  0.00     0.077 A 
HETATM   14  C   UNL     1      28.930  48.045  40.950  1.00  0.00     0.035 A 
HETATM   15  N   UNL     1      29.366  47.422  38.730  1.00  0.00    -0.245 NA
HETATM   16  S   UNL     1      27.437  47.361  40.432  1.00  0.00    -0.073 SA
HETATM   17  C   UNL     1      29.277  48.585  42.196  1.00  0.00     0.023 A 
HETATM   18  C   UNL     1      28.120  47.034  38.891  1.00  0.00     0.072 A 
HETATM   19  C   UNL     1      27.312  46.366  37.834  1.00  0.00     0.079 C 
HETATM   20  C   UNL     1      30.584  49.068  42.368  1.00  0.00     0.031 A 
ENDBRANCH   8  11
ENDBRANCH   3   7
BRANCH   1  21
HETATM   21  C   UNL     1      34.070  52.873  40.578  1.00  0.00     0.274 C 
BRANCH  21  22
HETATM   22  C   UNL     1      32.893  52.386  39.774  1.00  0.00    -0.030 A 
HETATM   23  C   UNL     1      33.103  51.578  38.640  1.00  0.00     0.012 A 
HETATM   24  C   UNL     1      32.027  51.130  37.878  1.00  0.00     0.040 A 
HETATM   25  C   UNL     1      30.740  51.486  38.247  1.00  0.00     0.099 A 
HETATM   26  C   UNL     1      30.495  52.283  39.368  1.00  0.00     0.102 A 
HETATM   27  C   UNL     1      31.573  52.709  40.146  1.00  0.00     0.048 A 
BRANCH  25  28
HETATM   28  O   UNL     1      29.706  51.034  37.475  1.00  0.00    -0.358 OA
HETATM   29  H   UNL     1      30.000  50.175  37.112  1.00  0.00     0.218 HD
ENDBRANCH  25  28
BRANCH  26  30
HETATM   30  O   UNL     1      29.175  52.561  39.598  1.00  0.00    -0.349 OA
BRANCH  30  31
HETATM   31  C   UNL     1      28.760  52.655  40.960  1.00  0.00     0.171 C 
HETATM   32  C   UNL     1      27.588  51.709  41.150  1.00  0.00     0.034 C 
ENDBRANCH  30  31
ENDBRANCH  26  30
ENDBRANCH  21  22
ENDBRANCH   1  21
BRANCH   5  33
HETATM   33  S   UNL     1      37.889  51.718  43.746  1.00  0.00    -0.104 SA
BRANCH  33  34
HETATM   34  C   UNL     1      38.158  52.785  45.154  1.00  0.00     0.093 A 
HETATM   35  N   UNL     1      38.824  52.267  46.213  1.00  0.00    -0.254 NA
HETATM   36  C   UNL     1      39.021  53.089  47.271  1.00  0.00     0.118 A 
HETATM   37  C   UNL     1      38.563  54.393  47.333  1.00  0.00     0.019 A 
HETATM   38  C   UNL     1      37.865  54.894  46.241  1.00  0.00     0.004 A 
HETATM   39  C   UNL     1      37.659  54.081  45.130  1.00  0.00     0.039 A 
ENDBRANCH  33  34
ENDBRANCH   5  33
TORSDOF 9
ENDMDL
