MODEL 1
REMARK VINA RESULT:      -9.9      0.000      0.000
REMARK  6 active torsions:
REMARK  status: ('A' for Active; 'I' for Inactive)
REMARK    1  A    between atoms: O_2  and  C_3 
REMARK    2  A    between atoms: C_3  and  C_4 
REMARK       I    between atoms: C_4  and  N_6 
REMARK    3  A    between atoms: N_6  and  C_7 
REMARK    4  A    between atoms: C_12  and  C_13 
REMARK    5  A    between atoms: C_15  and  N_16 
REMARK    6  A    between atoms: N_16  and  C_17 
ROOT
HETATM    1  C   UNL     1      27.457  43.850  52.705  1.00  0.00     0.164 A 
HETATM    2  N   UNL     1      26.685  44.923  52.464  1.00  0.00    -0.210 NA
HETATM    3  C   UNL     1      25.692  44.795  51.563  1.00  0.00     0.143 A 
HETATM    4  C   UNL     1      25.476  43.599  50.856  1.00  0.00     0.039 A 
HETATM    5  C   UNL     1      24.451  43.382  49.898  1.00  0.00     0.018 A 
HETATM    6  C   UNL     1      24.337  42.162  49.236  1.00  0.00     0.001 A 
HETATM    7  C   UNL     1      25.235  41.145  49.525  1.00  0.00     0.002 A 
HETATM    8  C   UNL     1      26.231  41.352  50.483  1.00  0.00     0.032 A 
HETATM    9  C   UNL     1      26.363  42.559  51.157  1.00  0.00     0.073 A 
HETATM   10  N   UNL     1      27.330  42.674  52.071  1.00  0.00    -0.228 NA
ENDROOT
BRANCH   1  11
HETATM   11  C   UNL     1      28.504  43.970  53.745  1.00  0.00     0.039 A 
HETATM   12  C   UNL     1      28.487  44.955  54.774  1.00  0.00     0.049 A 
HETATM   13  C   UNL     1      29.534  44.993  55.709  1.00  0.00     0.030 A 
HETATM   14  C   UNL     1      30.589  44.080  55.654  1.00  0.00     0.002 A 
HETATM   15  C   UNL     1      30.620  43.116  54.660  1.00  0.00     0.001 A 
HETATM   16  C   UNL     1      29.592  43.066  53.719  1.00  0.00     0.018 A 
BRANCH  12  17
HETATM   17  N   UNL     1      27.410  45.880  54.835  1.00  0.00    -0.324 N 
HETATM   18  C   UNL     1      27.442  47.256  54.675  1.00  0.00     0.245 C 
HETATM   19  O   UNL     1      28.438  47.928  54.421  1.00  0.00    -0.271 OA
HETATM   20  H   UNL     1      26.503  45.453  55.024  1.00  0.00     0.169 HD
BRANCH  18  21
HETATM   21  C   UNL     1      26.051  47.914  54.788  1.00  0.00     0.270 C 
BRANCH  21  22
HETATM   22  O   UNL     1      25.856  48.824  55.861  1.00  0.00    -0.387 OA
HETATM   23  C   UNL     1      26.408  48.368  57.088  1.00  0.00     0.202 C 
ENDBRANCH  21  22
ENDBRANCH  18  21
ENDBRANCH  12  17
ENDBRANCH   1  11
BRANCH   3  24
HETATM   24  N   UNL     1      24.843  45.908  51.325  1.00  0.00    -0.340 N 
HETATM   25  H   UNL     1      23.875  45.604  51.317  1.00  0.00     0.167 HD
BRANCH  24  26
HETATM   26  C   UNL     1      25.065  46.994  50.444  1.00  0.00     0.034 A 
HETATM   27  C   UNL     1      26.336  47.560  50.262  1.00  0.00     0.032 A 
HETATM   28  C   UNL     1      26.561  48.627  49.383  1.00  0.00     0.034 A 
HETATM   29  C   UNL     1      25.449  49.138  48.714  1.00  0.00     0.062 A 
HETATM   30  N   UNL     1      25.322  50.137  47.784  1.00  0.00    -0.278 N 
HETATM   31  C   UNL     1      24.163  48.652  48.907  1.00  0.00     0.013 A 
HETATM   32  H   UNL     1      26.062  50.699  47.378  1.00  0.00     0.189 HD
HETATM   33  N   UNL     1      24.054  50.373  47.402  1.00  0.00    -0.186 NA
HETATM   34  C   UNL     1      23.353  49.458  48.076  1.00  0.00     0.152 A 
HETATM   35  C   UNL     1      23.962  47.576  49.792  1.00  0.00     0.044 A 
ENDBRANCH  24  26
ENDBRANCH   3  24
TORSDOF 6
ENDMDL
MODEL 2
REMARK VINA RESULT:      -9.8      2.702      5.299
REMARK  6 active torsions:
REMARK  status: ('A' for Active; 'I' for Inactive)
REMARK    1  A    between atoms: O_2  and  C_3 
REMARK    2  A    between atoms: C_3  and  C_4 
REMARK       I    between atoms: C_4  and  N_6 
REMARK    3  A    between atoms: N_6  and  C_7 
REMARK    4  A    between atoms: C_12  and  C_13 
REMARK    5  A    between atoms: C_15  and  N_16 
REMARK    6  A    between atoms: N_16  and  C_17 
ROOT
HETATM    1  C   UNL     1      26.998  43.283  52.099  1.00  0.00     0.164 A 
HETATM    2  N   UNL     1      26.101  44.181  51.660  1.00  0.00    -0.210 NA
HETATM    3  C   UNL     1      26.049  45.375  52.281  1.00  0.00     0.143 A 
HETATM    4  C   UNL     1      26.870  45.679  53.382  1.00  0.00     0.039 A 
HETATM    5  C   UNL     1      26.881  46.913  54.085  1.00  0.00     0.018 A 
HETATM    6  C   UNL     1      27.721  47.104  55.180  1.00  0.00     0.001 A 
HETATM    7  C   UNL     1      28.562  46.076  55.580  1.00  0.00     0.002 A 
HETATM    8  C   UNL     1      28.565  44.870  54.875  1.00  0.00     0.032 A 
HETATM    9  C   UNL     1      27.739  44.656  53.779  1.00  0.00     0.073 A 
HETATM   10  N   UNL     1      27.812  43.482  53.147  1.00  0.00    -0.228 NA
ENDROOT
BRANCH   1  11
HETATM   11  C   UNL     1      27.102  41.997  51.372  1.00  0.00     0.039 A 
HETATM   12  C   UNL     1      26.019  41.396  50.669  1.00  0.00     0.049 A 
HETATM   13  C   UNL     1      26.217  40.167  50.018  1.00  0.00     0.030 A 
HETATM   14  C   UNL     1      27.456  39.525  50.042  1.00  0.00     0.002 A 
HETATM   15  C   UNL     1      28.519  40.096  50.722  1.00  0.00     0.001 A 
HETATM   16  C   UNL     1      28.341  41.313  51.379  1.00  0.00     0.018 A 
BRANCH  12  17
HETATM   17  N   UNL     1      24.759  42.053  50.638  1.00  0.00    -0.324 N 
HETATM   18  C   UNL     1      24.038  42.487  49.537  1.00  0.00     0.245 C 
HETATM   19  O   UNL     1      24.367  42.351  48.362  1.00  0.00    -0.271 OA
HETATM   20  H   UNL     1      24.351  42.218  51.558  1.00  0.00     0.169 HD
BRANCH  18  21
HETATM   21  C   UNL     1      22.690  43.139  49.912  1.00  0.00     0.270 C 
BRANCH  21  22
HETATM   22  O   UNL     1      21.908  43.657  48.845  1.00  0.00    -0.387 OA
HETATM   23  C   UNL     1      22.024  45.065  48.698  1.00  0.00     0.202 C 
ENDBRANCH  21  22
ENDBRANCH  18  21
ENDBRANCH  12  17
ENDBRANCH   1  11
BRANCH   3  24
HETATM   24  N   UNL     1      25.133  46.351  51.805  1.00  0.00    -0.340 N 
HETATM   25  H   UNL     1      24.198  45.959  51.785  1.00  0.00     0.167 HD
BRANCH  24  26
HETATM   26  C   UNL     1      25.335  47.298  50.773  1.00  0.00     0.034 A 
HETATM   27  C   UNL     1      26.610  47.774  50.435  1.00  0.00     0.032 A 
HETATM   28  C   UNL     1      26.815  48.704  49.407  1.00  0.00     0.034 A 
HETATM   29  C   UNL     1      25.680  49.173  48.747  1.00  0.00     0.062 A 
HETATM   30  N   UNL     1      25.527  50.044  47.700  1.00  0.00    -0.278 N 
HETATM   31  C   UNL     1      24.393  48.777  49.085  1.00  0.00     0.013 A 
HETATM   32  H   UNL     1      26.258  50.511  47.175  1.00  0.00     0.189 HD
HETATM   33  N   UNL     1      24.245  50.286  47.370  1.00  0.00    -0.186 NA
HETATM   34  C   UNL     1      23.558  49.502  48.205  1.00  0.00     0.152 A 
HETATM   35  C   UNL     1      24.212  47.839  50.119  1.00  0.00     0.044 A 
ENDBRANCH  24  26
ENDBRANCH   3  24
TORSDOF 6
ENDMDL
MODEL 3
REMARK VINA RESULT:      -9.6      2.970      7.401
REMARK  6 active torsions:
REMARK  status: ('A' for Active; 'I' for Inactive)
REMARK    1  A    between atoms: O_2  and  C_3 
REMARK    2  A    between atoms: C_3  and  C_4 
REMARK       I    between atoms: C_4  and  N_6 
REMARK    3  A    between atoms: N_6  and  C_7 
REMARK    4  A    between atoms: C_12  and  C_13 
REMARK    5  A    between atoms: C_15  and  N_16 
REMARK    6  A    between atoms: N_16  and  C_17 
ROOT
HETATM    1  C   UNL     1      25.675  46.104  50.147  1.00  0.00     0.164 A 
HETATM    2  N   UNL     1      25.743  46.012  51.485  1.00  0.00    -0.210 NA
HETATM    3  C   UNL     1      26.014  44.806  52.020  1.00  0.00     0.143 A 
HETATM    4  C   UNL     1      26.184  43.658  51.225  1.00  0.00     0.039 A 
HETATM    5  C   UNL     1      26.477  42.356  51.710  1.00  0.00     0.018 A 
HETATM    6  C   UNL     1      26.604  41.280  50.836  1.00  0.00     0.001 A 
HETATM    7  C   UNL     1      26.450  41.487  49.474  1.00  0.00     0.002 A 
HETATM    8  C   UNL     1      26.182  42.773  48.995  1.00  0.00     0.032 A 
HETATM    9  C   UNL     1      26.053  43.863  49.847  1.00  0.00     0.073 A 
HETATM   10  N   UNL     1      25.813  45.062  49.312  1.00  0.00    -0.228 NA
ENDROOT
BRANCH   1  11
HETATM   11  C   UNL     1      25.447  47.443  49.556  1.00  0.00     0.039 A 
HETATM   12  C   UNL     1      24.173  47.908  49.122  1.00  0.00     0.049 A 
HETATM   13  C   UNL     1      24.062  49.193  48.565  1.00  0.00     0.030 A 
HETATM   14  C   UNL     1      25.175  50.025  48.433  1.00  0.00     0.002 A 
HETATM   15  C   UNL     1      26.421  49.587  48.850  1.00  0.00     0.001 A 
HETATM   16  C   UNL     1      26.552  48.313  49.401  1.00  0.00     0.018 A 
BRANCH  12  17
HETATM   17  N   UNL     1      23.038  47.064  49.263  1.00  0.00    -0.324 N 
HETATM   18  C   UNL     1      22.246  46.508  48.271  1.00  0.00     0.245 C 
HETATM   19  O   UNL     1      22.413  46.636  47.061  1.00  0.00    -0.271 OA
HETATM   20  H   UNL     1      22.790  46.855  50.230  1.00  0.00     0.169 HD
BRANCH  18  21
HETATM   21  C   UNL     1      21.112  45.621  48.825  1.00  0.00     0.270 C 
BRANCH  21  22
HETATM   22  O   UNL     1      21.277  44.215  48.703  1.00  0.00    -0.387 OA
HETATM   23  C   UNL     1      22.384  43.716  49.441  1.00  0.00     0.202 C 
ENDBRANCH  21  22
ENDBRANCH  18  21
ENDBRANCH  12  17
ENDBRANCH   1  11
BRANCH   3  24
HETATM   24  N   UNL     1      26.127  44.698  53.432  1.00  0.00    -0.340 N 
HETATM   25  H   UNL     1      25.274  45.030  53.869  1.00  0.00     0.167 HD
BRANCH  24  26
HETATM   26  C   UNL     1      27.267  44.951  54.232  1.00  0.00     0.034 A 
HETATM   27  C   UNL     1      27.452  46.168  54.905  1.00  0.00     0.032 A 
HETATM   28  C   UNL     1      28.574  46.418  55.707  1.00  0.00     0.034 A 
HETATM   29  C   UNL     1      29.533  45.409  55.780  1.00  0.00     0.062 A 
HETATM   30  N   UNL     1      30.708  45.315  56.478  1.00  0.00    -0.278 N 
HETATM   31  C   UNL     1      29.425  44.212  55.084  1.00  0.00     0.013 A 
HETATM   32  H   UNL     1      31.099  45.995  57.121  1.00  0.00     0.189 HD
HETATM   33  N   UNL     1      31.395  44.180  56.248  1.00  0.00    -0.186 NA
HETATM   34  C   UNL     1      30.603  43.506  55.411  1.00  0.00     0.152 A 
HETATM   35  C   UNL     1      28.286  43.982  54.288  1.00  0.00     0.044 A 
ENDBRANCH  24  26
ENDBRANCH   3  24
TORSDOF 6
ENDMDL
MODEL 4
REMARK VINA RESULT:      -9.4      3.451      8.834
REMARK  6 active torsions:
REMARK  status: ('A' for Active; 'I' for Inactive)
REMARK    1  A    between atoms: O_2  and  C_3 
REMARK    2  A    between atoms: C_3  and  C_4 
REMARK       I    between atoms: C_4  and  N_6 
REMARK    3  A    between atoms: N_6  and  C_7 
REMARK    4  A    between atoms: C_12  and  C_13 
REMARK    5  A    between atoms: C_15  and  N_16 
REMARK    6  A    between atoms: N_16  and  C_17 
ROOT
HETATM    1  C   UNL     1      22.899  49.213  49.046  1.00  0.00     0.164 A 
HETATM    2  N   UNL     1      23.037  48.018  49.645  1.00  0.00    -0.210 NA
HETATM    3  C   UNL     1      24.286  47.565  49.867  1.00  0.00     0.143 A 
HETATM    4  C   UNL     1      25.424  48.284  49.458  1.00  0.00     0.039 A 
HETATM    5  C   UNL     1      26.769  47.880  49.661  1.00  0.00     0.018 A 
HETATM    6  C   UNL     1      27.827  48.658  49.196  1.00  0.00     0.001 A 
HETATM    7  C   UNL     1      27.558  49.846  48.533  1.00  0.00     0.002 A 
HETATM    8  C   UNL     1      26.233  50.254  48.353  1.00  0.00     0.032 A 
HETATM    9  C   UNL     1      25.162  49.496  48.810  1.00  0.00     0.073 A 
HETATM   10  N   UNL     1      23.926  49.961  48.614  1.00  0.00    -0.228 NA
ENDROOT
BRANCH   1  11
HETATM   11  C   UNL     1      21.528  49.742  48.865  1.00  0.00     0.039 A 
HETATM   12  C   UNL     1      20.361  48.925  48.848  1.00  0.00     0.049 A 
HETATM   13  C   UNL     1      19.104  49.523  48.659  1.00  0.00     0.030 A 
HETATM   14  C   UNL     1      18.975  50.903  48.492  1.00  0.00     0.002 A 
HETATM   15  C   UNL     1      20.100  51.711  48.505  1.00  0.00     0.001 A 
HETATM   16  C   UNL     1      21.357  51.136  48.686  1.00  0.00     0.018 A 
BRANCH  12  17
HETATM   17  N   UNL     1      20.491  47.521  49.025  1.00  0.00    -0.324 N 
HETATM   18  C   UNL     1      20.379  46.516  48.079  1.00  0.00     0.245 C 
HETATM   19  O   UNL     1      20.163  46.678  46.880  1.00  0.00    -0.271 OA
HETATM   20  H   UNL     1      20.693  47.238  49.985  1.00  0.00     0.169 HD
BRANCH  18  21
HETATM   21  C   UNL     1      20.612  45.105  48.658  1.00  0.00     0.270 C 
BRANCH  21  22
HETATM   22  O   UNL     1      21.925  44.806  49.112  1.00  0.00    -0.387 OA
HETATM   23  C   UNL     1      22.488  43.666  48.479  1.00  0.00     0.202 C 
ENDBRANCH  21  22
ENDBRANCH  18  21
ENDBRANCH  12  17
ENDBRANCH   1  11
BRANCH   3  24
HETATM   24  N   UNL     1      24.450  46.322  50.533  1.00  0.00    -0.340 N 
HETATM   25  H   UNL     1      23.565  45.825  50.551  1.00  0.00     0.167 HD
BRANCH  24  26
HETATM   26  C   UNL     1      25.235  46.049  51.679  1.00  0.00     0.034 A 
HETATM   27  C   UNL     1      25.315  46.941  52.759  1.00  0.00     0.032 A 
HETATM   28  C   UNL     1      26.082  46.670  53.899  1.00  0.00     0.034 A 
HETATM   29  C   UNL     1      26.804  45.477  53.904  1.00  0.00     0.062 A 
HETATM   30  N   UNL     1      27.613  44.903  54.849  1.00  0.00    -0.278 N 
HETATM   31  C   UNL     1      26.804  44.591  52.835  1.00  0.00     0.013 A 
HETATM   32  H   UNL     1      27.824  45.255  55.776  1.00  0.00     0.189 HD
HETATM   33  N   UNL     1      28.180  43.746  54.457  1.00  0.00    -0.186 NA
HETATM   34  C   UNL     1      27.673  43.553  53.237  1.00  0.00     0.152 A 
HETATM   35  C   UNL     1      26.023  44.883  51.701  1.00  0.00     0.044 A 
ENDBRANCH  24  26
ENDBRANCH   3  24
TORSDOF 6
ENDMDL
MODEL 5
REMARK VINA RESULT:      -9.3      2.746      6.078
REMARK  6 active torsions:
REMARK  status: ('A' for Active; 'I' for Inactive)
REMARK    1  A    between atoms: O_2  and  C_3 
REMARK    2  A    between atoms: C_3  and  C_4 
REMARK       I    between atoms: C_4  and  N_6 
REMARK    3  A    between atoms: N_6  and  C_7 
REMARK    4  A    between atoms: C_12  and  C_13 
REMARK    5  A    between atoms: C_15  and  N_16 
REMARK    6  A    between atoms: N_16  and  C_17 
ROOT
HETATM    1  C   UNL     1      28.072  43.543  53.000  1.00  0.00     0.164 A 
HETATM    2  N   UNL     1      27.784  42.251  52.775  1.00  0.00    -0.210 NA
HETATM    3  C   UNL     1      27.003  41.954  51.719  1.00  0.00     0.143 A 
HETATM    4  C   UNL     1      26.462  42.951  50.887  1.00  0.00     0.039 A 
HETATM    5  C   UNL     1      25.638  42.720  49.754  1.00  0.00     0.018 A 
HETATM    6  C   UNL     1      25.135  43.783  49.008  1.00  0.00     0.001 A 
HETATM    7  C   UNL     1      25.452  45.083  49.376  1.00  0.00     0.002 A 
HETATM    8  C   UNL     1      26.280  45.308  50.479  1.00  0.00     0.032 A 
HETATM    9  C   UNL     1      26.795  44.264  51.237  1.00  0.00     0.073 A 
HETATM   10  N   UNL     1      27.593  44.560  52.266  1.00  0.00    -0.228 NA
ENDROOT
BRANCH   1  11
HETATM   11  C   UNL     1      28.987  43.864  54.119  1.00  0.00     0.039 A 
HETATM   12  C   UNL     1      28.762  44.922  55.046  1.00  0.00     0.049 A 
HETATM   13  C   UNL     1      29.696  45.152  56.069  1.00  0.00     0.030 A 
HETATM   14  C   UNL     1      30.839  44.361  56.199  1.00  0.00     0.002 A 
HETATM   15  C   UNL     1      31.073  43.329  55.305  1.00  0.00     0.001 A 
HETATM   16  C   UNL     1      30.160  43.088  54.279  1.00  0.00     0.018 A 
BRANCH  12  17
HETATM   17  N   UNL     1      27.594  45.722  54.919  1.00  0.00    -0.324 N 
HETATM   18  C   UNL     1      27.500  47.069  54.608  1.00  0.00     0.245 C 
HETATM   19  O   UNL     1      28.441  47.818  54.358  1.00  0.00    -0.271 OA
HETATM   20  H   UNL     1      26.722  45.219  55.084  1.00  0.00     0.169 HD
BRANCH  18  21
HETATM   21  C   UNL     1      26.044  47.576  54.538  1.00  0.00     0.270 C 
BRANCH  21  22
HETATM   22  O   UNL     1      25.729  48.731  55.304  1.00  0.00    -0.387 OA
HETATM   23  C   UNL     1      26.194  48.657  56.644  1.00  0.00     0.202 C 
ENDBRANCH  21  22
ENDBRANCH  18  21
ENDBRANCH  12  17
ENDBRANCH   1  11
BRANCH   3  24
HETATM   24  N   UNL     1      26.720  40.589  51.445  1.00  0.00    -0.340 N 
HETATM   25  H   UNL     1      26.529  40.099  52.312  1.00  0.00     0.167 HD
BRANCH  24  26
HETATM   26  C   UNL     1      27.338  39.751  50.486  1.00  0.00     0.034 A 
HETATM   27  C   UNL     1      28.724  39.533  50.469  1.00  0.00     0.032 A 
HETATM   28  C   UNL     1      29.338  38.695  49.528  1.00  0.00     0.034 A 
HETATM   29  C   UNL     1      28.511  38.107  48.572  1.00  0.00     0.062 A 
HETATM   30  N   UNL     1      28.774  37.233  47.551  1.00  0.00    -0.278 N 
HETATM   31  C   UNL     1      27.143  38.340  48.512  1.00  0.00     0.013 A 
HETATM   32  H   UNL     1      29.666  36.817  47.309  1.00  0.00     0.189 HD
HETATM   33  N   UNL     1      27.699  36.925  46.801  1.00  0.00    -0.186 NA
HETATM   34  C   UNL     1      26.706  37.589  47.398  1.00  0.00     0.152 A 
HETATM   35  C   UNL     1      26.548  39.183  49.470  1.00  0.00     0.044 A 
ENDBRANCH  24  26
ENDBRANCH   3  24
TORSDOF 6
ENDMDL
MODEL 6
REMARK VINA RESULT:      -9.3      2.563      4.362
REMARK  6 active torsions:
REMARK  status: ('A' for Active; 'I' for Inactive)
REMARK    1  A    between atoms: O_2  and  C_3 
REMARK    2  A    between atoms: C_3  and  C_4 
REMARK       I    between atoms: C_4  and  N_6 
REMARK    3  A    between atoms: N_6  and  C_7 
REMARK    4  A    between atoms: C_12  and  C_13 
REMARK    5  A    between atoms: C_15  and  N_16 
REMARK    6  A    between atoms: N_16  and  C_17 
ROOT
HETATM    1  C   UNL     1      25.470  46.081  51.996  1.00  0.00     0.164 A 
HETATM    2  N   UNL     1      25.367  47.027  51.048  1.00  0.00    -0.210 NA
HETATM    3  C   UNL     1      24.630  46.746  49.957  1.00  0.00     0.143 A 
HETATM    4  C   UNL     1      24.012  45.496  49.774  1.00  0.00     0.039 A 
HETATM    5  C   UNL     1      23.216  45.125  48.659  1.00  0.00     0.018 A 
HETATM    6  C   UNL     1      22.667  43.849  48.565  1.00  0.00     0.001 A 
HETATM    7  C   UNL     1      22.896  42.933  49.581  1.00  0.00     0.002 A 
HETATM    8  C   UNL     1      23.662  43.305  50.689  1.00  0.00     0.032 A 
HETATM    9  C   UNL     1      24.219  44.573  50.806  1.00  0.00     0.073 A 
HETATM   10  N   UNL     1      24.925  44.858  51.902  1.00  0.00    -0.228 NA
ENDROOT
BRANCH   1  11
HETATM   11  C   UNL     1      26.222  46.414  53.227  1.00  0.00     0.039 A 
HETATM   12  C   UNL     1      27.319  45.648  53.716  1.00  0.00     0.049 A 
HETATM   13  C   UNL     1      27.962  46.042  54.901  1.00  0.00     0.030 A 
HETATM   14  C   UNL     1      27.550  47.174  55.607  1.00  0.00     0.002 A 
HETATM   15  C   UNL     1      26.485  47.930  55.146  1.00  0.00     0.001 A 
HETATM   16  C   UNL     1      25.831  47.551  53.974  1.00  0.00     0.018 A 
BRANCH  12  17
HETATM   17  N   UNL     1      27.743  44.500  52.993  1.00  0.00    -0.324 N 
HETATM   18  C   UNL     1      27.680  43.169  53.371  1.00  0.00     0.245 C 
HETATM   19  O   UNL     1      27.209  42.741  54.422  1.00  0.00    -0.271 OA
HETATM   20  H   UNL     1      28.145  44.707  52.079  1.00  0.00     0.169 HD
BRANCH  18  21
HETATM   21  C   UNL     1      28.222  42.204  52.296  1.00  0.00     0.270 C 
BRANCH  21  22
HETATM   22  O   UNL     1      27.491  41.006  52.080  1.00  0.00    -0.387 OA
HETATM   23  C   UNL     1      26.589  41.091  50.986  1.00  0.00     0.202 C 
ENDBRANCH  21  22
ENDBRANCH  18  21
ENDBRANCH  12  17
ENDBRANCH   1  11
BRANCH   3  24
HETATM   24  N   UNL     1      24.478  47.749  48.962  1.00  0.00    -0.340 N 
HETATM   25  H   UNL     1      25.392  48.052  48.641  1.00  0.00     0.167 HD
BRANCH  24  26
HETATM   26  C   UNL     1      23.528  48.798  48.926  1.00  0.00     0.034 A 
HETATM   27  C   UNL     1      23.896  50.132  48.697  1.00  0.00     0.032 A 
HETATM   28  C   UNL     1      22.957  51.170  48.650  1.00  0.00     0.034 A 
HETATM   29  C   UNL     1      21.625  50.826  48.879  1.00  0.00     0.062 A 
HETATM   30  N   UNL     1      20.476  51.573  48.877  1.00  0.00    -0.278 N 
HETATM   31  C   UNL     1      21.220  49.531  49.169  1.00  0.00     0.013 A 
HETATM   32  H   UNL     1      20.383  52.562  48.674  1.00  0.00     0.189 HD
HETATM   33  N   UNL     1      19.369  50.877  49.196  1.00  0.00    -0.186 NA
HETATM   34  C   UNL     1      19.823  49.632  49.358  1.00  0.00     0.152 A 
HETATM   35  C   UNL     1      22.181  48.503  49.208  1.00  0.00     0.044 A 
ENDBRANCH  24  26
ENDBRANCH   3  24
TORSDOF 6
ENDMDL
MODEL 7
REMARK VINA RESULT:      -9.3      2.647      4.401
REMARK  6 active torsions:
REMARK  status: ('A' for Active; 'I' for Inactive)
REMARK    1  A    between atoms: O_2  and  C_3 
REMARK    2  A    between atoms: C_3  and  C_4 
REMARK       I    between atoms: C_4  and  N_6 
REMARK    3  A    between atoms: N_6  and  C_7 
REMARK    4  A    between atoms: C_12  and  C_13 
REMARK    5  A    between atoms: C_15  and  N_16 
REMARK    6  A    between atoms: N_16  and  C_17 
ROOT
HETATM    1  C   UNL     1      26.955  43.852  52.229  1.00  0.00     0.164 A 
HETATM    2  N   UNL     1      26.176  44.934  52.071  1.00  0.00    -0.210 NA
HETATM    3  C   UNL     1      25.142  44.847  51.213  1.00  0.00     0.143 A 
HETATM    4  C   UNL     1      24.889  43.682  50.466  1.00  0.00     0.039 A 
HETATM    5  C   UNL     1      23.820  43.508  49.549  1.00  0.00     0.018 A 
HETATM    6  C   UNL     1      23.672  42.318  48.841  1.00  0.00     0.001 A 
HETATM    7  C   UNL     1      24.579  41.289  49.042  1.00  0.00     0.002 A 
HETATM    8  C   UNL     1      25.620  41.454  49.961  1.00  0.00     0.032 A 
HETATM    9  C   UNL     1      25.787  42.630  50.680  1.00  0.00     0.073 A 
HETATM   10  N   UNL     1      26.796  42.704  51.551  1.00  0.00    -0.228 NA
ENDROOT
BRANCH   1  11
HETATM   11  C   UNL     1      28.050  43.926  53.224  1.00  0.00     0.039 A 
HETATM   12  C   UNL     1      29.144  43.015  53.264  1.00  0.00     0.049 A 
HETATM   13  C   UNL     1      30.129  43.165  54.254  1.00  0.00     0.030 A 
HETATM   14  C   UNL     1      30.058  44.191  55.198  1.00  0.00     0.002 A 
HETATM   15  C   UNL     1      29.000  45.085  55.173  1.00  0.00     0.001 A 
HETATM   16  C   UNL     1      28.010  44.950  54.200  1.00  0.00     0.018 A 
BRANCH  12  17
HETATM   17  N   UNL     1      29.220  41.975  52.299  1.00  0.00    -0.324 N 
HETATM   18  C   UNL     1      28.933  40.628  52.456  1.00  0.00     0.245 C 
HETATM   19  O   UNL     1      28.528  40.094  53.486  1.00  0.00    -0.271 OA
HETATM   20  H   UNL     1      29.530  42.281  51.377  1.00  0.00     0.169 HD
BRANCH  18  21
HETATM   21  C   UNL     1      29.114  39.813  51.159  1.00  0.00     0.270 C 
BRANCH  21  22
HETATM   22  O   UNL     1      29.744  38.545  51.280  1.00  0.00    -0.387 OA
HETATM   23  C   UNL     1      29.664  37.766  50.094  1.00  0.00     0.202 C 
ENDBRANCH  21  22
ENDBRANCH  18  21
ENDBRANCH  12  17
ENDBRANCH   1  11
BRANCH   3  24
HETATM   24  N   UNL     1      24.285  45.970  51.063  1.00  0.00    -0.340 N 
HETATM   25  H   UNL     1      23.317  45.669  51.105  1.00  0.00     0.167 HD
BRANCH  24  26
HETATM   26  C   UNL     1      24.459  47.083  50.206  1.00  0.00     0.034 A 
HETATM   27  C   UNL     1      23.393  47.647  49.489  1.00  0.00     0.032 A 
HETATM   28  C   UNL     1      23.560  48.756  48.649  1.00  0.00     0.034 A 
HETATM   29  C   UNL     1      24.853  49.263  48.523  1.00  0.00     0.062 A 
HETATM   30  N   UNL     1      25.351  50.330  47.823  1.00  0.00    -0.278 N 
HETATM   31  C   UNL     1      25.949  48.702  49.165  1.00  0.00     0.013 A 
HETATM   32  H   UNL     1      24.832  50.994  47.258  1.00  0.00     0.189 HD
HETATM   33  N   UNL     1      26.686  50.473  47.916  1.00  0.00    -0.186 NA
HETATM   34  C   UNL     1      27.044  49.489  48.745  1.00  0.00     0.152 A 
HETATM   35  C   UNL     1      25.757  47.590  50.007  1.00  0.00     0.044 A 
ENDBRANCH  24  26
ENDBRANCH   3  24
TORSDOF 6
ENDMDL
MODEL 8
REMARK VINA RESULT:      -9.2      4.479      9.261
REMARK  6 active torsions:
REMARK  status: ('A' for Active; 'I' for Inactive)
REMARK    1  A    between atoms: O_2  and  C_3 
REMARK    2  A    between atoms: C_3  and  C_4 
REMARK       I    between atoms: C_4  and  N_6 
REMARK    3  A    between atoms: N_6  and  C_7 
REMARK    4  A    between atoms: C_12  and  C_13 
REMARK    5  A    between atoms: C_15  and  N_16 
REMARK    6  A    between atoms: N_16  and  C_17 
ROOT
HETATM    1  C   UNL     1      22.831  49.324  48.690  1.00  0.00     0.164 A 
HETATM    2  N   UNL     1      22.831  48.144  49.332  1.00  0.00    -0.210 NA
HETATM    3  C   UNL     1      24.018  47.630  49.706  1.00  0.00     0.143 A 
HETATM    4  C   UNL     1      25.235  48.269  49.409  1.00  0.00     0.039 A 
HETATM    5  C   UNL     1      26.523  47.798  49.773  1.00  0.00     0.018 A 
HETATM    6  C   UNL     1      27.670  48.499  49.410  1.00  0.00     0.001 A 
HETATM    7  C   UNL     1      27.548  49.678  48.690  1.00  0.00     0.002 A 
HETATM    8  C   UNL     1      26.278  50.153  48.350  1.00  0.00     0.032 A 
HETATM    9  C   UNL     1      25.119  49.472  48.703  1.00  0.00     0.073 A 
HETATM   10  N   UNL     1      23.942  49.999  48.356  1.00  0.00    -0.228 NA
ENDROOT
BRANCH   1  11
HETATM   11  C   UNL     1      21.523  49.923  48.341  1.00  0.00     0.039 A 
HETATM   12  C   UNL     1      20.565  49.292  47.497  1.00  0.00     0.049 A 
HETATM   13  C   UNL     1      19.354  49.948  47.218  1.00  0.00     0.030 A 
HETATM   14  C   UNL     1      19.069  51.204  47.755  1.00  0.00     0.002 A 
HETATM   15  C   UNL     1      19.991  51.832  48.577  1.00  0.00     0.001 A 
HETATM   16  C   UNL     1      21.201  51.199  48.862  1.00  0.00     0.018 A 
BRANCH  12  17
HETATM   17  N   UNL     1      20.851  48.009  46.956  1.00  0.00    -0.324 N 
HETATM   18  C   UNL     1      20.309  46.783  47.306  1.00  0.00     0.245 C 
HETATM   19  O   UNL     1      19.443  46.595  48.157  1.00  0.00    -0.271 OA
HETATM   20  H   UNL     1      21.552  48.016  46.214  1.00  0.00     0.169 HD
BRANCH  18  21
HETATM   21  C   UNL     1      20.861  45.612  46.465  1.00  0.00     0.270 C 
BRANCH  21  22
HETATM   22  O   UNL     1      22.017  45.872  45.682  1.00  0.00    -0.387 OA
HETATM   23  C   UNL     1      22.411  44.766  44.883  1.00  0.00     0.202 C 
ENDBRANCH  21  22
ENDBRANCH  18  21
ENDBRANCH  12  17
ENDBRANCH   1  11
BRANCH   3  24
HETATM   24  N   UNL     1      24.033  46.401  50.419  1.00  0.00    -0.340 N 
HETATM   25  H   UNL     1      24.513  46.527  51.304  1.00  0.00     0.167 HD
BRANCH  24  26
HETATM   26  C   UNL     1      24.212  45.098  49.897  1.00  0.00     0.034 A 
HETATM   27  C   UNL     1      23.664  44.705  48.667  1.00  0.00     0.032 A 
HETATM   28  C   UNL     1      23.849  43.419  48.142  1.00  0.00     0.034 A 
HETATM   29  C   UNL     1      24.580  42.520  48.918  1.00  0.00     0.062 A 
HETATM   30  N   UNL     1      24.963  41.224  48.696  1.00  0.00    -0.278 N 
HETATM   31  C   UNL     1      25.091  42.844  50.167  1.00  0.00     0.013 A 
HETATM   32  H   UNL     1      24.791  40.663  47.869  1.00  0.00     0.189 HD
HETATM   33  N   UNL     1      25.632  40.666  49.722  1.00  0.00    -0.186 NA
HETATM   34  C   UNL     1      25.720  41.659  50.609  1.00  0.00     0.152 A 
HETATM   35  C   UNL     1      24.895  44.144  50.673  1.00  0.00     0.044 A 
ENDBRANCH  24  26
ENDBRANCH   3  24
TORSDOF 6
ENDMDL
MODEL 9
REMARK VINA RESULT:      -9.2      2.969      5.874
REMARK  6 active torsions:
REMARK  status: ('A' for Active; 'I' for Inactive)
REMARK    1  A    between atoms: O_2  and  C_3 
REMARK    2  A    between atoms: C_3  and  C_4 
REMARK       I    between atoms: C_4  and  N_6 
REMARK    3  A    between atoms: N_6  and  C_7 
REMARK    4  A    between atoms: C_12  and  C_13 
REMARK    5  A    between atoms: C_15  and  N_16 
REMARK    6  A    between atoms: N_16  and  C_17 
ROOT
HETATM    1  C   UNL     1      27.038  42.629  50.524  1.00  0.00     0.164 A 
HETATM    2  N   UNL     1      26.321  43.752  50.691  1.00  0.00    -0.210 NA
HETATM    3  C   UNL     1      26.599  44.525  51.758  1.00  0.00     0.143 A 
HETATM    4  C   UNL     1      27.577  44.166  52.704  1.00  0.00     0.039 A 
HETATM    5  C   UNL     1      27.933  44.926  53.849  1.00  0.00     0.018 A 
HETATM    6  C   UNL     1      28.904  44.469  54.737  1.00  0.00     0.001 A 
HETATM    7  C   UNL     1      29.534  43.258  54.492  1.00  0.00     0.002 A 
HETATM    8  C   UNL     1      29.197  42.520  53.353  1.00  0.00     0.032 A 
HETATM    9  C   UNL     1      28.235  42.957  52.452  1.00  0.00     0.073 A 
HETATM   10  N   UNL     1      27.981  42.204  51.379  1.00  0.00    -0.228 NA
ENDROOT
BRANCH   1  11
HETATM   11  C   UNL     1      26.780  41.817  49.313  1.00  0.00     0.039 A 
HETATM   12  C   UNL     1      25.589  41.911  48.537  1.00  0.00     0.049 A 
HETATM   13  C   UNL     1      25.435  41.088  47.410  1.00  0.00     0.030 A 
HETATM   14  C   UNL     1      26.428  40.182  47.031  1.00  0.00     0.002 A 
HETATM   15  C   UNL     1      27.591  40.078  47.776  1.00  0.00     0.001 A 
HETATM   16  C   UNL     1      27.761  40.883  48.902  1.00  0.00     0.018 A 
BRANCH  12  17
HETATM   17  N   UNL     1      24.582  42.838  48.918  1.00  0.00    -0.324 N 
HETATM   18  C   UNL     1      23.217  42.630  49.038  1.00  0.00     0.245 C 
HETATM   19  O   UNL     1      22.632  41.565  48.852  1.00  0.00    -0.271 OA
HETATM   20  H   UNL     1      24.931  43.774  49.123  1.00  0.00     0.169 HD
BRANCH  18  21
HETATM   21  C   UNL     1      22.449  43.885  49.502  1.00  0.00     0.270 C 
BRANCH  21  22
HETATM   22  O   UNL     1      21.248  44.196  48.810  1.00  0.00    -0.387 OA
HETATM   23  C   UNL     1      21.101  45.583  48.541  1.00  0.00     0.202 C 
ENDBRANCH  21  22
ENDBRANCH  18  21
ENDBRANCH  12  17
ENDBRANCH   1  11
BRANCH   3  24
HETATM   24  N   UNL     1      25.876  45.736  51.929  1.00  0.00    -0.340 N 
HETATM   25  H   UNL     1      25.078  45.574  52.534  1.00  0.00     0.167 HD
BRANCH  24  26
HETATM   26  C   UNL     1      25.615  46.733  50.959  1.00  0.00     0.034 A 
HETATM   27  C   UNL     1      24.332  46.943  50.432  1.00  0.00     0.032 A 
HETATM   28  C   UNL     1      24.068  47.937  49.480  1.00  0.00     0.034 A 
HETATM   29  C   UNL     1      25.153  48.696  49.043  1.00  0.00     0.062 A 
HETATM   30  N   UNL     1      25.240  49.742  48.162  1.00  0.00    -0.278 N 
HETATM   31  C   UNL     1      26.450  48.485  49.490  1.00  0.00     0.013 A 
HETATM   32  H   UNL     1      24.481  50.190  47.661  1.00  0.00     0.189 HD
HETATM   33  N   UNL     1      26.494  50.188  47.962  1.00  0.00    -0.186 NA
HETATM   34  C   UNL     1      27.225  49.431  48.783  1.00  0.00     0.152 A 
HETATM   35  C   UNL     1      26.691  47.483  50.450  1.00  0.00     0.044 A 
ENDBRANCH  24  26
ENDBRANCH   3  24
TORSDOF 6
ENDMDL
MODEL 10
REMARK VINA RESULT:      -9.1      3.511      7.744
REMARK  6 active torsions:
REMARK  status: ('A' for Active; 'I' for Inactive)
REMARK    1  A    between atoms: O_2  and  C_3 
REMARK    2  A    between atoms: C_3  and  C_4 
REMARK       I    between atoms: C_4  and  N_6 
REMARK    3  A    between atoms: N_6  and  C_7 
REMARK    4  A    between atoms: C_12  and  C_13 
REMARK    5  A    between atoms: C_15  and  N_16 
REMARK    6  A    between atoms: N_16  and  C_17 
ROOT
HETATM    1  C   UNL     1      27.068  42.518  49.812  1.00  0.00     0.164 A 
HETATM    2  N   UNL     1      27.199  42.329  51.135  1.00  0.00    -0.210 NA
HETATM    3  C   UNL     1      26.939  43.369  51.950  1.00  0.00     0.143 A 
HETATM    4  C   UNL     1      26.580  44.635  51.452  1.00  0.00     0.039 A 
HETATM    5  C   UNL     1      26.284  45.777  52.241  1.00  0.00     0.018 A 
HETATM    6  C   UNL     1      25.959  46.993  51.646  1.00  0.00     0.001 A 
HETATM    7  C   UNL     1      25.916  47.083  50.263  1.00  0.00     0.002 A 
HETATM    8  C   UNL     1      26.187  45.953  49.486  1.00  0.00     0.032 A 
HETATM    9  C   UNL     1      26.512  44.729  50.057  1.00  0.00     0.073 A 
HETATM   10  N   UNL     1      26.741  43.692  49.248  1.00  0.00    -0.228 NA
ENDROOT
BRANCH   1  11
HETATM   11  C   UNL     1      27.286  41.356  48.921  1.00  0.00     0.039 A 
HETATM   12  C   UNL     1      26.493  41.082  47.770  1.00  0.00     0.049 A 
HETATM   13  C   UNL     1      26.775  39.946  46.994  1.00  0.00     0.030 A 
HETATM   14  C   UNL     1      27.820  39.081  47.325  1.00  0.00     0.002 A 
HETATM   15  C   UNL     1      28.600  39.333  48.442  1.00  0.00     0.001 A 
HETATM   16  C   UNL     1      28.333  40.454  49.228  1.00  0.00     0.018 A 
BRANCH  12  17
HETATM   17  N   UNL     1      25.434  41.965  47.428  1.00  0.00    -0.324 N 
HETATM   18  C   UNL     1      24.092  41.876  47.762  1.00  0.00     0.245 C 
HETATM   19  O   UNL     1      23.580  41.000  48.455  1.00  0.00    -0.271 OA
HETATM   20  H   UNL     1      25.721  42.762  46.860  1.00  0.00     0.169 HD
BRANCH  18  21
HETATM   21  C   UNL     1      23.251  43.051  47.221  1.00  0.00     0.270 C 
BRANCH  21  22
HETATM   22  O   UNL     1      23.405  44.305  47.870  1.00  0.00    -0.387 OA
HETATM   23  C   UNL     1      22.669  44.401  49.081  1.00  0.00     0.202 C 
ENDBRANCH  21  22
ENDBRANCH  18  21
ENDBRANCH  12  17
ENDBRANCH   1  11
BRANCH   3  24
HETATM   24  N   UNL     1      27.036  43.175  53.354  1.00  0.00    -0.340 N 
HETATM   25  H   UNL     1      26.131  43.333  53.783  1.00  0.00     0.167 HD
BRANCH  24  26
HETATM   26  C   UNL     1      28.102  43.546  54.208  1.00  0.00     0.034 A 
HETATM   27  C   UNL     1      29.295  42.812  54.276  1.00  0.00     0.032 A 
HETATM   28  C   UNL     1      30.356  43.183  55.112  1.00  0.00     0.034 A 
HETATM   29  C   UNL     1      30.163  44.307  55.915  1.00  0.00     0.062 A 
HETATM   30  N   UNL     1      30.986  44.946  56.805  1.00  0.00    -0.278 N 
HETATM   31  C   UNL     1      28.978  45.030  55.927  1.00  0.00     0.013 A 
HETATM   32  H   UNL     1      31.946  44.713  57.033  1.00  0.00     0.189 HD
HETATM   33  N   UNL     1      30.411  45.989  57.432  1.00  0.00    -0.186 NA
HETATM   34  C   UNL     1      29.195  46.046  56.884  1.00  0.00     0.152 A 
HETATM   35  C   UNL     1      27.926  44.641  55.075  1.00  0.00     0.044 A 
ENDBRANCH  24  26
ENDBRANCH   3  24
TORSDOF 6
ENDMDL
