MODEL 1
REMARK VINA RESULT:     -11.5      0.000      0.000
REMARK  6 active torsions:
REMARK  status: ('A' for Active; 'I' for Inactive)
REMARK    1  A    between atoms: C_7  and  C_8 
REMARK    2  A    between atoms: C_8  and  C_9 
REMARK    3  A    between atoms: C_9  and  N_10 
REMARK    4  A    between atoms: C_12  and  C_13 
REMARK    5  A    between atoms: C_13  and  N_14 
REMARK    6  A    between atoms: C_36  and  O_37 
ROOT
HETATM    1  N   UNL     1      26.499  44.653  49.619  1.00  0.00    -0.054 N 
HETATM    2  H   UNL     1      26.933  44.485  48.695  1.00  0.00     0.281 HD
HETATM    3  C   UNL     1      27.104  43.517  50.456  1.00  0.00     0.240 C 
HETATM    4  C   UNL     1      26.769  42.190  49.786  1.00  0.00    -0.020 A 
HETATM    5  C   UNL     1      25.613  42.050  48.988  1.00  0.00    -0.048 A 
HETATM    6  C   UNL     1      24.720  43.222  48.656  1.00  0.00     0.067 C 
HETATM    7  C   UNL     1      25.014  44.494  49.448  1.00  0.00     0.241 C 
HETATM    8  C   UNL     1      27.601  41.077  49.992  1.00  0.00     0.010 A 
HETATM    9  C   UNL     1      27.289  39.845  49.419  1.00  0.00     0.001 A 
HETATM   10  C   UNL     1      26.149  39.708  48.634  1.00  0.00     0.001 A 
HETATM   11  C   UNL     1      25.316  40.804  48.416  1.00  0.00     0.008 A 
ENDROOT
BRANCH   1  12
HETATM   12  C   UNL     1      26.939  46.083  49.920  1.00  0.00     0.319 C 
BRANCH  12  13
HETATM   13  C   UNL     1      25.794  46.988  50.351  1.00  0.00     0.188 C 
HETATM   14  O   UNL     1      25.228  46.725  51.417  1.00  0.00    -0.290 OA
BRANCH  13  15
HETATM   15  C   UNL     1      25.446  48.151  49.530  1.00  0.00     0.046 A 
HETATM   16  C   UNL     1      26.385  49.029  48.996  1.00  0.00     0.020 A 
HETATM   17  C   UNL     1      27.869  49.073  49.118  1.00  0.00     0.069 C 
HETATM   18  N   UNL     1      25.719  49.961  48.244  1.00  0.00    -0.358 N 
HETATM   19  H   UNL     1      26.157  50.712  47.724  1.00  0.00     0.166 HD
HETATM   20  C   UNL     1      24.367  49.735  48.286  1.00  0.00     0.043 A 
HETATM   21  C   UNL     1      24.152  48.620  49.095  1.00  0.00     0.009 A 
HETATM   22  C   UNL     1      23.333  50.438  47.656  1.00  0.00     0.033 A 
HETATM   23  C   UNL     1      22.809  48.213  49.281  1.00  0.00     0.051 A 
HETATM   24  C   UNL     1      21.752  48.911  48.674  1.00  0.00     0.069 A 
HETATM   25  C   UNL     1      22.019  50.007  47.863  1.00  0.00     0.039 A 
BRANCH  24  26
HETATM   26  O   UNL     1      20.514  48.404  48.966  1.00  0.00    -0.356 OA
HETATM   27  C   UNL     1      19.632  49.243  49.704  1.00  0.00     0.210 C 
ENDBRANCH  24  26
ENDBRANCH  13  15
ENDBRANCH  12  13
ENDBRANCH   1  12
BRANCH   3  28
HETATM   28  C   UNL     1      26.622  43.453  51.938  1.00  0.00     0.173 C 
BRANCH  28  29
HETATM   29  N   UNL     1      27.625  43.745  52.945  1.00  0.00    -0.278 N 
HETATM   30  C   UNL     1      28.642  42.902  53.293  1.00  0.00     0.261 A 
HETATM   31  O   UNL     1      28.795  41.748  52.940  1.00  0.00    -0.267 OA
HETATM   32  C   UNL     1      29.421  43.591  54.322  1.00  0.00     0.048 A 
HETATM   33  C   UNL     1      28.789  44.798  54.583  1.00  0.00     0.048 A 
HETATM   34  C   UNL     1      30.534  43.182  55.026  1.00  0.00     0.018 A 
HETATM   35  C   UNL     1      27.615  44.875  53.715  1.00  0.00     0.261 A 
HETATM   36  C   UNL     1      29.240  45.666  55.556  1.00  0.00     0.018 A 
HETATM   37  O   UNL     1      26.754  45.732  53.748  1.00  0.00    -0.267 OA
HETATM   38  C   UNL     1      30.374  45.278  56.275  1.00  0.00     0.001 A 
HETATM   39  C   UNL     1      31.015  44.048  56.013  1.00  0.00     0.001 A 
ENDBRANCH  28  29
ENDBRANCH   3  28
TORSDOF 6
ENDMDL
MODEL 2
REMARK VINA RESULT:     -11.0      1.895      8.125
REMARK  6 active torsions:
REMARK  status: ('A' for Active; 'I' for Inactive)
REMARK    1  A    between atoms: C_7  and  C_8 
REMARK    2  A    between atoms: C_8  and  C_9 
REMARK    3  A    between atoms: C_9  and  N_10 
REMARK    4  A    between atoms: C_12  and  C_13 
REMARK    5  A    between atoms: C_13  and  N_14 
REMARK    6  A    between atoms: C_36  and  O_37 
ROOT
HETATM    1  N   UNL     1      25.165  44.724  51.356  1.00  0.00    -0.054 N 
HETATM    2  H   UNL     1      24.789  43.951  51.932  1.00  0.00     0.281 HD
HETATM    3  C   UNL     1      24.136  44.792  50.219  1.00  0.00     0.240 C 
HETATM    4  C   UNL     1      24.065  43.425  49.547  1.00  0.00    -0.020 A 
HETATM    5  C   UNL     1      25.177  42.554  49.553  1.00  0.00    -0.048 A 
HETATM    6  C   UNL     1      26.439  42.869  50.318  1.00  0.00     0.067 C 
HETATM    7  C   UNL     1      26.519  44.294  50.863  1.00  0.00     0.241 C 
HETATM    8  C   UNL     1      22.891  43.037  48.881  1.00  0.00     0.010 A 
HETATM    9  C   UNL     1      22.821  41.807  48.228  1.00  0.00     0.001 A 
HETATM   10  C   UNL     1      23.917  40.950  48.233  1.00  0.00     0.001 A 
HETATM   11  C   UNL     1      25.087  41.318  48.894  1.00  0.00     0.008 A 
ENDROOT
BRANCH   1  12
HETATM   12  C   UNL     1      25.208  45.874  52.358  1.00  0.00     0.319 C 
BRANCH  12  13
HETATM   13  C   UNL     1      25.459  45.418  53.788  1.00  0.00     0.188 C 
HETATM   14  O   UNL     1      24.502  44.959  54.419  1.00  0.00    -0.290 OA
BRANCH  13  15
HETATM   15  C   UNL     1      26.816  45.486  54.338  1.00  0.00     0.046 A 
HETATM   16  C   UNL     1      27.349  46.623  54.940  1.00  0.00     0.020 A 
HETATM   17  C   UNL     1      26.779  47.984  55.149  1.00  0.00     0.069 C 
HETATM   18  N   UNL     1      28.609  46.320  55.385  1.00  0.00    -0.358 N 
HETATM   19  H   UNL     1      29.223  46.956  55.879  1.00  0.00     0.166 HD
HETATM   20  C   UNL     1      28.930  45.023  55.073  1.00  0.00     0.043 A 
HETATM   21  C   UNL     1      27.839  44.470  54.401  1.00  0.00     0.009 A 
HETATM   22  C   UNL     1      30.102  44.310  55.350  1.00  0.00     0.033 A 
HETATM   23  C   UNL     1      27.963  43.125  53.978  1.00  0.00     0.051 A 
HETATM   24  C   UNL     1      29.135  42.394  54.228  1.00  0.00     0.069 A 
HETATM   25  C   UNL     1      30.188  42.984  54.915  1.00  0.00     0.039 A 
BRANCH  24  26
HETATM   26  O   UNL     1      29.104  41.115  53.741  1.00  0.00    -0.356 OA
HETATM   27  C   UNL     1      28.821  40.961  52.353  1.00  0.00     0.210 C 
ENDBRANCH  24  26
ENDBRANCH  13  15
ENDBRANCH  12  13
ENDBRANCH   1  12
BRANCH   3  28
HETATM   28  C   UNL     1      24.426  45.862  49.121  1.00  0.00     0.173 C 
BRANCH  28  29
HETATM   29  N   UNL     1      23.513  46.989  49.076  1.00  0.00    -0.278 N 
HETATM   30  C   UNL     1      22.265  46.954  48.523  1.00  0.00     0.261 A 
HETATM   31  O   UNL     1      21.776  46.053  47.868  1.00  0.00    -0.267 OA
HETATM   32  C   UNL     1      21.688  48.286  48.710  1.00  0.00     0.048 A 
HETATM   33  C   UNL     1      22.654  49.075  49.318  1.00  0.00     0.048 A 
HETATM   34  C   UNL     1      20.467  48.794  48.321  1.00  0.00     0.018 A 
HETATM   35  C   UNL     1      23.837  48.240  49.522  1.00  0.00     0.261 A 
HETATM   36  C   UNL     1      22.448  50.413  49.579  1.00  0.00     0.018 A 
HETATM   37  O   UNL     1      24.921  48.619  49.919  1.00  0.00    -0.267 OA
HETATM   38  C   UNL     1      21.212  50.949  49.207  1.00  0.00     0.001 A 
HETATM   39  C   UNL     1      20.231  50.148  48.583  1.00  0.00     0.001 A 
ENDBRANCH  28  29
ENDBRANCH   3  28
TORSDOF 6
ENDMDL
MODEL 3
REMARK VINA RESULT:     -10.3      1.885      2.908
REMARK  6 active torsions:
REMARK  status: ('A' for Active; 'I' for Inactive)
REMARK    1  A    between atoms: C_7  and  C_8 
REMARK    2  A    between atoms: C_8  and  C_9 
REMARK    3  A    between atoms: C_9  and  N_10 
REMARK    4  A    between atoms: C_12  and  C_13 
REMARK    5  A    between atoms: C_13  and  N_14 
REMARK    6  A    between atoms: C_36  and  O_37 
ROOT
HETATM    1  N   UNL     1      23.790  45.506  49.132  1.00  0.00    -0.054 N 
HETATM    2  H   UNL     1      24.203  45.554  48.184  1.00  0.00     0.281 HD
HETATM    3  C   UNL     1      24.944  44.899  49.942  1.00  0.00     0.240 C 
HETATM    4  C   UNL     1      25.331  43.567  49.310  1.00  0.00    -0.020 A 
HETATM    5  C   UNL     1      24.389  42.804  48.587  1.00  0.00    -0.048 A 
HETATM    6  C   UNL     1      22.997  43.311  48.298  1.00  0.00     0.067 C 
HETATM    7  C   UNL     1      22.609  44.580  49.056  1.00  0.00     0.241 C 
HETATM    8  C   UNL     1      26.635  43.072  49.476  1.00  0.00     0.010 A 
HETATM    9  C   UNL     1      26.998  41.838  48.938  1.00  0.00     0.001 A 
HETATM   10  C   UNL     1      26.068  41.085  48.228  1.00  0.00     0.001 A 
HETATM   11  C   UNL     1      24.772  41.566  48.049  1.00  0.00     0.008 A 
ENDROOT
BRANCH   1  12
HETATM   12  C   UNL     1      23.419  46.964  49.388  1.00  0.00     0.319 C 
BRANCH  12  13
HETATM   13  C   UNL     1      22.702  47.619  48.216  1.00  0.00     0.188 C 
HETATM   14  O   UNL     1      22.438  46.911  47.239  1.00  0.00    -0.290 OA
BRANCH  13  15
HETATM   15  C   UNL     1      22.308  49.027  48.308  1.00  0.00     0.046 A 
HETATM   16  C   UNL     1      23.202  50.089  48.196  1.00  0.00     0.020 A 
HETATM   17  C   UNL     1      24.681  50.113  48.009  1.00  0.00     0.069 C 
HETATM   18  N   UNL     1      22.491  51.257  48.276  1.00  0.00    -0.358 N 
HETATM   19  H   UNL     1      22.886  52.187  48.205  1.00  0.00     0.166 HD
HETATM   20  C   UNL     1      21.157  50.996  48.460  1.00  0.00     0.043 A 
HETATM   21  C   UNL     1      21.002  49.610  48.503  1.00  0.00     0.009 A 
HETATM   22  C   UNL     1      20.088  51.892  48.581  1.00  0.00     0.033 A 
HETATM   23  C   UNL     1      19.689  49.118  48.696  1.00  0.00     0.051 A 
HETATM   24  C   UNL     1      18.602  49.996  48.837  1.00  0.00     0.069 A 
HETATM   25  C   UNL     1      18.805  51.369  48.771  1.00  0.00     0.039 A 
BRANCH  24  26
HETATM   26  O   UNL     1      17.403  49.365  49.033  1.00  0.00    -0.356 OA
HETATM   27  C   UNL     1      17.343  47.980  48.706  1.00  0.00     0.210 C 
ENDBRANCH  24  26
ENDBRANCH  13  15
ENDBRANCH  12  13
ENDBRANCH   1  12
BRANCH   3  28
HETATM   28  C   UNL     1      24.639  44.653  51.453  1.00  0.00     0.173 C 
BRANCH  28  29
HETATM   29  N   UNL     1      25.672  45.066  52.384  1.00  0.00    -0.278 N 
HETATM   30  C   UNL     1      26.557  44.216  52.986  1.00  0.00     0.261 A 
HETATM   31  O   UNL     1      26.542  43.000  52.962  1.00  0.00    -0.267 OA
HETATM   32  C   UNL     1      27.425  45.044  53.823  1.00  0.00     0.048 A 
HETATM   33  C   UNL     1      26.974  46.352  53.724  1.00  0.00     0.048 A 
HETATM   34  C   UNL     1      28.467  44.691  54.656  1.00  0.00     0.018 A 
HETATM   35  C   UNL     1      25.825  46.352  52.821  1.00  0.00     0.261 A 
HETATM   36  C   UNL     1      27.544  47.380  54.446  1.00  0.00     0.018 A 
HETATM   37  O   UNL     1      25.096  47.296  52.587  1.00  0.00    -0.267 OA
HETATM   38  C   UNL     1      28.609  47.049  55.287  1.00  0.00     0.001 A 
HETATM   39  C   UNL     1      29.066  45.718  55.392  1.00  0.00     0.001 A 
ENDBRANCH  28  29
ENDBRANCH   3  28
TORSDOF 6
ENDMDL
MODEL 4
REMARK VINA RESULT:     -10.0      2.300      3.044
REMARK  6 active torsions:
REMARK  status: ('A' for Active; 'I' for Inactive)
REMARK    1  A    between atoms: C_7  and  C_8 
REMARK    2  A    between atoms: C_8  and  C_9 
REMARK    3  A    between atoms: C_9  and  N_10 
REMARK    4  A    between atoms: C_12  and  C_13 
REMARK    5  A    between atoms: C_13  and  N_14 
REMARK    6  A    between atoms: C_36  and  O_37 
ROOT
HETATM    1  N   UNL     1      25.846  43.093  49.270  1.00  0.00    -0.054 N 
HETATM    2  H   UNL     1      26.234  43.200  48.317  1.00  0.00     0.281 HD
HETATM    3  C   UNL     1      26.951  42.287  49.966  1.00  0.00     0.240 C 
HETATM    4  C   UNL     1      27.177  40.999  49.184  1.00  0.00    -0.020 A 
HETATM    5  C   UNL     1      26.139  40.418  48.423  1.00  0.00    -0.048 A 
HETATM    6  C   UNL     1      24.801  41.094  48.244  1.00  0.00     0.067 C 
HETATM    7  C   UNL     1      24.571  42.306  49.144  1.00  0.00     0.241 C 
HETATM    8  C   UNL     1      28.425  40.357  49.245  1.00  0.00     0.010 A 
HETATM    9  C   UNL     1      28.639  39.158  48.568  1.00  0.00     0.001 A 
HETATM   10  C   UNL     1      27.615  38.586  47.820  1.00  0.00     0.001 A 
HETATM   11  C   UNL     1      26.372  39.213  47.744  1.00  0.00     0.008 A 
ENDROOT
BRANCH   1  12
HETATM   12  C   UNL     1      25.639  44.545  49.691  1.00  0.00     0.319 C 
BRANCH  12  13
HETATM   13  C   UNL     1      24.198  44.866  50.061  1.00  0.00     0.188 C 
HETATM   14  O   UNL     1      23.764  44.407  51.122  1.00  0.00    -0.290 OA
BRANCH  13  15
HETATM   15  C   UNL     1      23.407  45.739  49.188  1.00  0.00     0.046 A 
HETATM   16  C   UNL     1      23.567  47.120  49.128  1.00  0.00     0.020 A 
HETATM   17  C   UNL     1      24.465  48.040  49.881  1.00  0.00     0.069 C 
HETATM   18  N   UNL     1      22.710  47.609  48.176  1.00  0.00    -0.358 N 
HETATM   19  H   UNL     1      22.628  48.582  47.909  1.00  0.00     0.166 HD
HETATM   20  C   UNL     1      21.975  46.591  47.625  1.00  0.00     0.043 A 
HETATM   21  C   UNL     1      22.369  45.404  48.243  1.00  0.00     0.009 A 
HETATM   22  C   UNL     1      21.001  46.646  46.620  1.00  0.00     0.033 A 
HETATM   23  C   UNL     1      21.723  44.217  47.822  1.00  0.00     0.051 A 
HETATM   24  C   UNL     1      20.731  44.248  46.829  1.00  0.00     0.069 A 
HETATM   25  C   UNL     1      20.384  45.453  46.231  1.00  0.00     0.039 A 
BRANCH  24  26
HETATM   26  O   UNL     1      20.191  43.022  46.547  1.00  0.00    -0.356 OA
HETATM   27  C   UNL     1      20.964  42.152  45.725  1.00  0.00     0.210 C 
ENDBRANCH  24  26
ENDBRANCH  13  15
ENDBRANCH  12  13
ENDBRANCH   1  12
BRANCH   3  28
HETATM   28  C   UNL     1      26.665  41.912  51.454  1.00  0.00     0.173 C 
BRANCH  28  29
HETATM   29  N   UNL     1      27.522  42.538  52.442  1.00  0.00    -0.278 N 
HETATM   30  C   UNL     1      28.727  42.040  52.850  1.00  0.00     0.261 A 
HETATM   31  O   UNL     1      29.205  40.955  52.577  1.00  0.00    -0.267 OA
HETATM   32  C   UNL     1      29.258  42.985  53.833  1.00  0.00     0.048 A 
HETATM   33  C   UNL     1      28.306  43.979  54.009  1.00  0.00     0.048 A 
HETATM   34  C   UNL     1      30.425  42.951  54.568  1.00  0.00     0.018 A 
HETATM   35  C   UNL     1      27.179  43.667  53.134  1.00  0.00     0.261 A 
HETATM   36  C   UNL     1      28.474  44.999  54.923  1.00  0.00     0.018 A 
HETATM   37  O   UNL     1      26.112  44.247  53.105  1.00  0.00    -0.267 OA
HETATM   38  C   UNL     1      29.655  44.994  55.670  1.00  0.00     0.001 A 
HETATM   39  C   UNL     1      30.621  43.979  55.495  1.00  0.00     0.001 A 
ENDBRANCH  28  29
ENDBRANCH   3  28
TORSDOF 6
ENDMDL
MODEL 5
REMARK VINA RESULT:     -10.0      2.031      3.585
REMARK  6 active torsions:
REMARK  status: ('A' for Active; 'I' for Inactive)
REMARK    1  A    between atoms: C_7  and  C_8 
REMARK    2  A    between atoms: C_8  and  C_9 
REMARK    3  A    between atoms: C_9  and  N_10 
REMARK    4  A    between atoms: C_12  and  C_13 
REMARK    5  A    between atoms: C_13  and  N_14 
REMARK    6  A    between atoms: C_36  and  O_37 
ROOT
HETATM    1  N   UNL     1      24.027  43.884  49.316  1.00  0.00    -0.054 N 
HETATM    2  H   UNL     1      24.399  43.962  48.353  1.00  0.00     0.281 HD
HETATM    3  C   UNL     1      25.291  43.515  50.106  1.00  0.00     0.240 C 
HETATM    4  C   UNL     1      25.882  42.245  49.508  1.00  0.00    -0.020 A 
HETATM    5  C   UNL     1      25.065  41.303  48.847  1.00  0.00    -0.048 A 
HETATM    6  C   UNL     1      23.599  41.554  48.589  1.00  0.00     0.067 C 
HETATM    7  C   UNL     1      23.021  42.768  49.314  1.00  0.00     0.241 C 
HETATM    8  C   UNL     1      27.256  41.985  49.646  1.00  0.00     0.010 A 
HETATM    9  C   UNL     1      27.810  40.810  49.140  1.00  0.00     0.001 A 
HETATM   10  C   UNL     1      27.002  39.882  48.490  1.00  0.00     0.001 A 
HETATM   11  C   UNL     1      25.638  40.127  48.340  1.00  0.00     0.008 A 
ENDROOT
BRANCH   1  12
HETATM   12  C   UNL     1      23.419  45.267  49.533  1.00  0.00     0.319 C 
BRANCH  12  13
HETATM   13  C   UNL     1      22.704  45.810  48.305  1.00  0.00     0.188 C 
HETATM   14  O   UNL     1      22.659  45.090  47.303  1.00  0.00    -0.290 OA
BRANCH  13  15
HETATM   15  C   UNL     1      22.057  47.124  48.371  1.00  0.00     0.046 A 
HETATM   16  C   UNL     1      20.696  47.304  48.605  1.00  0.00     0.020 A 
HETATM   17  C   UNL     1      19.593  46.320  48.798  1.00  0.00     0.069 C 
HETATM   18  N   UNL     1      20.445  48.650  48.654  1.00  0.00    -0.358 N 
HETATM   19  H   UNL     1      19.540  49.069  48.830  1.00  0.00     0.166 HD
HETATM   20  C   UNL     1      21.598  49.362  48.437  1.00  0.00     0.043 A 
HETATM   21  C   UNL     1      22.628  48.443  48.239  1.00  0.00     0.009 A 
HETATM   22  C   UNL     1      21.791  50.748  48.415  1.00  0.00     0.033 A 
HETATM   23  C   UNL     1      23.918  48.971  47.988  1.00  0.00     0.051 A 
HETATM   24  C   UNL     1      24.134  50.357  47.942  1.00  0.00     0.069 A 
HETATM   25  C   UNL     1      23.078  51.233  48.163  1.00  0.00     0.039 A 
BRANCH  24  26
HETATM   26  O   UNL     1      25.430  50.707  47.673  1.00  0.00    -0.356 OA
HETATM   27  C   UNL     1      26.449  49.889  48.241  1.00  0.00     0.210 C 
ENDBRANCH  24  26
ENDBRANCH  13  15
ENDBRANCH  12  13
ENDBRANCH   1  12
BRANCH   3  28
HETATM   28  C   UNL     1      25.076  43.283  51.634  1.00  0.00     0.173 C 
BRANCH  28  29
HETATM   29  N   UNL     1      25.932  44.051  52.519  1.00  0.00    -0.278 N 
HETATM   30  C   UNL     1      25.797  45.390  52.759  1.00  0.00     0.261 A 
HETATM   31  O   UNL     1      25.060  46.169  52.186  1.00  0.00    -0.267 OA
HETATM   32  C   UNL     1      26.845  45.749  53.715  1.00  0.00     0.048 A 
HETATM   33  C   UNL     1      27.598  44.609  53.955  1.00  0.00     0.048 A 
HETATM   34  C   UNL     1      27.168  46.969  54.272  1.00  0.00     0.018 A 
HETATM   35  C   UNL     1      27.023  43.528  53.156  1.00  0.00     0.261 A 
HETATM   36  C   UNL     1      28.709  44.623  54.771  1.00  0.00     0.018 A 
HETATM   37  O   UNL     1      27.487  42.414  53.018  1.00  0.00    -0.267 OA
HETATM   38  C   UNL     1      29.049  45.846  55.357  1.00  0.00     0.001 A 
HETATM   39  C   UNL     1      28.287  47.008  55.109  1.00  0.00     0.001 A 
ENDBRANCH  28  29
ENDBRANCH   3  28
TORSDOF 6
ENDMDL
MODEL 6
REMARK VINA RESULT:      -9.9      2.282      3.533
REMARK  6 active torsions:
REMARK  status: ('A' for Active; 'I' for Inactive)
REMARK    1  A    between atoms: C_7  and  C_8 
REMARK    2  A    between atoms: C_8  and  C_9 
REMARK    3  A    between atoms: C_9  and  N_10 
REMARK    4  A    between atoms: C_12  and  C_13 
REMARK    5  A    between atoms: C_13  and  N_14 
REMARK    6  A    between atoms: C_36  and  O_37 
ROOT
HETATM    1  N   UNL     1      23.940  43.165  48.803  1.00  0.00    -0.054 N 
HETATM    2  H   UNL     1      24.236  43.418  47.844  1.00  0.00     0.281 HD
HETATM    3  C   UNL     1      25.285  42.844  49.468  1.00  0.00     0.240 C 
HETATM    4  C   UNL     1      25.973  41.746  48.665  1.00  0.00    -0.020 A 
HETATM    5  C   UNL     1      25.222  40.814  47.917  1.00  0.00    -0.048 A 
HETATM    6  C   UNL     1      23.724  40.922  47.772  1.00  0.00     0.067 C 
HETATM    7  C   UNL     1      23.064  41.948  48.692  1.00  0.00     0.241 C 
HETATM    8  C   UNL     1      27.373  41.636  48.696  1.00  0.00     0.010 A 
HETATM    9  C   UNL     1      28.018  40.614  47.999  1.00  0.00     0.001 A 
HETATM   10  C   UNL     1      27.277  39.695  47.264  1.00  0.00     0.001 A 
HETATM   11  C   UNL     1      25.887  39.795  47.219  1.00  0.00     0.008 A 
ENDROOT
BRANCH   1  12
HETATM   12  C   UNL     1      23.198  44.423  49.247  1.00  0.00     0.319 C 
BRANCH  12  13
HETATM   13  C   UNL     1      22.579  45.196  48.092  1.00  0.00     0.188 C 
HETATM   14  O   UNL     1      22.799  44.789  46.947  1.00  0.00    -0.290 OA
BRANCH  13  15
HETATM   15  C   UNL     1      21.712  46.344  48.376  1.00  0.00     0.046 A 
HETATM   16  C   UNL     1      20.324  46.265  48.450  1.00  0.00     0.020 A 
HETATM   17  C   UNL     1      19.393  45.120  48.246  1.00  0.00     0.069 C 
HETATM   18  N   UNL     1      19.842  47.503  48.783  1.00  0.00    -0.358 N 
HETATM   19  H   UNL     1      18.866  47.731  48.923  1.00  0.00     0.166 HD
HETATM   20  C   UNL     1      20.872  48.402  48.907  1.00  0.00     0.043 A 
HETATM   21  C   UNL     1      22.059  47.719  48.644  1.00  0.00     0.009 A 
HETATM   22  C   UNL     1      20.825  49.760  49.243  1.00  0.00     0.033 A 
HETATM   23  C   UNL     1      23.258  48.470  48.711  1.00  0.00     0.051 A 
HETATM   24  C   UNL     1      23.237  49.837  49.028  1.00  0.00     0.069 A 
HETATM   25  C   UNL     1      22.029  50.469  49.299  1.00  0.00     0.039 A 
BRANCH  24  26
HETATM   26  O   UNL     1      24.474  50.423  49.036  1.00  0.00    -0.356 OA
HETATM   27  C   UNL     1      25.543  49.677  48.463  1.00  0.00     0.210 C 
ENDBRANCH  24  26
ENDBRANCH  13  15
ENDBRANCH  12  13
ENDBRANCH   1  12
BRANCH   3  28
HETATM   28  C   UNL     1      25.199  42.381  50.956  1.00  0.00     0.173 C 
BRANCH  28  29
HETATM   29  N   UNL     1      25.996  43.138  51.903  1.00  0.00    -0.278 N 
HETATM   30  C   UNL     1      27.226  42.757  52.359  1.00  0.00     0.261 A 
HETATM   31  O   UNL     1      27.782  41.692  52.173  1.00  0.00    -0.267 OA
HETATM   32  C   UNL     1      27.675  43.808  53.274  1.00  0.00     0.048 A 
HETATM   33  C   UNL     1      26.654  44.743  53.366  1.00  0.00     0.048 A 
HETATM   34  C   UNL     1      28.830  43.910  54.020  1.00  0.00     0.018 A 
HETATM   35  C   UNL     1      25.564  44.288  52.505  1.00  0.00     0.261 A 
HETATM   36  C   UNL     1      26.736  45.837  54.202  1.00  0.00     0.018 A 
HETATM   37  O   UNL     1      24.460  44.787  52.422  1.00  0.00    -0.267 OA
HETATM   38  C   UNL     1      27.903  45.970  54.959  1.00  0.00     0.001 A 
HETATM   39  C   UNL     1      28.940  45.015  54.870  1.00  0.00     0.001 A 
ENDBRANCH  28  29
ENDBRANCH   3  28
TORSDOF 6
ENDMDL
MODEL 7
REMARK VINA RESULT:      -9.8      2.537      4.300
REMARK  6 active torsions:
REMARK  status: ('A' for Active; 'I' for Inactive)
REMARK    1  A    between atoms: C_7  and  C_8 
REMARK    2  A    between atoms: C_8  and  C_9 
REMARK    3  A    between atoms: C_9  and  N_10 
REMARK    4  A    between atoms: C_12  and  C_13 
REMARK    5  A    between atoms: C_13  and  N_14 
REMARK    6  A    between atoms: C_36  and  O_37 
ROOT
HETATM    1  N   UNL     1      23.654  44.726  48.711  1.00  0.00    -0.054 N 
HETATM    2  H   UNL     1      24.140  44.709  47.798  1.00  0.00     0.281 HD
HETATM    3  C   UNL     1      24.805  44.423  49.681  1.00  0.00     0.240 C 
HETATM    4  C   UNL     1      25.438  43.096  49.281  1.00  0.00    -0.020 A 
HETATM    5  C   UNL     1      24.687  42.103  48.616  1.00  0.00    -0.048 A 
HETATM    6  C   UNL     1      23.268  42.341  48.159  1.00  0.00     0.067 C 
HETATM    7  C   UNL     1      22.632  43.624  48.692  1.00  0.00     0.241 C 
HETATM    8  C   UNL     1      26.780  42.839  49.609  1.00  0.00     0.010 A 
HETATM    9  C   UNL     1      27.366  41.615  49.286  1.00  0.00     0.001 A 
HETATM   10  C   UNL     1      26.624  40.637  48.632  1.00  0.00     0.001 A 
HETATM   11  C   UNL     1      25.293  40.879  48.295  1.00  0.00     0.008 A 
ENDROOT
BRANCH   1  12
HETATM   12  C   UNL     1      23.052  46.129  48.722  1.00  0.00     0.319 C 
BRANCH  12  13
HETATM   13  C   UNL     1      21.958  46.323  47.684  1.00  0.00     0.188 C 
HETATM   14  O   UNL     1      22.256  46.146  46.498  1.00  0.00    -0.290 OA
BRANCH  13  15
HETATM   15  C   UNL     1      20.599  46.654  48.122  1.00  0.00     0.046 A 
HETATM   16  C   UNL     1      19.497  45.830  47.909  1.00  0.00     0.020 A 
HETATM   17  C   UNL     1      19.369  44.520  47.210  1.00  0.00     0.069 C 
HETATM   18  N   UNL     1      18.404  46.417  48.491  1.00  0.00    -0.358 N 
HETATM   19  H   UNL     1      17.470  46.027  48.506  1.00  0.00     0.166 HD
HETATM   20  C   UNL     1      18.751  47.616  49.061  1.00  0.00     0.043 A 
HETATM   21  C   UNL     1      20.114  47.810  48.837  1.00  0.00     0.009 A 
HETATM   22  C   UNL     1      17.951  48.526  49.762  1.00  0.00     0.033 A 
HETATM   23  C   UNL     1      20.683  49.003  49.343  1.00  0.00     0.051 A 
HETATM   24  C   UNL     1      19.899  49.941  50.034  1.00  0.00     0.069 A 
HETATM   25  C   UNL     1      18.548  49.695  50.246  1.00  0.00     0.039 A 
BRANCH  24  26
HETATM   26  O   UNL     1      20.592  51.048  50.443  1.00  0.00    -0.356 OA
HETATM   27  C   UNL     1      21.988  51.075  50.159  1.00  0.00     0.210 C 
ENDBRANCH  24  26
ENDBRANCH  13  15
ENDBRANCH  12  13
ENDBRANCH   1  12
BRANCH   3  28
HETATM   28  C   UNL     1      24.402  44.340  51.186  1.00  0.00     0.173 C 
BRANCH  28  29
HETATM   29  N   UNL     1      25.302  44.990  52.120  1.00  0.00    -0.278 N 
HETATM   30  C   UNL     1      25.393  46.342  52.296  1.00  0.00     0.261 A 
HETATM   31  O   UNL     1      24.863  47.208  51.626  1.00  0.00    -0.267 OA
HETATM   32  C   UNL     1      26.400  46.561  53.334  1.00  0.00     0.048 A 
HETATM   33  C   UNL     1      26.909  45.320  53.688  1.00  0.00     0.048 A 
HETATM   34  C   UNL     1      26.889  47.733  53.874  1.00  0.00     0.018 A 
HETATM   35  C   UNL     1      26.219  44.317  52.879  1.00  0.00     0.261 A 
HETATM   36  C   UNL     1      27.928  45.181  54.606  1.00  0.00     0.018 A 
HETATM   37  O   UNL     1      26.484  43.132  52.827  1.00  0.00    -0.267 OA
HETATM   38  C   UNL     1      28.432  46.354  55.177  1.00  0.00     0.001 A 
HETATM   39  C   UNL     1      27.918  47.618  54.813  1.00  0.00     0.001 A 
ENDBRANCH  28  29
ENDBRANCH   3  28
TORSDOF 6
ENDMDL
MODEL 8
REMARK VINA RESULT:      -9.7      5.204     11.988
REMARK  6 active torsions:
REMARK  status: ('A' for Active; 'I' for Inactive)
REMARK    1  A    between atoms: C_7  and  C_8 
REMARK    2  A    between atoms: C_8  and  C_9 
REMARK    3  A    between atoms: C_9  and  N_10 
REMARK    4  A    between atoms: C_12  and  C_13 
REMARK    5  A    between atoms: C_13  and  N_14 
REMARK    6  A    between atoms: C_36  and  O_37 
ROOT
HETATM    1  N   UNL     1      19.135  47.465  47.384  1.00  0.00    -0.054 N 
HETATM    2  H   UNL     1      20.031  47.581  47.889  1.00  0.00     0.281 HD
HETATM    3  C   UNL     1      18.954  48.853  46.753  1.00  0.00     0.240 C 
HETATM    4  C   UNL     1      18.971  49.896  47.864  1.00  0.00    -0.020 A 
HETATM    5  C   UNL     1      18.564  49.568  49.176  1.00  0.00    -0.048 A 
HETATM    6  C   UNL     1      18.211  48.157  49.577  1.00  0.00     0.067 C 
HETATM    7  C   UNL     1      18.079  47.175  48.414  1.00  0.00     0.241 C 
HETATM    8  C   UNL     1      19.364  51.214  47.576  1.00  0.00     0.010 A 
HETATM    9  C   UNL     1      19.348  52.191  48.569  1.00  0.00     0.001 A 
HETATM   10  C   UNL     1      18.946  51.867  49.861  1.00  0.00     0.001 A 
HETATM   11  C   UNL     1      18.559  50.563  50.165  1.00  0.00     0.008 A 
ENDROOT
BRANCH   1  12
HETATM   12  C   UNL     1      19.441  46.288  46.462  1.00  0.00     0.319 C 
BRANCH  12  13
HETATM   13  C   UNL     1      20.922  46.134  46.152  1.00  0.00     0.188 C 
HETATM   14  O   UNL     1      21.299  46.407  45.008  1.00  0.00    -0.290 OA
BRANCH  13  15
HETATM   15  C   UNL     1      21.843  45.729  47.218  1.00  0.00     0.046 A 
HETATM   16  C   UNL     1      22.163  44.404  47.501  1.00  0.00     0.020 A 
HETATM   17  C   UNL     1      21.685  43.127  46.897  1.00  0.00     0.069 C 
HETATM   18  N   UNL     1      23.085  44.393  48.514  1.00  0.00    -0.358 N 
HETATM   19  H   UNL     1      23.509  43.562  48.908  1.00  0.00     0.166 HD
HETATM   20  C   UNL     1      23.366  45.672  48.922  1.00  0.00     0.043 A 
HETATM   21  C   UNL     1      22.595  46.539  48.147  1.00  0.00     0.009 A 
HETATM   22  C   UNL     1      24.252  46.111  49.913  1.00  0.00     0.033 A 
HETATM   23  C   UNL     1      22.727  47.923  48.411  1.00  0.00     0.051 A 
HETATM   24  C   UNL     1      23.596  48.388  49.411  1.00  0.00     0.069 A 
HETATM   25  C   UNL     1      24.355  47.486  50.146  1.00  0.00     0.039 A 
BRANCH  24  26
HETATM   26  O   UNL     1      23.597  49.749  49.555  1.00  0.00    -0.356 OA
HETATM   27  C   UNL     1      22.327  50.388  49.652  1.00  0.00     0.210 C 
ENDBRANCH  24  26
ENDBRANCH  13  15
ENDBRANCH  12  13
ENDBRANCH   1  12
BRANCH   3  28
HETATM   28  C   UNL     1      17.646  49.042  45.925  1.00  0.00     0.173 C 
BRANCH  28  29
HETATM   29  N   UNL     1      17.692  50.058  44.890  1.00  0.00    -0.278 N 
HETATM   30  C   UNL     1      17.079  51.277  44.973  1.00  0.00     0.261 A 
HETATM   31  O   UNL     1      16.301  51.652  45.829  1.00  0.00    -0.267 OA
HETATM   32  C   UNL     1      17.394  51.987  43.733  1.00  0.00     0.048 A 
HETATM   33  C   UNL     1      18.136  51.125  42.938  1.00  0.00     0.048 A 
HETATM   34  C   UNL     1      17.011  53.238  43.296  1.00  0.00     0.018 A 
HETATM   35  C   UNL     1      18.296  49.874  43.677  1.00  0.00     0.261 A 
HETATM   36  C   UNL     1      18.543  51.470  41.666  1.00  0.00     0.018 A 
HETATM   37  O   UNL     1      18.785  48.847  43.251  1.00  0.00    -0.267 OA
HETATM   38  C   UNL     1      18.178  52.738  41.206  1.00  0.00     0.001 A 
HETATM   39  C   UNL     1      17.418  53.613  42.012  1.00  0.00     0.001 A 
ENDBRANCH  28  29
ENDBRANCH   3  28
TORSDOF 6
ENDMDL
MODEL 9
REMARK VINA RESULT:      -9.6     17.399     21.208
REMARK  6 active torsions:
REMARK  status: ('A' for Active; 'I' for Inactive)
REMARK    1  A    between atoms: C_7  and  C_8 
REMARK    2  A    between atoms: C_8  and  C_9 
REMARK    3  A    between atoms: C_9  and  N_10 
REMARK    4  A    between atoms: C_12  and  C_13 
REMARK    5  A    between atoms: C_13  and  N_14 
REMARK    6  A    between atoms: C_36  and  O_37 
ROOT
HETATM    1  N   UNL     1      38.619  48.119  68.341  1.00  0.00    -0.054 N 
HETATM    2  H   UNL     1      39.478  48.682  68.462  1.00  0.00     0.281 HD
HETATM    3  C   UNL     1      38.032  48.720  67.056  1.00  0.00     0.240 C 
HETATM    4  C   UNL     1      37.831  50.216  67.269  1.00  0.00    -0.020 A 
HETATM    5  C   UNL     1      37.605  50.742  68.560  1.00  0.00    -0.048 A 
HETATM    6  C   UNL     1      37.671  49.884  69.800  1.00  0.00     0.067 C 
HETATM    7  C   UNL     1      37.743  48.381  69.534  1.00  0.00     0.241 C 
HETATM    8  C   UNL     1      37.834  51.083  66.164  1.00  0.00     0.010 A 
HETATM    9  C   UNL     1      37.613  52.449  66.335  1.00  0.00     0.001 A 
HETATM   10  C   UNL     1      37.389  52.966  67.607  1.00  0.00     0.001 A 
HETATM   11  C   UNL     1      37.388  52.120  68.714  1.00  0.00     0.008 A 
ENDROOT
BRANCH   1  12
HETATM   12  C   UNL     1      39.177  46.700  68.283  1.00  0.00     0.319 C 
BRANCH  12  13
HETATM   13  C   UNL     1      40.487  46.598  67.515  1.00  0.00     0.188 C 
HETATM   14  O   UNL     1      41.516  46.971  68.087  1.00  0.00    -0.290 OA
BRANCH  13  15
HETATM   15  C   UNL     1      40.490  46.021  66.168  1.00  0.00     0.046 A 
HETATM   16  C   UNL     1      40.516  46.780  65.001  1.00  0.00     0.020 A 
HETATM   17  C   UNL     1      40.508  48.255  64.788  1.00  0.00     0.069 C 
HETATM   18  N   UNL     1      40.565  45.923  63.934  1.00  0.00    -0.358 N 
HETATM   19  H   UNL     1      40.611  46.203  62.962  1.00  0.00     0.166 HD
HETATM   20  C   UNL     1      40.550  44.620  64.363  1.00  0.00     0.043 A 
HETATM   21  C   UNL     1      40.486  44.637  65.756  1.00  0.00     0.009 A 
HETATM   22  C   UNL     1      40.597  43.440  63.611  1.00  0.00     0.033 A 
HETATM   23  C   UNL     1      40.453  43.383  66.411  1.00  0.00     0.051 A 
HETATM   24  C   UNL     1      40.481  42.185  65.680  1.00  0.00     0.069 A 
HETATM   25  C   UNL     1      40.562  42.220  64.293  1.00  0.00     0.039 A 
BRANCH  24  26
HETATM   26  O   UNL     1      40.426  41.059  66.457  1.00  0.00    -0.356 OA
HETATM   27  C   UNL     1      40.275  39.816  65.780  1.00  0.00     0.210 C 
ENDBRANCH  24  26
ENDBRANCH  13  15
ENDBRANCH  12  13
ENDBRANCH   1  12
BRANCH   3  28
HETATM   28  C   UNL     1      36.675  48.105  66.592  1.00  0.00     0.173 C 
BRANCH  28  29
HETATM   29  N   UNL     1      36.756  46.813  65.936  1.00  0.00    -0.278 N 
HETATM   30  C   UNL     1      36.998  46.635  64.603  1.00  0.00     0.261 A 
HETATM   31  O   UNL     1      37.041  47.493  63.742  1.00  0.00    -0.267 OA
HETATM   32  C   UNL     1      37.013  45.190  64.372  1.00  0.00     0.048 A 
HETATM   33  C   UNL     1      36.716  44.573  65.579  1.00  0.00     0.048 A 
HETATM   34  C   UNL     1      37.191  44.472  63.208  1.00  0.00     0.018 A 
HETATM   35  C   UNL     1      36.521  45.627  66.573  1.00  0.00     0.261 A 
HETATM   36  C   UNL     1      36.591  43.204  65.690  1.00  0.00     0.018 A 
HETATM   37  O   UNL     1      36.132  45.472  67.713  1.00  0.00    -0.267 OA
HETATM   38  C   UNL     1      36.780  42.454  64.526  1.00  0.00     0.001 A 
HETATM   39  C   UNL     1      37.076  43.082  63.296  1.00  0.00     0.001 A 
ENDBRANCH  28  29
ENDBRANCH   3  28
TORSDOF 6
ENDMDL
MODEL 10
REMARK VINA RESULT:      -9.5     18.030     20.315
REMARK  6 active torsions:
REMARK  status: ('A' for Active; 'I' for Inactive)
REMARK    1  A    between atoms: C_7  and  C_8 
REMARK    2  A    between atoms: C_8  and  C_9 
REMARK    3  A    between atoms: C_9  and  N_10 
REMARK    4  A    between atoms: C_12  and  C_13 
REMARK    5  A    between atoms: C_13  and  N_14 
REMARK    6  A    between atoms: C_36  and  O_37 
ROOT
HETATM    1  N   UNL     1      39.589  43.426  63.680  1.00  0.00    -0.054 N 
HETATM    2  H   UNL     1      40.586  43.210  63.504  1.00  0.00     0.281 HD
HETATM    3  C   UNL     1      39.354  42.729  65.027  1.00  0.00     0.240 C 
HETATM    4  C   UNL     1      39.707  41.254  64.878  1.00  0.00    -0.020 A 
HETATM    5  C   UNL     1      39.607  40.605  63.628  1.00  0.00    -0.048 A 
HETATM    6  C   UNL     1      39.267  41.353  62.361  1.00  0.00     0.067 C 
HETATM    7  C   UNL     1      38.795  42.790  62.573  1.00  0.00     0.241 C 
HETATM    8  C   UNL     1      40.105  40.516  66.005  1.00  0.00     0.010 A 
HETATM    9  C   UNL     1      40.394  39.157  65.896  1.00  0.00     0.001 A 
HETATM   10  C   UNL     1      40.293  38.519  64.664  1.00  0.00     0.001 A 
HETATM   11  C   UNL     1      39.906  39.238  63.535  1.00  0.00     0.008 A 
ENDROOT
BRANCH   1  12
HETATM   12  C   UNL     1      39.585  44.952  63.647  1.00  0.00     0.319 C 
BRANCH  12  13
HETATM   13  C   UNL     1      40.860  45.570  64.200  1.00  0.00     0.188 C 
HETATM   14  O   UNL     1      41.854  45.588  63.466  1.00  0.00    -0.290 OA
BRANCH  13  15
HETATM   15  C   UNL     1      40.851  46.162  65.541  1.00  0.00     0.046 A 
HETATM   16  C   UNL     1      41.417  45.554  66.659  1.00  0.00     0.020 A 
HETATM   17  C   UNL     1      42.095  44.237  66.823  1.00  0.00     0.069 C 
HETATM   18  N   UNL     1      41.276  46.402  67.725  1.00  0.00    -0.358 N 
HETATM   19  H   UNL     1      41.613  46.223  68.663  1.00  0.00     0.166 HD
HETATM   20  C   UNL     1      40.613  47.543  67.347  1.00  0.00     0.043 A 
HETATM   21  C   UNL     1      40.315  47.425  65.989  1.00  0.00     0.009 A 
HETATM   22  C   UNL     1      40.272  48.663  68.113  1.00  0.00     0.033 A 
HETATM   23  C   UNL     1      39.618  48.502  65.391  1.00  0.00     0.051 A 
HETATM   24  C   UNL     1      39.249  49.630  66.142  1.00  0.00     0.069 A 
HETATM   25  C   UNL     1      39.584  49.708  67.488  1.00  0.00     0.039 A 
BRANCH  24  26
HETATM   26  O   UNL     1      38.566  50.574  65.424  1.00  0.00    -0.356 OA
HETATM   27  C   UNL     1      37.768  51.493  66.164  1.00  0.00     0.210 C 
ENDBRANCH  24  26
ENDBRANCH  13  15
ENDBRANCH  12  13
ENDBRANCH   1  12
BRANCH   3  28
HETATM   28  C   UNL     1      37.900  42.831  65.584  1.00  0.00     0.173 C 
BRANCH  28  29
HETATM   29  N   UNL     1      37.525  44.114  66.149  1.00  0.00    -0.278 N 
HETATM   30  C   UNL     1      37.819  44.516  67.421  1.00  0.00     0.261 A 
HETATM   31  O   UNL     1      38.299  43.843  68.313  1.00  0.00    -0.267 OA
HETATM   32  C   UNL     1      37.277  45.867  67.566  1.00  0.00     0.048 A 
HETATM   33  C   UNL     1      36.626  46.184  66.382  1.00  0.00     0.048 A 
HETATM   34  C   UNL     1      37.277  46.720  68.651  1.00  0.00     0.018 A 
HETATM   35  C   UNL     1      36.764  45.037  65.487  1.00  0.00     0.261 A 
HETATM   36  C   UNL     1      35.949  47.373  66.214  1.00  0.00     0.018 A 
HETATM   37  O   UNL     1      36.223  44.901  64.408  1.00  0.00    -0.267 OA
HETATM   38  C   UNL     1      35.947  48.260  67.295  1.00  0.00     0.001 A 
HETATM   39  C   UNL     1      36.603  47.936  68.502  1.00  0.00     0.001 A 
ENDBRANCH  28  29
ENDBRANCH   3  28
TORSDOF 6
ENDMDL
