MODEL 1
REMARK VINA RESULT:      -9.0      0.000      0.000
REMARK  6 active torsions:
REMARK  status: ('A' for Active; 'I' for Inactive)
REMARK    1  A    between atoms: C_2  and  C_3 
REMARK    2  A    between atoms: C_3  and  O_4 
REMARK    3  A    between atoms: O_4  and  C_5 
REMARK    4  A    between atoms: C_6  and  O_7 
REMARK    5  A    between atoms: C_10  and  C_11 
REMARK    6  A    between atoms: C_25  and  O_26 
ROOT
HETATM    1  C   UNL     1      26.460  44.384  51.710  1.00  0.00     0.269 C 
HETATM    2  N   UNL     1      27.196  43.450  50.782  1.00  0.00    -0.061 N 
HETATM    3  H   UNL     1      27.916  43.996  50.297  1.00  0.00     0.278 HD
HETATM    4  H   UNL     1      26.543  43.127  50.060  1.00  0.00     0.278 HD
HETATM    5  C   UNL     1      27.851  42.281  51.477  1.00  0.00     0.238 C 
HETATM    6  C   UNL     1      28.938  42.763  52.458  1.00  0.00     0.069 C 
HETATM    7  C   UNL     1      28.430  43.903  53.275  1.00  0.00    -0.019 A 
HETATM    8  C   UNL     1      27.312  44.630  52.908  1.00  0.00     0.052 A 
HETATM    9  N   UNL     1      27.100  45.593  53.861  1.00  0.00    -0.356 N 
HETATM   10  H   UNL     1      26.359  46.284  53.868  1.00  0.00     0.166 HD
HETATM   11  C   UNL     1      28.081  45.512  54.825  1.00  0.00     0.043 A 
HETATM   12  C   UNL     1      28.929  44.458  54.481  1.00  0.00     0.002 A 
HETATM   13  C   UNL     1      28.279  46.290  55.971  1.00  0.00     0.033 A 
HETATM   14  C   UNL     1      29.374  45.983  56.790  1.00  0.00     0.039 A 
HETATM   15  C   UNL     1      30.239  44.937  56.475  1.00  0.00     0.069 A 
HETATM   16  C   UNL     1      30.022  44.170  55.321  1.00  0.00     0.051 A 
ENDROOT
BRANCH   1  17
HETATM   17  C   UNL     1      26.052  45.644  50.973  1.00  0.00    -0.019 A 
HETATM   18  C   UNL     1      26.971  46.354  50.176  1.00  0.00     0.049 A 
HETATM   19  C   UNL     1      26.581  47.505  49.482  1.00  0.00     0.102 A 
HETATM   20  C   UNL     1      25.252  47.958  49.569  1.00  0.00     0.102 A 
HETATM   21  C   UNL     1      24.337  47.255  50.357  1.00  0.00     0.040 A 
HETATM   22  C   UNL     1      24.732  46.109  51.053  1.00  0.00     0.012 A 
BRANCH  19  23
HETATM   23  O   UNL     1      27.418  48.225  48.670  1.00  0.00    -0.353 OA
HETATM   24  C   UNL     1      28.064  49.360  49.230  1.00  0.00     0.210 C 
ENDBRANCH  19  23
BRANCH  20  25
HETATM   25  O   UNL     1      24.952  49.084  48.849  1.00  0.00    -0.348 OA
BRANCH  25  26
HETATM   26  C   UNL     1      23.590  49.311  48.489  1.00  0.00     0.175 C 
BRANCH  26  27
HETATM   27  C   UNL     1      23.253  50.759  48.831  1.00  0.00     0.022 C 
HETATM   28  C   UNL     1      21.779  51.061  48.624  1.00  0.00     0.007 C 
ENDBRANCH  26  27
ENDBRANCH  25  26
ENDBRANCH  20  25
ENDBRANCH   1  17
BRANCH  15  29
HETATM   29  O   UNL     1      31.334  44.553  57.202  1.00  0.00    -0.356 OA
HETATM   30  C   UNL     1      31.690  43.176  57.159  1.00  0.00     0.210 C 
ENDBRANCH  15  29
TORSDOF 6
ENDMDL
MODEL 2
REMARK VINA RESULT:      -8.8      1.645      8.239
REMARK  6 active torsions:
REMARK  status: ('A' for Active; 'I' for Inactive)
REMARK    1  A    between atoms: C_2  and  C_3 
REMARK    2  A    between atoms: C_3  and  O_4 
REMARK    3  A    between atoms: O_4  and  C_5 
REMARK    4  A    between atoms: C_6  and  O_7 
REMARK    5  A    between atoms: C_10  and  C_11 
REMARK    6  A    between atoms: C_25  and  O_26 
ROOT
HETATM    1  C   UNL     1      26.555  43.718  51.300  1.00  0.00     0.269 C 
HETATM    2  N   UNL     1      25.346  42.945  51.766  1.00  0.00    -0.061 N 
HETATM    3  H   UNL     1      25.031  43.361  52.648  1.00  0.00     0.278 HD
HETATM    4  H   UNL     1      25.638  41.987  51.986  1.00  0.00     0.278 HD
HETATM    5  C   UNL     1      24.198  42.947  50.785  1.00  0.00     0.238 C 
HETATM    6  C   UNL     1      23.664  44.375  50.566  1.00  0.00     0.069 C 
HETATM    7  C   UNL     1      24.795  45.326  50.363  1.00  0.00    -0.019 A 
HETATM    8  C   UNL     1      26.094  45.010  50.716  1.00  0.00     0.052 A 
HETATM    9  N   UNL     1      26.893  46.078  50.397  1.00  0.00    -0.356 N 
HETATM   10  H   UNL     1      27.894  46.148  50.539  1.00  0.00     0.166 HD
HETATM   11  C   UNL     1      26.122  47.089  49.866  1.00  0.00     0.043 A 
HETATM   12  C   UNL     1      24.800  46.642  49.833  1.00  0.00     0.002 A 
HETATM   13  C   UNL     1      26.496  48.359  49.414  1.00  0.00     0.033 A 
HETATM   14  C   UNL     1      25.491  49.197  48.913  1.00  0.00     0.039 A 
HETATM   15  C   UNL     1      24.161  48.782  48.866  1.00  0.00     0.069 A 
HETATM   16  C   UNL     1      23.810  47.504  49.325  1.00  0.00     0.051 A 
ENDROOT
BRANCH   1  17
HETATM   17  C   UNL     1      27.549  43.872  52.434  1.00  0.00    -0.019 A 
HETATM   18  C   UNL     1      27.273  44.699  53.540  1.00  0.00     0.049 A 
HETATM   19  C   UNL     1      28.187  44.819  54.593  1.00  0.00     0.102 A 
HETATM   20  C   UNL     1      29.396  44.100  54.556  1.00  0.00     0.102 A 
HETATM   21  C   UNL     1      29.672  43.277  53.461  1.00  0.00     0.040 A 
HETATM   22  C   UNL     1      28.758  43.164  52.409  1.00  0.00     0.012 A 
BRANCH  19  23
HETATM   23  O   UNL     1      27.967  45.585  55.709  1.00  0.00    -0.353 OA
HETATM   24  C   UNL     1      27.782  46.981  55.524  1.00  0.00     0.210 C 
ENDBRANCH  19  23
BRANCH  20  25
HETATM   25  O   UNL     1      30.227  44.265  55.632  1.00  0.00    -0.348 OA
BRANCH  25  26
HETATM   26  C   UNL     1      31.053  43.169  56.021  1.00  0.00     0.175 C 
BRANCH  26  27
HETATM   27  C   UNL     1      31.788  43.569  57.296  1.00  0.00     0.022 C 
HETATM   28  C   UNL     1      31.052  44.658  58.056  1.00  0.00     0.007 C 
ENDBRANCH  26  27
ENDBRANCH  25  26
ENDBRANCH  20  25
ENDBRANCH   1  17
BRANCH  15  29
HETATM   29  O   UNL     1      23.106  49.518  48.399  1.00  0.00    -0.356 OA
HETATM   30  C   UNL     1      22.938  50.823  48.940  1.00  0.00     0.210 C 
ENDBRANCH  15  29
TORSDOF 6
ENDMDL
MODEL 3
REMARK VINA RESULT:      -7.9      4.208      8.362
REMARK  6 active torsions:
REMARK  status: ('A' for Active; 'I' for Inactive)
REMARK    1  A    between atoms: C_2  and  C_3 
REMARK    2  A    between atoms: C_3  and  O_4 
REMARK    3  A    between atoms: O_4  and  C_5 
REMARK    4  A    between atoms: C_6  and  O_7 
REMARK    5  A    between atoms: C_10  and  C_11 
REMARK    6  A    between atoms: C_25  and  O_26 
ROOT
HETATM    1  C   UNL     1      27.083  42.590  52.169  1.00  0.00     0.269 C 
HETATM    2  N   UNL     1      26.559  43.668  51.253  1.00  0.00    -0.061 N 
HETATM    3  H   UNL     1      27.366  44.189  50.893  1.00  0.00     0.278 HD
HETATM    4  H   UNL     1      26.013  44.332  51.812  1.00  0.00     0.278 HD
HETATM    5  C   UNL     1      25.751  43.148  50.089  1.00  0.00     0.238 C 
HETATM    6  C   UNL     1      26.617  42.266  49.168  1.00  0.00     0.069 C 
HETATM    7  C   UNL     1      27.424  41.309  49.977  1.00  0.00    -0.019 A 
HETATM    8  C   UNL     1      27.632  41.485  51.333  1.00  0.00     0.052 A 
HETATM    9  N   UNL     1      28.398  40.440  51.784  1.00  0.00    -0.356 N 
HETATM   10  H   UNL     1      28.720  40.292  52.734  1.00  0.00     0.166 HD
HETATM   11  C   UNL     1      28.708  39.607  50.731  1.00  0.00     0.043 A 
HETATM   12  C   UNL     1      28.108  40.130  49.585  1.00  0.00     0.002 A 
HETATM   13  C   UNL     1      29.471  38.435  50.710  1.00  0.00     0.033 A 
HETATM   14  C   UNL     1      29.626  37.776  49.483  1.00  0.00     0.039 A 
HETATM   15  C   UNL     1      29.039  38.271  48.319  1.00  0.00     0.069 A 
HETATM   16  C   UNL     1      28.279  39.448  48.364  1.00  0.00     0.051 A 
ENDROOT
BRANCH   1  17
HETATM   17  C   UNL     1      28.078  43.173  53.152  1.00  0.00    -0.019 A 
HETATM   18  C   UNL     1      27.752  44.288  53.948  1.00  0.00     0.049 A 
HETATM   19  C   UNL     1      28.669  44.807  54.869  1.00  0.00     0.102 A 
HETATM   20  C   UNL     1      29.933  44.205  55.013  1.00  0.00     0.102 A 
HETATM   21  C   UNL     1      30.260  43.098  54.226  1.00  0.00     0.040 A 
HETATM   22  C   UNL     1      29.342  42.586  53.304  1.00  0.00     0.012 A 
BRANCH  19  23
HETATM   23  O   UNL     1      28.403  45.871  55.691  1.00  0.00    -0.353 OA
HETATM   24  C   UNL     1      28.082  47.113  55.079  1.00  0.00     0.210 C 
ENDBRANCH  19  23
BRANCH  20  25
HETATM   25  O   UNL     1      30.764  44.768  55.945  1.00  0.00    -0.348 OA
BRANCH  25  26
HETATM   26  C   UNL     1      31.279  43.933  56.981  1.00  0.00     0.175 C 
BRANCH  26  27
HETATM   27  C   UNL     1      31.001  44.620  58.314  1.00  0.00     0.022 C 
HETATM   28  C   UNL     1      30.651  46.087  58.132  1.00  0.00     0.007 C 
ENDBRANCH  26  27
ENDBRANCH  25  26
ENDBRANCH  20  25
ENDBRANCH   1  17
BRANCH  15  29
HETATM   29  O   UNL     1      29.127  37.710  47.074  1.00  0.00    -0.356 OA
HETATM   30  C   UNL     1      28.130  36.756  46.723  1.00  0.00     0.210 C 
ENDBRANCH  15  29
TORSDOF 6
ENDMDL
MODEL 4
REMARK VINA RESULT:      -7.9      3.658      6.701
REMARK  6 active torsions:
REMARK  status: ('A' for Active; 'I' for Inactive)
REMARK    1  A    between atoms: C_2  and  C_3 
REMARK    2  A    between atoms: C_3  and  O_4 
REMARK    3  A    between atoms: O_4  and  C_5 
REMARK    4  A    between atoms: C_6  and  O_7 
REMARK    5  A    between atoms: C_10  and  C_11 
REMARK    6  A    between atoms: C_25  and  O_26 
ROOT
HETATM    1  C   UNL     1      23.520  49.060  48.395  1.00  0.00     0.269 C 
HETATM    2  N   UNL     1      24.502  50.205  48.367  1.00  0.00    -0.061 N 
HETATM    3  H   UNL     1      24.455  50.676  49.277  1.00  0.00     0.278 HD
HETATM    4  H   UNL     1      24.185  50.888  47.671  1.00  0.00     0.278 HD
HETATM    5  C   UNL     1      25.929  49.787  48.103  1.00  0.00     0.238 C 
HETATM    6  C   UNL     1      26.452  48.875  49.230  1.00  0.00     0.069 C 
HETATM    7  C   UNL     1      25.440  47.833  49.566  1.00  0.00    -0.019 A 
HETATM    8  C   UNL     1      24.114  47.946  49.187  1.00  0.00     0.052 A 
HETATM    9  N   UNL     1      23.449  46.832  49.633  1.00  0.00    -0.356 N 
HETATM   10  H   UNL     1      22.464  46.628  49.513  1.00  0.00     0.166 HD
HETATM   11  C   UNL     1      24.323  46.015  50.316  1.00  0.00     0.043 A 
HETATM   12  C   UNL     1      25.581  46.620  50.288  1.00  0.00     0.002 A 
HETATM   13  C   UNL     1      24.095  44.791  50.953  1.00  0.00     0.033 A 
HETATM   14  C   UNL     1      25.181  44.165  51.579  1.00  0.00     0.039 A 
HETATM   15  C   UNL     1      26.450  44.742  51.569  1.00  0.00     0.069 A 
HETATM   16  C   UNL     1      26.656  45.971  50.924  1.00  0.00     0.051 A 
ENDROOT
BRANCH   1  17
HETATM   17  C   UNL     1      22.175  49.533  48.907  1.00  0.00    -0.019 A 
HETATM   18  C   UNL     1      20.981  48.885  48.535  1.00  0.00     0.049 A 
HETATM   19  C   UNL     1      19.745  49.316  49.029  1.00  0.00     0.102 A 
HETATM   20  C   UNL     1      19.688  50.403  49.919  1.00  0.00     0.102 A 
HETATM   21  C   UNL     1      20.870  51.047  50.294  1.00  0.00     0.040 A 
HETATM   22  C   UNL     1      22.102  50.617  49.793  1.00  0.00     0.012 A 
BRANCH  19  23
HETATM   23  O   UNL     1      18.552  48.712  48.727  1.00  0.00    -0.353 OA
HETATM   24  C   UNL     1      18.521  47.291  48.698  1.00  0.00     0.210 C 
ENDBRANCH  19  23
BRANCH  20  25
HETATM   25  O   UNL     1      18.440  50.751  50.365  1.00  0.00    -0.348 OA
BRANCH  25  26
HETATM   26  C   UNL     1      17.894  51.998  49.939  1.00  0.00     0.175 C 
BRANCH  26  27
HETATM   27  C   UNL     1      16.472  51.743  49.452  1.00  0.00     0.022 C 
HETATM   28  C   UNL     1      15.495  52.772  49.994  1.00  0.00     0.007 C 
ENDBRANCH  26  27
ENDBRANCH  25  26
ENDBRANCH  20  25
ENDBRANCH   1  17
BRANCH  15  29
HETATM   29  O   UNL     1      27.575  44.219  52.147  1.00  0.00    -0.356 OA
HETATM   30  C   UNL     1      27.774  44.483  53.531  1.00  0.00     0.210 C 
ENDBRANCH  15  29
TORSDOF 6
ENDMDL
MODEL 5
REMARK VINA RESULT:      -7.9      1.717      2.884
REMARK  6 active torsions:
REMARK  status: ('A' for Active; 'I' for Inactive)
REMARK    1  A    between atoms: C_2  and  C_3 
REMARK    2  A    between atoms: C_3  and  O_4 
REMARK    3  A    between atoms: O_4  and  C_5 
REMARK    4  A    between atoms: C_6  and  O_7 
REMARK    5  A    between atoms: C_10  and  C_11 
REMARK    6  A    between atoms: C_25  and  O_26 
ROOT
HETATM    1  C   UNL     1      24.657  45.186  50.761  1.00  0.00     0.269 C 
HETATM    2  N   UNL     1      25.244  44.106  49.886  1.00  0.00    -0.061 N 
HETATM    3  H   UNL     1      25.990  44.531  49.325  1.00  0.00     0.278 HD
HETATM    4  H   UNL     1      24.524  43.798  49.224  1.00  0.00     0.278 HD
HETATM    5  C   UNL     1      25.811  42.934  50.651  1.00  0.00     0.238 C 
HETATM    6  C   UNL     1      26.991  43.375  51.538  1.00  0.00     0.069 C 
HETATM    7  C   UNL     1      26.647  44.625  52.275  1.00  0.00    -0.019 A 
HETATM    8  C   UNL     1      25.592  45.436  51.895  1.00  0.00     0.052 A 
HETATM    9  N   UNL     1      25.531  46.490  52.770  1.00  0.00    -0.356 N 
HETATM   10  H   UNL     1      24.866  47.255  52.750  1.00  0.00     0.166 HD
HETATM   11  C   UNL     1      26.548  46.383  53.694  1.00  0.00     0.043 A 
HETATM   12  C   UNL     1      27.263  45.220  53.405  1.00  0.00     0.002 A 
HETATM   13  C   UNL     1      26.885  47.226  54.759  1.00  0.00     0.033 A 
HETATM   14  C   UNL     1      27.983  46.871  55.552  1.00  0.00     0.039 A 
HETATM   15  C   UNL     1      28.719  45.715  55.291  1.00  0.00     0.069 A 
HETATM   16  C   UNL     1      28.363  44.886  54.219  1.00  0.00     0.051 A 
ENDROOT
BRANCH   1  17
HETATM   17  C   UNL     1      24.344  46.418  49.937  1.00  0.00    -0.019 A 
HETATM   18  C   UNL     1      23.149  46.518  49.197  1.00  0.00     0.049 A 
HETATM   19  C   UNL     1      22.858  47.668  48.455  1.00  0.00     0.102 A 
HETATM   20  C   UNL     1      23.762  48.746  48.452  1.00  0.00     0.102 A 
HETATM   21  C   UNL     1      24.947  48.652  49.186  1.00  0.00     0.040 A 
HETATM   22  C   UNL     1      25.236  47.499  49.922  1.00  0.00     0.012 A 
BRANCH  19  23
HETATM   23  O   UNL     1      21.702  47.839  47.737  1.00  0.00    -0.353 OA
HETATM   24  C   UNL     1      20.512  47.264  48.259  1.00  0.00     0.210 C 
ENDBRANCH  19  23
BRANCH  20  25
HETATM   25  O   UNL     1      23.393  49.838  47.710  1.00  0.00    -0.348 OA
BRANCH  25  26
HETATM   26  C   UNL     1      23.087  51.049  48.399  1.00  0.00     0.175 C 
BRANCH  26  27
HETATM   27  C   UNL     1      21.569  51.197  48.429  1.00  0.00     0.022 C 
HETATM   28  C   UNL     1      20.993  50.842  49.789  1.00  0.00     0.007 C 
ENDBRANCH  26  27
ENDBRANCH  25  26
ENDBRANCH  20  25
ENDBRANCH   1  17
BRANCH  15  29
HETATM   29  O   UNL     1      29.805  45.278  56.001  1.00  0.00    -0.356 OA
HETATM   30  C   UNL     1      30.385  44.042  55.597  1.00  0.00     0.210 C 
ENDBRANCH  15  29
TORSDOF 6
ENDMDL
MODEL 6
REMARK VINA RESULT:      -7.3      2.672      8.764
REMARK  6 active torsions:
REMARK  status: ('A' for Active; 'I' for Inactive)
REMARK    1  A    between atoms: C_2  and  C_3 
REMARK    2  A    between atoms: C_3  and  O_4 
REMARK    3  A    between atoms: O_4  and  C_5 
REMARK    4  A    between atoms: C_6  and  O_7 
REMARK    5  A    between atoms: C_10  and  C_11 
REMARK    6  A    between atoms: C_25  and  O_26 
ROOT
HETATM    1  C   UNL     1      24.749  45.646  49.730  1.00  0.00     0.269 C 
HETATM    2  N   UNL     1      23.794  44.482  49.634  1.00  0.00    -0.061 N 
HETATM    3  H   UNL     1      23.213  44.486  50.479  1.00  0.00     0.278 HD
HETATM    4  H   UNL     1      24.338  43.613  49.661  1.00  0.00     0.278 HD
HETATM    5  C   UNL     1      22.897  44.519  48.420  1.00  0.00     0.238 C 
HETATM    6  C   UNL     1      21.976  45.754  48.455  1.00  0.00     0.069 C 
HETATM    7  C   UNL     1      22.755  46.972  48.821  1.00  0.00    -0.019 A 
HETATM    8  C   UNL     1      24.004  46.897  49.410  1.00  0.00     0.052 A 
HETATM    9  N   UNL     1      24.456  48.176  49.610  1.00  0.00    -0.356 N 
HETATM   10  H   UNL     1      25.339  48.447  50.028  1.00  0.00     0.166 HD
HETATM   11  C   UNL     1      23.504  49.075  49.182  1.00  0.00     0.043 A 
HETATM   12  C   UNL     1      22.425  48.345  48.681  1.00  0.00     0.002 A 
HETATM   13  C   UNL     1      23.519  50.474  49.200  1.00  0.00     0.033 A 
HETATM   14  C   UNL     1      22.400  51.147  48.691  1.00  0.00     0.039 A 
HETATM   15  C   UNL     1      21.306  50.447  48.183  1.00  0.00     0.069 A 
HETATM   16  C   UNL     1      21.314  49.045  48.175  1.00  0.00     0.051 A 
ENDROOT
BRANCH   1  17
HETATM   17  C   UNL     1      25.425  45.661  51.086  1.00  0.00    -0.019 A 
HETATM   18  C   UNL     1      26.246  44.596  51.505  1.00  0.00     0.049 A 
HETATM   19  C   UNL     1      26.883  44.627  52.751  1.00  0.00     0.102 A 
HETATM   20  C   UNL     1      26.714  45.739  53.596  1.00  0.00     0.102 A 
HETATM   21  C   UNL     1      25.903  46.798  53.183  1.00  0.00     0.040 A 
HETATM   22  C   UNL     1      25.264  46.760  51.940  1.00  0.00     0.012 A 
BRANCH  19  23
HETATM   23  O   UNL     1      27.715  43.636  53.205  1.00  0.00    -0.353 OA
HETATM   24  C   UNL     1      28.736  43.180  52.328  1.00  0.00     0.210 C 
ENDBRANCH  19  23
BRANCH  20  25
HETATM   25  O   UNL     1      27.384  45.693  54.790  1.00  0.00    -0.348 OA
BRANCH  25  26
HETATM   26  C   UNL     1      28.466  46.601  54.991  1.00  0.00     0.175 C 
BRANCH  26  27
HETATM   27  C   UNL     1      29.386  46.002  56.050  1.00  0.00     0.022 C 
HETATM   28  C   UNL     1      30.028  44.710  55.576  1.00  0.00     0.007 C 
ENDBRANCH  26  27
ENDBRANCH  25  26
ENDBRANCH  20  25
ENDBRANCH   1  17
BRANCH  15  29
HETATM   29  O   UNL     1      20.168  51.004  47.664  1.00  0.00    -0.356 OA
HETATM   30  C   UNL     1      19.513  51.990  48.454  1.00  0.00     0.210 C 
ENDBRANCH  15  29
TORSDOF 6
ENDMDL
MODEL 7
REMARK VINA RESULT:      -7.3      1.935      2.275
REMARK  6 active torsions:
REMARK  status: ('A' for Active; 'I' for Inactive)
REMARK    1  A    between atoms: C_2  and  C_3 
REMARK    2  A    between atoms: C_3  and  O_4 
REMARK    3  A    between atoms: O_4  and  C_5 
REMARK    4  A    between atoms: C_6  and  O_7 
REMARK    5  A    between atoms: C_10  and  C_11 
REMARK    6  A    between atoms: C_25  and  O_26 
ROOT
HETATM    1  C   UNL     1      25.754  42.916  51.327  1.00  0.00     0.269 C 
HETATM    2  N   UNL     1      26.544  42.080  50.350  1.00  0.00    -0.061 N 
HETATM    3  H   UNL     1      27.071  42.721  49.747  1.00  0.00     0.278 HD
HETATM    4  H   UNL     1      25.886  41.584  49.740  1.00  0.00     0.278 HD
HETATM    5  C   UNL     1      27.507  41.116  51.001  1.00  0.00     0.238 C 
HETATM    6  C   UNL     1      28.585  41.872  51.801  1.00  0.00     0.069 C 
HETATM    7  C   UNL     1      27.961  42.945  52.627  1.00  0.00    -0.019 A 
HETATM    8  C   UNL     1      26.681  43.410  52.384  1.00  0.00     0.052 A 
HETATM    9  N   UNL     1      26.398  44.379  53.313  1.00  0.00    -0.356 N 
HETATM   10  H   UNL     1      25.538  44.909  53.390  1.00  0.00     0.166 HD
HETATM   11  C   UNL     1      27.488  44.563  54.135  1.00  0.00     0.043 A 
HETATM   12  C   UNL     1      28.484  43.674  53.726  1.00  0.00     0.002 A 
HETATM   13  C   UNL     1      27.664  45.445  55.207  1.00  0.00     0.033 A 
HETATM   14  C   UNL     1      28.892  45.419  55.881  1.00  0.00     0.039 A 
HETATM   15  C   UNL     1      29.907  44.544  55.498  1.00  0.00     0.069 A 
HETATM   16  C   UNL     1      29.708  43.668  54.421  1.00  0.00     0.051 A 
ENDROOT
BRANCH   1  17
HETATM   17  C   UNL     1      25.009  44.014  50.596  1.00  0.00    -0.019 A 
HETATM   18  C   UNL     1      25.568  45.296  50.436  1.00  0.00     0.049 A 
HETATM   19  C   UNL     1      24.882  46.298  49.742  1.00  0.00     0.102 A 
HETATM   20  C   UNL     1      23.619  46.025  49.185  1.00  0.00     0.102 A 
HETATM   21  C   UNL     1      23.061  44.753  49.340  1.00  0.00     0.040 A 
HETATM   22  C   UNL     1      23.749  43.757  50.038  1.00  0.00     0.012 A 
BRANCH  19  23
HETATM   23  O   UNL     1      25.383  47.557  49.528  1.00  0.00    -0.353 OA
HETATM   24  C   UNL     1      26.790  47.730  49.622  1.00  0.00     0.210 C 
ENDBRANCH  19  23
BRANCH  20  25
HETATM   25  O   UNL     1      23.022  47.058  48.511  1.00  0.00    -0.348 OA
BRANCH  25  26
HETATM   26  C   UNL     1      21.598  47.132  48.515  1.00  0.00     0.175 C 
BRANCH  26  27
HETATM   27  C   UNL     1      21.125  47.089  47.065  1.00  0.00     0.022 C 
HETATM   28  C   UNL     1      20.476  45.759  46.721  1.00  0.00     0.007 C 
ENDBRANCH  26  27
ENDBRANCH  25  26
ENDBRANCH  20  25
ENDBRANCH   1  17
BRANCH  15  29
HETATM   29  O   UNL     1      31.140  44.437  56.085  1.00  0.00    -0.356 OA
HETATM   30  C   UNL     1      31.393  43.262  56.847  1.00  0.00     0.210 C 
ENDBRANCH  15  29
TORSDOF 6
ENDMDL
MODEL 8
REMARK VINA RESULT:      -7.2      3.570      6.523
REMARK  6 active torsions:
REMARK  status: ('A' for Active; 'I' for Inactive)
REMARK    1  A    between atoms: C_2  and  C_3 
REMARK    2  A    between atoms: C_3  and  O_4 
REMARK    3  A    between atoms: O_4  and  C_5 
REMARK    4  A    between atoms: C_6  and  O_7 
REMARK    5  A    between atoms: C_10  and  C_11 
REMARK    6  A    between atoms: C_25  and  O_26 
ROOT
HETATM    1  C   UNL     1      26.541  44.059  50.725  1.00  0.00     0.269 C 
HETATM    2  N   UNL     1      25.153  44.622  50.905  1.00  0.00    -0.061 N 
HETATM    3  H   UNL     1      24.611  43.944  51.451  1.00  0.00     0.278 HD
HETATM    4  H   UNL     1      24.704  44.678  49.985  1.00  0.00     0.278 HD
HETATM    5  C   UNL     1      25.116  45.960  51.605  1.00  0.00     0.238 C 
HETATM    6  C   UNL     1      25.659  45.842  53.043  1.00  0.00     0.069 C 
HETATM    7  C   UNL     1      26.922  45.049  53.057  1.00  0.00    -0.019 A 
HETATM    8  C   UNL     1      27.293  44.238  51.999  1.00  0.00     0.052 A 
HETATM    9  N   UNL     1      28.496  43.657  52.311  1.00  0.00    -0.356 N 
HETATM   10  H   UNL     1      29.022  43.009  51.736  1.00  0.00     0.166 HD
HETATM   11  C   UNL     1      28.893  44.064  53.567  1.00  0.00     0.043 A 
HETATM   12  C   UNL     1      27.922  44.938  54.057  1.00  0.00     0.002 A 
HETATM   13  C   UNL     1      30.034  43.723  54.300  1.00  0.00     0.033 A 
HETATM   14  C   UNL     1      30.190  44.293  55.571  1.00  0.00     0.039 A 
HETATM   15  C   UNL     1      29.239  45.171  56.090  1.00  0.00     0.069 A 
HETATM   16  C   UNL     1      28.102  45.497  55.337  1.00  0.00     0.051 A 
ENDROOT
BRANCH   1  17
HETATM   17  C   UNL     1      26.468  42.623  50.247  1.00  0.00    -0.019 A 
HETATM   18  C   UNL     1      26.173  42.313  48.905  1.00  0.00     0.049 A 
HETATM   19  C   UNL     1      26.128  40.985  48.468  1.00  0.00     0.102 A 
HETATM   20  C   UNL     1      26.390  39.941  49.373  1.00  0.00     0.102 A 
HETATM   21  C   UNL     1      26.685  40.244  50.705  1.00  0.00     0.040 A 
HETATM   22  C   UNL     1      26.724  41.572  51.139  1.00  0.00     0.012 A 
BRANCH  19  23
HETATM   23  O   UNL     1      25.874  40.618  47.171  1.00  0.00    -0.353 OA
HETATM   24  C   UNL     1      24.766  41.224  46.521  1.00  0.00     0.210 C 
ENDBRANCH  19  23
BRANCH  20  25
HETATM   25  O   UNL     1      26.338  38.672  48.859  1.00  0.00    -0.348 OA
BRANCH  25  26
HETATM   26  C   UNL     1      27.306  37.723  49.306  1.00  0.00     0.175 C 
BRANCH  26  27
HETATM   27  C   UNL     1      28.587  37.955  48.512  1.00  0.00     0.022 C 
HETATM   28  C   UNL     1      29.767  38.256  49.419  1.00  0.00     0.007 C 
ENDBRANCH  26  27
ENDBRANCH  25  26
ENDBRANCH  20  25
ENDBRANCH   1  17
BRANCH  15  29
HETATM   29  O   UNL     1      29.293  45.780  57.314  1.00  0.00    -0.356 OA
HETATM   30  C   UNL     1      30.488  45.613  58.069  1.00  0.00     0.210 C 
ENDBRANCH  15  29
TORSDOF 6
ENDMDL
MODEL 9
REMARK VINA RESULT:      -7.1     16.384     18.948
REMARK  6 active torsions:
REMARK  status: ('A' for Active; 'I' for Inactive)
REMARK    1  A    between atoms: C_2  and  C_3 
REMARK    2  A    between atoms: C_3  and  O_4 
REMARK    3  A    between atoms: O_4  and  C_5 
REMARK    4  A    between atoms: C_6  and  O_7 
REMARK    5  A    between atoms: C_10  and  C_11 
REMARK    6  A    between atoms: C_25  and  O_26 
ROOT
HETATM    1  C   UNL     1      41.063  47.267  64.482  1.00  0.00     0.269 C 
HETATM    2  N   UNL     1      42.407  47.018  65.121  1.00  0.00    -0.061 N 
HETATM    3  H   UNL     1      42.242  46.742  66.095  1.00  0.00     0.278 HD
HETATM    4  H   UNL     1      42.920  47.905  65.155  1.00  0.00     0.278 HD
HETATM    5  C   UNL     1      43.225  45.947  64.439  1.00  0.00     0.238 C 
HETATM    6  C   UNL     1      42.517  44.581  64.518  1.00  0.00     0.069 C 
HETATM    7  C   UNL     1      41.074  44.724  64.172  1.00  0.00    -0.019 A 
HETATM    8  C   UNL     1      40.435  45.951  64.175  1.00  0.00     0.052 A 
HETATM    9  N   UNL     1      39.129  45.750  63.807  1.00  0.00    -0.356 N 
HETATM   10  H   UNL     1      38.409  46.458  63.721  1.00  0.00     0.166 HD
HETATM   11  C   UNL     1      38.911  44.407  63.590  1.00  0.00     0.043 A 
HETATM   12  C   UNL     1      40.117  43.740  63.812  1.00  0.00     0.002 A 
HETATM   13  C   UNL     1      37.742  43.737  63.215  1.00  0.00     0.033 A 
HETATM   14  C   UNL     1      37.805  42.345  63.061  1.00  0.00     0.039 A 
HETATM   15  C   UNL     1      38.994  41.649  63.275  1.00  0.00     0.069 A 
HETATM   16  C   UNL     1      40.154  42.342  63.650  1.00  0.00     0.051 A 
ENDROOT
BRANCH   1  17
HETATM   17  C   UNL     1      40.219  48.163  65.365  1.00  0.00    -0.019 A 
HETATM   18  C   UNL     1      39.999  47.856  66.722  1.00  0.00     0.049 A 
HETATM   19  C   UNL     1      39.235  48.700  67.535  1.00  0.00     0.102 A 
HETATM   20  C   UNL     1      38.686  49.879  67.000  1.00  0.00     0.102 A 
HETATM   21  C   UNL     1      38.904  50.189  65.655  1.00  0.00     0.040 A 
HETATM   22  C   UNL     1      39.663  49.340  64.845  1.00  0.00     0.012 A 
BRANCH  19  23
HETATM   23  O   UNL     1      39.006  48.471  68.868  1.00  0.00    -0.353 OA
HETATM   24  C   UNL     1      38.183  47.366  69.214  1.00  0.00     0.210 C 
ENDBRANCH  19  23
BRANCH  20  25
HETATM   25  O   UNL     1      37.963  50.655  67.868  1.00  0.00    -0.348 OA
BRANCH  25  26
HETATM   26  C   UNL     1      38.471  51.946  68.201  1.00  0.00     0.175 C 
BRANCH  26  27
HETATM   27  C   UNL     1      37.418  52.976  67.807  1.00  0.00     0.022 C 
HETATM   28  C   UNL     1      37.739  53.632  66.475  1.00  0.00     0.007 C 
ENDBRANCH  26  27
ENDBRANCH  25  26
ENDBRANCH  20  25
ENDBRANCH   1  17
BRANCH  15  29
HETATM   29  O   UNL     1      39.165  40.296  63.153  1.00  0.00    -0.356 OA
HETATM   30  C   UNL     1      39.237  39.543  64.359  1.00  0.00     0.210 C 
ENDBRANCH  15  29
TORSDOF 6
ENDMDL
MODEL 10
REMARK VINA RESULT:      -7.1     12.539     15.333
REMARK  6 active torsions:
REMARK  status: ('A' for Active; 'I' for Inactive)
REMARK    1  A    between atoms: C_2  and  C_3 
REMARK    2  A    between atoms: C_3  and  O_4 
REMARK    3  A    between atoms: O_4  and  C_5 
REMARK    4  A    between atoms: C_6  and  O_7 
REMARK    5  A    between atoms: C_10  and  C_11 
REMARK    6  A    between atoms: C_25  and  O_26 
ROOT
HETATM    1  C   UNL     1      34.573  50.757  41.300  1.00  0.00     0.269 C 
HETATM    2  N   UNL     1      34.579  49.373  41.901  1.00  0.00    -0.061 N 
HETATM    3  H   UNL     1      34.394  49.469  42.905  1.00  0.00     0.278 HD
HETATM    4  H   UNL     1      35.525  48.987  41.818  1.00  0.00     0.278 HD
HETATM    5  C   UNL     1      33.559  48.436  41.301  1.00  0.00     0.238 C 
HETATM    6  C   UNL     1      32.127  48.945  41.556  1.00  0.00     0.069 C 
HETATM    7  C   UNL     1      32.036  50.404  41.261  1.00  0.00    -0.019 A 
HETATM    8  C   UNL     1      33.158  51.206  41.163  1.00  0.00     0.052 A 
HETATM    9  N   UNL     1      32.744  52.482  40.876  1.00  0.00    -0.356 N 
HETATM   10  H   UNL     1      33.336  53.295  40.748  1.00  0.00     0.166 HD
HETATM   11  C   UNL     1      31.368  52.518  40.813  1.00  0.00     0.043 A 
HETATM   12  C   UNL     1      30.898  51.226  41.051  1.00  0.00     0.002 A 
HETATM   13  C   UNL     1      30.510  53.594  40.564  1.00  0.00     0.033 A 
HETATM   14  C   UNL     1      29.131  53.344  40.556  1.00  0.00     0.039 A 
HETATM   15  C   UNL     1      28.629  52.064  40.789  1.00  0.00     0.069 A 
HETATM   16  C   UNL     1      29.508  51.001  41.037  1.00  0.00     0.051 A 
ENDROOT
BRANCH   1  17
HETATM   17  C   UNL     1      35.440  51.690  42.120  1.00  0.00    -0.019 A 
HETATM   18  C   UNL     1      36.478  52.434  41.526  1.00  0.00     0.049 A 
HETATM   19  C   UNL     1      37.262  53.309  42.287  1.00  0.00     0.102 A 
HETATM   20  C   UNL     1      37.007  53.460  43.662  1.00  0.00     0.102 A 
HETATM   21  C   UNL     1      35.977  52.726  44.255  1.00  0.00     0.040 A 
HETATM   22  C   UNL     1      35.200  51.849  43.492  1.00  0.00     0.012 A 
BRANCH  19  23
HETATM   23  O   UNL     1      38.268  54.080  41.764  1.00  0.00    -0.353 OA
HETATM   24  C   UNL     1      38.029  54.716  40.516  1.00  0.00     0.210 C 
ENDBRANCH  19  23
BRANCH  20  25
HETATM   25  O   UNL     1      37.811  54.347  44.329  1.00  0.00    -0.348 OA
BRANCH  25  26
HETATM   26  C   UNL     1      38.559  53.870  45.447  1.00  0.00     0.175 C 
BRANCH  26  27
HETATM   27  C   UNL     1      38.083  54.627  46.682  1.00  0.00     0.022 C 
HETATM   28  C   UNL     1      38.537  53.955  47.967  1.00  0.00     0.007 C 
ENDBRANCH  26  27
ENDBRANCH  25  26
ENDBRANCH  20  25
ENDBRANCH   1  17
BRANCH  15  29
HETATM   29  O   UNL     1      27.306  51.711  40.804  1.00  0.00    -0.356 OA
HETATM   30  C   UNL     1      26.962  50.469  40.202  1.00  0.00     0.210 C 
ENDBRANCH  15  29
TORSDOF 6
ENDMDL
