MODEL 1
REMARK VINA RESULT:      -8.9      0.000      0.000
REMARK  8 active torsions:
REMARK  status: ('A' for Active; 'I' for Inactive)
REMARK    1  A    between atoms: C_2  and  C_3 
REMARK    2  A    between atoms: C_3  and  O_4 
REMARK    3  A    between atoms: O_4  and  C_5 
REMARK    4  A    between atoms: C_8  and  C_9 
REMARK    5  A    between atoms: C_13  and  C_14 
REMARK       I    between atoms: C_14  and  N_15 
REMARK    6  A    between atoms: N_15  and  N_16 
REMARK    7  A    between atoms: C_17  and  C_18 
REMARK    8  A    between atoms: C_20  and  O_21 
ROOT
HETATM    1  C   UNL     1      25.867  45.807  51.995  1.00  0.00     0.089 A 
HETATM    2  N   UNL     1      24.841  45.035  51.604  1.00  0.00    -0.174 NA
HETATM    3  N   UNL     1      24.138  45.805  50.758  1.00  0.00    -0.272 N 
HETATM    4  H   UNL     1      23.310  45.421  50.311  1.00  0.00     0.189 HD
HETATM    5  C   UNL     1      24.640  47.068  50.601  1.00  0.00     0.121 A 
HETATM    6  C   UNL     1      25.767  47.094  51.397  1.00  0.00     0.071 A 
ENDROOT
BRANCH   5   7
HETATM    7  C   UNL     1      24.010  48.038  49.737  1.00  0.00     0.289 C 
HETATM    8  N   UNL     1      22.692  47.743  49.424  1.00  0.00    -0.242 N 
HETATM    9  H   UNL     1      22.269  46.891  49.766  1.00  0.00     0.192 HD
HETATM   10  O   UNL     1      24.620  49.024  49.334  1.00  0.00    -0.264 OA
BRANCH   8  11
HETATM   11  N   UNL     1      21.939  48.597  48.672  1.00  0.00    -0.184 NA
HETATM   12  C   UNL     1      20.990  49.201  49.315  1.00  0.00     0.150 C 
BRANCH  12  13
HETATM   13  C   UNL     1      20.100  50.180  48.663  1.00  0.00    -0.014 A 
HETATM   14  C   UNL     1      19.406  49.848  47.493  1.00  0.00     0.049 A 
HETATM   15  C   UNL     1      18.584  50.796  46.884  1.00  0.00     0.069 A 
HETATM   16  C   UNL     1      18.462  52.067  47.456  1.00  0.00     0.037 A 
HETATM   17  C   UNL     1      19.153  52.397  48.623  1.00  0.00     0.004 A 
HETATM   18  C   UNL     1      19.977  51.451  49.231  1.00  0.00     0.013 A 
BRANCH  15  19
HETATM   19  O   UNL     1      17.856  50.613  45.741  1.00  0.00    -0.356 OA
HETATM   20  C   UNL     1      16.694  51.419  45.587  1.00  0.00     0.210 C 
ENDBRANCH  15  19
ENDBRANCH  12  13
ENDBRANCH   8  11
ENDBRANCH   5   7
BRANCH   1  21
HETATM   21  C   UNL     1      26.900  45.332  52.919  1.00  0.00    -0.005 A 
HETATM   22  C   UNL     1      27.654  44.188  52.622  1.00  0.00     0.016 A 
HETATM   23  C   UNL     1      28.668  43.750  53.482  1.00  0.00     0.037 A 
HETATM   24  C   UNL     1      28.947  44.453  54.653  1.00  0.00     0.068 A 
HETATM   25  C   UNL     1      28.183  45.579  54.968  1.00  0.00     0.037 A 
HETATM   26  C   UNL     1      27.168  46.017  54.110  1.00  0.00     0.016 A 
BRANCH  24  27
HETATM   27  O   UNL     1      29.922  44.140  55.560  1.00  0.00    -0.351 OA
BRANCH  27  28
HETATM   28  C   UNL     1      30.299  45.167  56.477  1.00  0.00     0.175 C 
BRANCH  28  29
HETATM   29  C   UNL     1      31.065  44.523  57.628  1.00  0.00     0.022 C 
HETATM   30  C   UNL     1      31.783  43.260  57.187  1.00  0.00     0.007 C 
ENDBRANCH  28  29
ENDBRANCH  27  28
ENDBRANCH  24  27
ENDBRANCH   1  21
TORSDOF 8
ENDMDL
MODEL 2
REMARK VINA RESULT:      -8.4      1.872      2.149
REMARK  8 active torsions:
REMARK  status: ('A' for Active; 'I' for Inactive)
REMARK    1  A    between atoms: C_2  and  C_3 
REMARK    2  A    between atoms: C_3  and  O_4 
REMARK    3  A    between atoms: O_4  and  C_5 
REMARK    4  A    between atoms: C_8  and  C_9 
REMARK    5  A    between atoms: C_13  and  C_14 
REMARK       I    between atoms: C_14  and  N_15 
REMARK    6  A    between atoms: N_15  and  N_16 
REMARK    7  A    between atoms: C_17  and  C_18 
REMARK    8  A    between atoms: C_20  and  O_21 
ROOT
HETATM    1  C   UNL     1      25.651  46.990  50.832  1.00  0.00     0.089 A 
HETATM    2  N   UNL     1      26.290  47.986  50.198  1.00  0.00    -0.174 NA
HETATM    3  N   UNL     1      25.337  48.591  49.470  1.00  0.00    -0.272 N 
HETATM    4  H   UNL     1      25.585  49.402  48.909  1.00  0.00     0.189 HD
HETATM    5  C   UNL     1      24.102  48.014  49.570  1.00  0.00     0.121 A 
HETATM    6  C   UNL     1      24.280  46.967  50.452  1.00  0.00     0.071 A 
ENDROOT
BRANCH   5   7
HETATM    7  C   UNL     1      22.960  48.523  48.850  1.00  0.00     0.289 C 
HETATM    8  N   UNL     1      21.937  48.981  49.668  1.00  0.00    -0.242 N 
HETATM    9  H   UNL     1      22.020  48.906  50.672  1.00  0.00     0.192 HD
HETATM   10  O   UNL     1      22.930  48.534  47.623  1.00  0.00    -0.264 OA
BRANCH   8  11
HETATM   11  N   UNL     1      20.817  49.555  49.140  1.00  0.00    -0.184 NA
HETATM   12  C   UNL     1      19.962  49.988  50.010  1.00  0.00     0.150 C 
BRANCH  12  13
HETATM   13  C   UNL     1      18.711  50.662  49.613  1.00  0.00    -0.014 A 
HETATM   14  C   UNL     1      17.691  49.953  48.968  1.00  0.00     0.049 A 
HETATM   15  C   UNL     1      16.524  50.614  48.586  1.00  0.00     0.069 A 
HETATM   16  C   UNL     1      16.389  51.980  48.858  1.00  0.00     0.037 A 
HETATM   17  C   UNL     1      17.406  52.686  49.504  1.00  0.00     0.004 A 
HETATM   18  C   UNL     1      18.573  52.027  49.883  1.00  0.00     0.013 A 
BRANCH  15  19
HETATM   19  O   UNL     1      15.454  50.053  47.945  1.00  0.00    -0.356 OA
HETATM   20  C   UNL     1      15.494  48.645  47.745  1.00  0.00     0.210 C 
ENDBRANCH  15  19
ENDBRANCH  12  13
ENDBRANCH   8  11
ENDBRANCH   5   7
BRANCH   1  21
HETATM   21  C   UNL     1      26.333  46.084  51.758  1.00  0.00    -0.005 A 
HETATM   22  C   UNL     1      26.889  44.880  51.302  1.00  0.00     0.016 A 
HETATM   23  C   UNL     1      27.575  44.027  52.175  1.00  0.00     0.037 A 
HETATM   24  C   UNL     1      27.720  44.366  53.519  1.00  0.00     0.068 A 
HETATM   25  C   UNL     1      27.146  45.550  53.986  1.00  0.00     0.037 A 
HETATM   26  C   UNL     1      26.458  46.404  53.115  1.00  0.00     0.016 A 
BRANCH  24  27
HETATM   27  O   UNL     1      28.382  43.630  54.463  1.00  0.00    -0.351 OA
BRANCH  27  28
HETATM   28  C   UNL     1      29.479  44.265  55.118  1.00  0.00     0.175 C 
BRANCH  28  29
HETATM   29  C   UNL     1      30.593  43.239  55.290  1.00  0.00     0.022 C 
HETATM   30  C   UNL     1      31.341  43.435  56.597  1.00  0.00     0.007 C 
ENDBRANCH  28  29
ENDBRANCH  27  28
ENDBRANCH  24  27
ENDBRANCH   1  21
TORSDOF 8
ENDMDL
MODEL 3
REMARK VINA RESULT:      -8.4      1.848     11.852
REMARK  8 active torsions:
REMARK  status: ('A' for Active; 'I' for Inactive)
REMARK    1  A    between atoms: C_2  and  C_3 
REMARK    2  A    between atoms: C_3  and  O_4 
REMARK    3  A    between atoms: O_4  and  C_5 
REMARK    4  A    between atoms: C_8  and  C_9 
REMARK    5  A    between atoms: C_13  and  C_14 
REMARK       I    between atoms: C_14  and  N_15 
REMARK    6  A    between atoms: N_15  and  N_16 
REMARK    7  A    between atoms: C_17  and  C_18 
REMARK    8  A    between atoms: C_20  and  O_21 
ROOT
HETATM    1  C   UNL     1      22.455  50.093  48.179  1.00  0.00     0.089 A 
HETATM    2  N   UNL     1      23.422  50.470  47.327  1.00  0.00    -0.174 NA
HETATM    3  N   UNL     1      24.528  49.851  47.773  1.00  0.00    -0.272 N 
HETATM    4  H   UNL     1      25.400  49.974  47.267  1.00  0.00     0.189 HD
HETATM    5  C   UNL     1      24.338  49.109  48.905  1.00  0.00     0.121 A 
HETATM    6  C   UNL     1      22.994  49.249  49.191  1.00  0.00     0.071 A 
ENDROOT
BRANCH   5   7
HETATM    7  C   UNL     1      25.415  48.382  49.533  1.00  0.00     0.289 C 
HETATM    8  N   UNL     1      25.001  47.495  50.515  1.00  0.00    -0.242 N 
HETATM    9  H   UNL     1      24.022  47.430  50.758  1.00  0.00     0.192 HD
HETATM   10  O   UNL     1      26.584  48.560  49.201  1.00  0.00    -0.264 OA
BRANCH   8  11
HETATM   11  N   UNL     1      25.893  46.686  51.154  1.00  0.00    -0.184 NA
HETATM   12  C   UNL     1      25.882  46.770  52.446  1.00  0.00     0.150 C 
BRANCH  12  13
HETATM   13  C   UNL     1      26.761  45.945  53.295  1.00  0.00    -0.014 A 
HETATM   14  C   UNL     1      27.350  46.479  54.448  1.00  0.00     0.049 A 
HETATM   15  C   UNL     1      28.192  45.685  55.226  1.00  0.00     0.069 A 
HETATM   16  C   UNL     1      28.433  44.361  54.844  1.00  0.00     0.037 A 
HETATM   17  C   UNL     1      27.844  43.828  53.695  1.00  0.00     0.004 A 
HETATM   18  C   UNL     1      27.005  44.621  52.916  1.00  0.00     0.013 A 
BRANCH  15  19
HETATM   19  O   UNL     1      28.837  46.075  56.367  1.00  0.00    -0.356 OA
HETATM   20  C   UNL     1      30.219  45.750  56.464  1.00  0.00     0.210 C 
ENDBRANCH  15  19
ENDBRANCH  12  13
ENDBRANCH   8  11
ENDBRANCH   5   7
BRANCH   1  21
HETATM   21  C   UNL     1      21.066  50.535  48.036  1.00  0.00    -0.005 A 
HETATM   22  C   UNL     1      20.178  49.843  47.201  1.00  0.00     0.016 A 
HETATM   23  C   UNL     1      18.839  50.237  47.088  1.00  0.00     0.037 A 
HETATM   24  C   UNL     1      18.366  51.330  47.813  1.00  0.00     0.068 A 
HETATM   25  C   UNL     1      19.251  52.040  48.627  1.00  0.00     0.037 A 
HETATM   26  C   UNL     1      20.590  51.648  48.739  1.00  0.00     0.016 A 
BRANCH  24  27
HETATM   27  O   UNL     1      17.081  51.799  47.804  1.00  0.00    -0.351 OA
BRANCH  27  28
HETATM   28  C   UNL     1      16.303  51.561  48.977  1.00  0.00     0.175 C 
BRANCH  28  29
HETATM   29  C   UNL     1      15.317  52.713  49.139  1.00  0.00     0.022 C 
HETATM   30  C   UNL     1      15.741  53.664  50.244  1.00  0.00     0.007 C 
ENDBRANCH  28  29
ENDBRANCH  27  28
ENDBRANCH  24  27
ENDBRANCH   1  21
TORSDOF 8
ENDMDL
MODEL 4
REMARK VINA RESULT:      -8.3      1.679      2.081
REMARK  8 active torsions:
REMARK  status: ('A' for Active; 'I' for Inactive)
REMARK    1  A    between atoms: C_2  and  C_3 
REMARK    2  A    between atoms: C_3  and  O_4 
REMARK    3  A    between atoms: O_4  and  C_5 
REMARK    4  A    between atoms: C_8  and  C_9 
REMARK    5  A    between atoms: C_13  and  C_14 
REMARK       I    between atoms: C_14  and  N_15 
REMARK    6  A    between atoms: N_15  and  N_16 
REMARK    7  A    between atoms: C_17  and  C_18 
REMARK    8  A    between atoms: C_20  and  O_21 
ROOT
HETATM    1  C   UNL     1      26.801  44.345  51.057  1.00  0.00     0.089 A 
HETATM    2  N   UNL     1      27.064  43.941  49.804  1.00  0.00    -0.174 NA
HETATM    3  N   UNL     1      26.018  44.372  49.081  1.00  0.00    -0.272 N 
HETATM    4  H   UNL     1      26.004  44.196  48.080  1.00  0.00     0.189 HD
HETATM    5  C   UNL     1      25.057  45.013  49.811  1.00  0.00     0.121 A 
HETATM    6  C   UNL     1      25.543  45.009  51.103  1.00  0.00     0.071 A 
ENDROOT
BRANCH   5   7
HETATM    7  C   UNL     1      23.856  45.535  49.203  1.00  0.00     0.289 C 
HETATM    8  N   UNL     1      23.514  46.808  49.633  1.00  0.00    -0.242 N 
HETATM    9  H   UNL     1      24.070  47.270  50.339  1.00  0.00     0.192 HD
HETATM   10  O   UNL     1      23.219  44.880  48.383  1.00  0.00    -0.264 OA
BRANCH   8  11
HETATM   11  N   UNL     1      22.444  47.466  49.102  1.00  0.00    -0.184 NA
HETATM   12  C   UNL     1      22.496  48.757  49.190  1.00  0.00     0.150 C 
BRANCH  12  13
HETATM   13  C   UNL     1      21.437  49.625  48.642  1.00  0.00    -0.014 A 
HETATM   14  C   UNL     1      20.624  49.184  47.591  1.00  0.00     0.049 A 
HETATM   15  C   UNL     1      19.640  50.029  47.076  1.00  0.00     0.069 A 
HETATM   16  C   UNL     1      19.478  51.306  47.622  1.00  0.00     0.037 A 
HETATM   17  C   UNL     1      20.288  51.745  48.672  1.00  0.00     0.004 A 
HETATM   18  C   UNL     1      21.272  50.903  49.185  1.00  0.00     0.013 A 
BRANCH  15  19
HETATM   19  O   UNL     1      18.783  49.735  46.051  1.00  0.00    -0.356 OA
HETATM   20  C   UNL     1      17.392  49.825  46.335  1.00  0.00     0.210 C 
ENDBRANCH  15  19
ENDBRANCH  12  13
ENDBRANCH   8  11
ENDBRANCH   5   7
BRANCH   1  21
HETATM   21  C   UNL     1      27.715  44.093  52.172  1.00  0.00    -0.005 A 
HETATM   22  C   UNL     1      27.445  44.606  53.449  1.00  0.00     0.016 A 
HETATM   23  C   UNL     1      28.295  44.337  54.529  1.00  0.00     0.037 A 
HETATM   24  C   UNL     1      29.428  43.546  54.349  1.00  0.00     0.068 A 
HETATM   25  C   UNL     1      29.719  43.053  53.076  1.00  0.00     0.037 A 
HETATM   26  C   UNL     1      28.871  43.323  51.995  1.00  0.00     0.016 A 
BRANCH  24  27
HETATM   27  O   UNL     1      30.322  43.197  55.325  1.00  0.00    -0.351 OA
BRANCH  27  28
HETATM   28  C   UNL     1      31.025  44.263  55.962  1.00  0.00     0.175 C 
BRANCH  28  29
HETATM   29  C   UNL     1      31.408  43.810  57.367  1.00  0.00     0.022 C 
HETATM   30  C   UNL     1      31.160  44.900  58.395  1.00  0.00     0.007 C 
ENDBRANCH  28  29
ENDBRANCH  27  28
ENDBRANCH  24  27
ENDBRANCH   1  21
TORSDOF 8
ENDMDL
MODEL 5
REMARK VINA RESULT:      -8.3      1.728      2.241
REMARK  8 active torsions:
REMARK  status: ('A' for Active; 'I' for Inactive)
REMARK    1  A    between atoms: C_2  and  C_3 
REMARK    2  A    between atoms: C_3  and  O_4 
REMARK    3  A    between atoms: O_4  and  C_5 
REMARK    4  A    between atoms: C_8  and  C_9 
REMARK    5  A    between atoms: C_13  and  C_14 
REMARK       I    between atoms: C_14  and  N_15 
REMARK    6  A    between atoms: N_15  and  N_16 
REMARK    7  A    between atoms: C_17  and  C_18 
REMARK    8  A    between atoms: C_20  and  O_21 
ROOT
HETATM    1  C   UNL     1      25.387  45.605  50.607  1.00  0.00     0.089 A 
HETATM    2  N   UNL     1      25.003  44.825  49.585  1.00  0.00    -0.174 NA
HETATM    3  N   UNL     1      24.150  45.585  48.879  1.00  0.00    -0.272 N 
HETATM    4  H   UNL     1      23.736  45.206  48.032  1.00  0.00     0.189 HD
HETATM    5  C   UNL     1      23.928  46.823  49.413  1.00  0.00     0.121 A 
HETATM    6  C   UNL     1      24.723  46.862  50.541  1.00  0.00     0.071 A 
ENDROOT
BRANCH   5   7
HETATM    7  C   UNL     1      23.034  47.773  48.796  1.00  0.00     0.289 C 
HETATM    8  N   UNL     1      21.774  47.821  49.375  1.00  0.00    -0.242 N 
HETATM    9  H   UNL     1      21.543  47.198  50.135  1.00  0.00     0.192 HD
HETATM   10  O   UNL     1      23.391  48.460  47.843  1.00  0.00    -0.264 OA
BRANCH   8  11
HETATM   11  N   UNL     1      20.837  48.716  48.948  1.00  0.00    -0.184 NA
HETATM   12  C   UNL     1      20.612  49.701  49.757  1.00  0.00     0.150 C 
BRANCH  12  13
HETATM   13  C   UNL     1      19.652  50.775  49.440  1.00  0.00    -0.014 A 
HETATM   14  C   UNL     1      18.426  50.858  50.109  1.00  0.00     0.049 A 
HETATM   15  C   UNL     1      17.525  51.871  49.780  1.00  0.00     0.069 A 
HETATM   16  C   UNL     1      17.865  52.794  48.785  1.00  0.00     0.037 A 
HETATM   17  C   UNL     1      19.089  52.712  48.119  1.00  0.00     0.004 A 
HETATM   18  C   UNL     1      19.988  51.699  48.445  1.00  0.00     0.013 A 
BRANCH  15  19
HETATM   19  O   UNL     1      16.295  52.069  50.343  1.00  0.00    -0.356 OA
HETATM   20  C   UNL     1      15.711  53.355  50.171  1.00  0.00     0.210 C 
ENDBRANCH  15  19
ENDBRANCH  12  13
ENDBRANCH   8  11
ENDBRANCH   5   7
BRANCH   1  21
HETATM   21  C   UNL     1      26.346  45.157  51.619  1.00  0.00    -0.005 A 
HETATM   22  C   UNL     1      26.237  45.589  52.949  1.00  0.00     0.016 A 
HETATM   23  C   UNL     1      27.127  45.136  53.930  1.00  0.00     0.037 A 
HETATM   24  C   UNL     1      28.141  44.240  53.597  1.00  0.00     0.068 A 
HETATM   25  C   UNL     1      28.273  43.826  52.270  1.00  0.00     0.037 A 
HETATM   26  C   UNL     1      27.384  44.279  51.288  1.00  0.00     0.016 A 
BRANCH  24  27
HETATM   27  O   UNL     1      29.057  43.711  54.464  1.00  0.00    -0.351 OA
BRANCH  27  28
HETATM   28  C   UNL     1      29.653  44.613  55.396  1.00  0.00     0.175 C 
BRANCH  28  29
HETATM   29  C   UNL     1      31.073  44.137  55.681  1.00  0.00     0.022 C 
HETATM   30  C   UNL     1      31.120  43.182  56.861  1.00  0.00     0.007 C 
ENDBRANCH  28  29
ENDBRANCH  27  28
ENDBRANCH  24  27
ENDBRANCH   1  21
TORSDOF 8
ENDMDL
MODEL 6
REMARK VINA RESULT:      -8.2      1.803     11.902
REMARK  8 active torsions:
REMARK  status: ('A' for Active; 'I' for Inactive)
REMARK    1  A    between atoms: C_2  and  C_3 
REMARK    2  A    between atoms: C_3  and  O_4 
REMARK    3  A    between atoms: O_4  and  C_5 
REMARK    4  A    between atoms: C_8  and  C_9 
REMARK    5  A    between atoms: C_13  and  C_14 
REMARK       I    between atoms: C_14  and  N_15 
REMARK    6  A    between atoms: N_15  and  N_16 
REMARK    7  A    between atoms: C_17  and  C_18 
REMARK    8  A    between atoms: C_20  and  O_21 
ROOT
HETATM    1  C   UNL     1      22.313  48.303  49.144  1.00  0.00     0.089 A 
HETATM    2  N   UNL     1      22.172  47.080  48.609  1.00  0.00    -0.174 NA
HETATM    3  N   UNL     1      23.339  46.464  48.858  1.00  0.00    -0.272 N 
HETATM    4  H   UNL     1      23.463  45.501  48.557  1.00  0.00     0.189 HD
HETATM    5  C   UNL     1      24.259  47.243  49.504  1.00  0.00     0.121 A 
HETATM    6  C   UNL     1      23.614  48.447  49.703  1.00  0.00     0.071 A 
ENDROOT
BRANCH   5   7
HETATM    7  C   UNL     1      25.572  46.751  49.845  1.00  0.00     0.289 C 
HETATM    8  N   UNL     1      25.571  45.778  50.833  1.00  0.00    -0.242 N 
HETATM    9  H   UNL     1      24.703  45.501  51.270  1.00  0.00     0.192 HD
HETATM   10  O   UNL     1      26.579  47.180  49.289  1.00  0.00    -0.264 OA
BRANCH   8  11
HETATM   11  N   UNL     1      26.727  45.165  51.219  1.00  0.00    -0.184 NA
HETATM   12  C   UNL     1      26.850  44.982  52.495  1.00  0.00     0.150 C 
BRANCH  12  13
HETATM   13  C   UNL     1      28.024  44.308  53.082  1.00  0.00    -0.014 A 
HETATM   14  C   UNL     1      28.507  44.681  54.342  1.00  0.00     0.049 A 
HETATM   15  C   UNL     1      29.629  44.043  54.870  1.00  0.00     0.069 A 
HETATM   16  C   UNL     1      30.254  43.033  54.131  1.00  0.00     0.037 A 
HETATM   17  C   UNL     1      29.771  42.660  52.875  1.00  0.00     0.004 A 
HETATM   18  C   UNL     1      28.652  43.299  52.346  1.00  0.00     0.013 A 
BRANCH  15  19
HETATM   19  O   UNL     1      30.211  44.308  56.079  1.00  0.00    -0.356 OA
HETATM   20  C   UNL     1      30.278  45.674  56.471  1.00  0.00     0.210 C 
ENDBRANCH  15  19
ENDBRANCH  12  13
ENDBRANCH   8  11
ENDBRANCH   5   7
BRANCH   1  21
HETATM   21  C   UNL     1      21.244  49.304  49.110  1.00  0.00    -0.005 A 
HETATM   22  C   UNL     1      19.957  48.992  49.571  1.00  0.00     0.016 A 
HETATM   23  C   UNL     1      18.940  49.954  49.576  1.00  0.00     0.037 A 
HETATM   24  C   UNL     1      19.195  51.247  49.124  1.00  0.00     0.068 A 
HETATM   25  C   UNL     1      20.467  51.559  48.639  1.00  0.00     0.037 A 
HETATM   26  C   UNL     1      21.485  50.597  48.631  1.00  0.00     0.016 A 
BRANCH  24  27
HETATM   27  O   UNL     1      18.295  52.277  49.098  1.00  0.00    -0.351 OA
BRANCH  27  28
HETATM   28  C   UNL     1      16.979  51.991  49.570  1.00  0.00     0.175 C 
BRANCH  28  29
HETATM   29  C   UNL     1      16.313  53.307  49.956  1.00  0.00     0.022 C 
HETATM   30  C   UNL     1      14.843  53.116  50.288  1.00  0.00     0.007 C 
ENDBRANCH  28  29
ENDBRANCH  27  28
ENDBRANCH  24  27
ENDBRANCH   1  21
TORSDOF 8
ENDMDL
MODEL 7
REMARK VINA RESULT:      -7.9      2.555      3.521
REMARK  8 active torsions:
REMARK  status: ('A' for Active; 'I' for Inactive)
REMARK    1  A    between atoms: C_2  and  C_3 
REMARK    2  A    between atoms: C_3  and  O_4 
REMARK    3  A    between atoms: O_4  and  C_5 
REMARK    4  A    between atoms: C_8  and  C_9 
REMARK    5  A    between atoms: C_13  and  C_14 
REMARK       I    between atoms: C_14  and  N_15 
REMARK    6  A    between atoms: N_15  and  N_16 
REMARK    7  A    between atoms: C_17  and  C_18 
REMARK    8  A    between atoms: C_20  and  O_21 
ROOT
HETATM    1  C   UNL     1      25.478  47.525  49.844  1.00  0.00     0.089 A 
HETATM    2  N   UNL     1      26.192  48.543  49.338  1.00  0.00    -0.174 NA
HETATM    3  N   UNL     1      25.280  49.350  48.773  1.00  0.00    -0.272 N 
HETATM    4  H   UNL     1      25.588  50.213  48.333  1.00  0.00     0.189 HD
HETATM    5  C   UNL     1      23.995  48.888  48.854  1.00  0.00     0.121 A 
HETATM    6  C   UNL     1      24.097  47.700  49.548  1.00  0.00     0.071 A 
ENDROOT
BRANCH   5   7
HETATM    7  C   UNL     1      22.884  49.619  48.294  1.00  0.00     0.289 C 
HETATM    8  N   UNL     1      21.717  49.530  49.039  1.00  0.00    -0.242 N 
HETATM    9  H   UNL     1      21.692  48.960  49.873  1.00  0.00     0.192 HD
HETATM   10  O   UNL     1      22.997  50.251  47.248  1.00  0.00    -0.264 OA
BRANCH   8  11
HETATM   11  N   UNL     1      20.597  50.220  48.677  1.00  0.00    -0.184 NA
HETATM   12  C   UNL     1      19.536  49.941  49.366  1.00  0.00     0.150 C 
BRANCH  12  13
HETATM   13  C   UNL     1      18.246  50.615  49.128  1.00  0.00    -0.014 A 
HETATM   14  C   UNL     1      17.896  51.764  49.847  1.00  0.00     0.049 A 
HETATM   15  C   UNL     1      16.663  52.374  49.618  1.00  0.00     0.069 A 
HETATM   16  C   UNL     1      15.793  51.829  48.668  1.00  0.00     0.037 A 
HETATM   17  C   UNL     1      16.144  50.684  47.950  1.00  0.00     0.004 A 
HETATM   18  C   UNL     1      17.374  50.072  48.179  1.00  0.00     0.013 A 
BRANCH  15  19
HETATM   19  O   UNL     1      16.189  53.492  50.249  1.00  0.00    -0.356 OA
HETATM   20  C   UNL     1      14.821  53.475  50.638  1.00  0.00     0.210 C 
ENDBRANCH  15  19
ENDBRANCH  12  13
ENDBRANCH   8  11
ENDBRANCH   5   7
BRANCH   1  21
HETATM   21  C   UNL     1      26.099  46.416  50.573  1.00  0.00    -0.005 A 
HETATM   22  C   UNL     1      26.068  46.376  51.974  1.00  0.00     0.016 A 
HETATM   23  C   UNL     1      26.626  45.302  52.678  1.00  0.00     0.037 A 
HETATM   24  C   UNL     1      27.221  44.246  51.989  1.00  0.00     0.068 A 
HETATM   25  C   UNL     1      27.278  44.291  50.595  1.00  0.00     0.037 A 
HETATM   26  C   UNL     1      26.723  45.366  49.891  1.00  0.00     0.016 A 
BRANCH  24  27
HETATM   27  O   UNL     1      27.780  43.135  52.558  1.00  0.00    -0.351 OA
BRANCH  27  28
HETATM   28  C   UNL     1      28.008  43.181  53.966  1.00  0.00     0.175 C 
BRANCH  28  29
HETATM   29  C   UNL     1      29.314  42.452  54.263  1.00  0.00     0.022 C 
HETATM   30  C   UNL     1      30.397  42.809  53.262  1.00  0.00     0.007 C 
ENDBRANCH  28  29
ENDBRANCH  27  28
ENDBRANCH  24  27
ENDBRANCH   1  21
TORSDOF 8
ENDMDL
MODEL 8
REMARK VINA RESULT:      -7.6      7.086     11.513
REMARK  8 active torsions:
REMARK  status: ('A' for Active; 'I' for Inactive)
REMARK    1  A    between atoms: C_2  and  C_3 
REMARK    2  A    between atoms: C_3  and  O_4 
REMARK    3  A    between atoms: O_4  and  C_5 
REMARK    4  A    between atoms: C_8  and  C_9 
REMARK    5  A    between atoms: C_13  and  C_14 
REMARK       I    between atoms: C_14  and  N_15 
REMARK    6  A    between atoms: N_15  and  N_16 
REMARK    7  A    between atoms: C_17  and  C_18 
REMARK    8  A    between atoms: C_20  and  O_21 
ROOT
HETATM    1  C   UNL     1      17.346  51.690  49.008  1.00  0.00     0.089 A 
HETATM    2  N   UNL     1      16.204  51.229  48.474  1.00  0.00    -0.174 NA
HETATM    3  N   UNL     1      15.234  51.899  49.115  1.00  0.00    -0.272 N 
HETATM    4  H   UNL     1      14.264  51.728  48.862  1.00  0.00     0.189 HD
HETATM    5  C   UNL     1      15.687  52.759  50.077  1.00  0.00     0.121 A 
HETATM    6  C   UNL     1      17.061  52.642  50.027  1.00  0.00     0.071 A 
ENDROOT
BRANCH   5   7
HETATM    7  C   UNL     1      14.786  53.556  50.875  1.00  0.00     0.289 C 
HETATM    8  N   UNL     1      15.399  54.616  51.527  1.00  0.00    -0.242 N 
HETATM    9  H   UNL     1      16.397  54.751  51.447  1.00  0.00     0.192 HD
HETATM   10  O   UNL     1      13.590  53.290  50.947  1.00  0.00    -0.264 OA
BRANCH   8  11
HETATM   11  N   UNL     1      14.671  55.502  52.266  1.00  0.00    -0.184 NA
HETATM   12  C   UNL     1      15.343  56.142  53.170  1.00  0.00     0.150 C 
BRANCH  12  13
HETATM   13  C   UNL     1      14.720  57.158  54.039  1.00  0.00    -0.014 A 
HETATM   14  C   UNL     1      15.484  58.192  54.592  1.00  0.00     0.049 A 
HETATM   15  C   UNL     1      14.878  59.132  55.425  1.00  0.00     0.069 A 
HETATM   16  C   UNL     1      13.508  59.029  55.693  1.00  0.00     0.037 A 
HETATM   17  C   UNL     1      12.746  57.999  55.139  1.00  0.00     0.004 A 
HETATM   18  C   UNL     1      13.351  57.058  54.309  1.00  0.00     0.013 A 
BRANCH  15  19
HETATM   19  O   UNL     1      15.500  60.185  56.037  1.00  0.00    -0.356 OA
HETATM   20  C   UNL     1      16.922  60.182  56.027  1.00  0.00     0.210 C 
ENDBRANCH  15  19
ENDBRANCH  12  13
ENDBRANCH   8  11
ENDBRANCH   5   7
BRANCH   1  21
HETATM   21  C   UNL     1      18.663  51.226  48.567  1.00  0.00    -0.005 A 
HETATM   22  C   UNL     1      18.788  50.375  47.460  1.00  0.00     0.016 A 
HETATM   23  C   UNL     1      20.046  49.957  47.009  1.00  0.00     0.037 A 
HETATM   24  C   UNL     1      21.202  50.389  47.658  1.00  0.00     0.068 A 
HETATM   25  C   UNL     1      21.085  51.216  48.776  1.00  0.00     0.037 A 
HETATM   26  C   UNL     1      19.827  51.633  49.229  1.00  0.00     0.016 A 
BRANCH  24  27
HETATM   27  O   UNL     1      22.484  50.069  47.303  1.00  0.00    -0.351 OA
BRANCH  27  28
HETATM   28  C   UNL     1      23.530  50.699  48.043  1.00  0.00     0.175 C 
BRANCH  28  29
HETATM   29  C   UNL     1      24.528  49.627  48.467  1.00  0.00     0.022 C 
HETATM   30  C   UNL     1      25.940  49.966  48.022  1.00  0.00     0.007 C 
ENDBRANCH  28  29
ENDBRANCH  27  28
ENDBRANCH  24  27
ENDBRANCH   1  21
TORSDOF 8
ENDMDL
MODEL 9
REMARK VINA RESULT:      -7.6     19.388     21.154
REMARK  8 active torsions:
REMARK  status: ('A' for Active; 'I' for Inactive)
REMARK    1  A    between atoms: C_2  and  C_3 
REMARK    2  A    between atoms: C_3  and  O_4 
REMARK    3  A    between atoms: O_4  and  C_5 
REMARK    4  A    between atoms: C_8  and  C_9 
REMARK    5  A    between atoms: C_13  and  C_14 
REMARK       I    between atoms: C_14  and  N_15 
REMARK    6  A    between atoms: N_15  and  N_16 
REMARK    7  A    between atoms: C_17  and  C_18 
REMARK    8  A    between atoms: C_20  and  O_21 
ROOT
HETATM    1  C   UNL     1      38.952  42.890  63.408  1.00  0.00     0.089 A 
HETATM    2  N   UNL     1      39.165  43.629  62.307  1.00  0.00    -0.174 NA
HETATM    3  N   UNL     1      38.588  44.812  62.575  1.00  0.00    -0.272 N 
HETATM    4  H   UNL     1      38.638  45.554  61.882  1.00  0.00     0.189 HD
HETATM    5  C   UNL     1      37.972  44.873  63.794  1.00  0.00     0.121 A 
HETATM    6  C   UNL     1      38.195  43.632  64.357  1.00  0.00     0.071 A 
ENDROOT
BRANCH   5   7
HETATM    7  C   UNL     1      37.291  46.062  64.248  1.00  0.00     0.289 C 
HETATM    8  N   UNL     1      38.133  47.021  64.792  1.00  0.00    -0.242 N 
HETATM    9  H   UNL     1      39.123  46.837  64.874  1.00  0.00     0.192 HD
HETATM   10  O   UNL     1      36.074  46.178  64.146  1.00  0.00    -0.264 OA
BRANCH   8  11
HETATM   11  N   UNL     1      37.650  48.228  65.204  1.00  0.00    -0.184 NA
HETATM   12  C   UNL     1      38.265  48.744  66.221  1.00  0.00     0.150 C 
BRANCH  12  13
HETATM   13  C   UNL     1      37.892  50.058  66.778  1.00  0.00    -0.014 A 
HETATM   14  C   UNL     1      38.094  51.231  66.041  1.00  0.00     0.049 A 
HETATM   15  C   UNL     1      37.752  52.464  66.596  1.00  0.00     0.069 A 
HETATM   16  C   UNL     1      37.206  52.510  67.883  1.00  0.00     0.037 A 
HETATM   17  C   UNL     1      37.002  51.339  68.616  1.00  0.00     0.004 A 
HETATM   18  C   UNL     1      37.347  50.107  68.065  1.00  0.00     0.013 A 
BRANCH  15  19
HETATM   19  O   UNL     1      37.899  53.685  65.996  1.00  0.00    -0.356 OA
HETATM   20  C   UNL     1      37.422  54.814  66.718  1.00  0.00     0.210 C 
ENDBRANCH  15  19
ENDBRANCH  12  13
ENDBRANCH   8  11
ENDBRANCH   5   7
BRANCH   1  21
HETATM   21  C   UNL     1      39.445  41.518  63.540  1.00  0.00    -0.005 A 
HETATM   22  C   UNL     1      39.208  40.572  62.532  1.00  0.00     0.016 A 
HETATM   23  C   UNL     1      39.708  39.268  62.634  1.00  0.00     0.037 A 
HETATM   24  C   UNL     1      40.459  38.890  63.746  1.00  0.00     0.068 A 
HETATM   25  C   UNL     1      40.677  39.818  64.766  1.00  0.00     0.037 A 
HETATM   26  C   UNL     1      40.176  41.122  64.666  1.00  0.00     0.016 A 
BRANCH  24  27
HETATM   27  O   UNL     1      41.017  37.658  63.953  1.00  0.00    -0.351 OA
BRANCH  27  28
HETATM   28  C   UNL     1      41.182  37.248  65.310  1.00  0.00     0.175 C 
BRANCH  28  29
HETATM   29  C   UNL     1      42.355  36.276  65.375  1.00  0.00     0.022 C 
HETATM   30  C   UNL     1      43.487  36.697  64.455  1.00  0.00     0.007 C 
ENDBRANCH  28  29
ENDBRANCH  27  28
ENDBRANCH  24  27
ENDBRANCH   1  21
TORSDOF 8
ENDMDL
MODEL 10
REMARK VINA RESULT:      -7.5      8.288      9.485
REMARK  8 active torsions:
REMARK  status: ('A' for Active; 'I' for Inactive)
REMARK    1  A    between atoms: C_2  and  C_3 
REMARK    2  A    between atoms: C_3  and  O_4 
REMARK    3  A    between atoms: O_4  and  C_5 
REMARK    4  A    between atoms: C_8  and  C_9 
REMARK    5  A    between atoms: C_13  and  C_14 
REMARK       I    between atoms: C_14  and  N_15 
REMARK    6  A    between atoms: N_15  and  N_16 
REMARK    7  A    between atoms: C_17  and  C_18 
REMARK    8  A    between atoms: C_20  and  O_21 
ROOT
HETATM    1  C   UNL     1      28.640  41.949  52.375  1.00  0.00     0.089 A 
HETATM    2  N   UNL     1      29.008  40.674  52.578  1.00  0.00    -0.174 NA
HETATM    3  N   UNL     1      28.665  40.037  51.447  1.00  0.00    -0.272 N 
HETATM    4  H   UNL     1      28.867  39.044  51.358  1.00  0.00     0.189 HD
HETATM    5  C   UNL     1      28.054  40.832  50.518  1.00  0.00     0.121 A 
HETATM    6  C   UNL     1      28.025  42.084  51.098  1.00  0.00     0.071 A 
ENDROOT
BRANCH   5   7
HETATM    7  C   UNL     1      27.608  40.317  49.246  1.00  0.00     0.289 C 
HETATM    8  N   UNL     1      27.629  41.250  48.220  1.00  0.00    -0.242 N 
HETATM    9  H   UNL     1      27.905  42.204  48.410  1.00  0.00     0.192 HD
HETATM   10  O   UNL     1      27.248  39.150  49.120  1.00  0.00    -0.264 OA
BRANCH   8  11
HETATM   11  N   UNL     1      27.301  40.901  46.943  1.00  0.00    -0.184 NA
HETATM   12  C   UNL     1      28.300  40.821  46.123  1.00  0.00     0.150 C 
BRANCH  12  13
HETATM   13  C   UNL     1      28.128  40.427  44.712  1.00  0.00    -0.014 A 
HETATM   14  C   UNL     1      28.684  41.195  43.682  1.00  0.00     0.049 A 
HETATM   15  C   UNL     1      28.494  40.814  42.354  1.00  0.00     0.069 A 
HETATM   16  C   UNL     1      27.752  39.662  42.071  1.00  0.00     0.037 A 
HETATM   17  C   UNL     1      27.199  38.895  43.099  1.00  0.00     0.004 A 
HETATM   18  C   UNL     1      27.386  39.277  44.426  1.00  0.00     0.013 A 
BRANCH  15  19
HETATM   19  O   UNL     1      28.971  41.469  41.253  1.00  0.00    -0.356 OA
HETATM   20  C   UNL     1      28.032  42.237  40.509  1.00  0.00     0.210 C 
ENDBRANCH  15  19
ENDBRANCH  12  13
ENDBRANCH   8  11
ENDBRANCH   5   7
BRANCH   1  21
HETATM   21  C   UNL     1      28.858  42.998  53.373  1.00  0.00    -0.005 A 
HETATM   22  C   UNL     1      29.979  42.963  54.214  1.00  0.00     0.016 A 
HETATM   23  C   UNL     1      30.214  43.982  55.145  1.00  0.00     0.037 A 
HETATM   24  C   UNL     1      29.331  45.056  55.247  1.00  0.00     0.068 A 
HETATM   25  C   UNL     1      28.199  45.085  54.431  1.00  0.00     0.037 A 
HETATM   26  C   UNL     1      27.962  44.065  53.501  1.00  0.00     0.016 A 
BRANCH  24  27
HETATM   27  O   UNL     1      29.460  46.119  56.099  1.00  0.00    -0.351 OA
BRANCH  27  28
HETATM   28  C   UNL     1      29.075  45.904  57.456  1.00  0.00     0.175 C 
BRANCH  28  29
HETATM   29  C   UNL     1      30.296  46.132  58.341  1.00  0.00     0.022 C 
HETATM   30  C   UNL     1      31.159  44.886  58.439  1.00  0.00     0.007 C 
ENDBRANCH  28  29
ENDBRANCH  27  28
ENDBRANCH  24  27
ENDBRANCH   1  21
TORSDOF 8
ENDMDL
