MODEL 1
REMARK VINA RESULT:      -9.1      0.000      0.000
REMARK  2 active torsions:
REMARK  status: ('A' for Active; 'I' for Inactive)
REMARK    1  A    between atoms: C_9  and  C_10 
REMARK       I    between atoms: C_10  and  N_11 
REMARK    2  A    between atoms: N_11  and  C_12 
ROOT
HETATM    1  C   UNL     1      25.480  43.699  52.600  1.00  0.00     0.267 C 
HETATM    2  N   UNL     1      25.001  43.055  51.502  1.00  0.00    -0.156 N 
HETATM    3  O   UNL     1      24.690  44.321  53.326  1.00  0.00    -0.270 OA
HETATM    4  H   UNL     1      24.009  43.163  51.321  1.00  0.00     0.187 HD
ENDROOT
BRANCH   1   5
HETATM    5  C   UNL     1      26.974  43.699  52.988  1.00  0.00     0.282 C 
HETATM    6  N   UNL     1      27.316  42.318  53.561  1.00  0.00    -0.058 N 
HETATM    7  C   UNL     1      28.753  42.166  53.880  1.00  0.00     0.272 C 
HETATM    8  H   UNL     1      26.738  42.176  54.401  1.00  0.00     0.278 HD
HETATM    9  H   UNL     1      26.995  41.599  52.902  1.00  0.00     0.278 HD
HETATM   10  C   UNL     1      29.296  43.317  54.677  1.00  0.00    -0.026 A 
HETATM   11  C   UNL     1      28.611  44.547  54.743  1.00  0.00    -0.048 A 
HETATM   12  C   UNL     1      30.536  43.186  55.320  1.00  0.00     0.009 A 
HETATM   13  C   UNL     1      29.163  45.608  55.477  1.00  0.00     0.008 A 
HETATM   14  C   UNL     1      27.259  44.729  54.091  1.00  0.00     0.082 C 
HETATM   15  C   UNL     1      30.391  45.459  56.117  1.00  0.00     0.001 A 
HETATM   16  C   UNL     1      31.078  44.250  56.039  1.00  0.00     0.001 A 
ENDBRANCH   1   5
BRANCH   2  17
HETATM   17  C   UNL     1      25.747  42.226  50.710  1.00  0.00     0.708 A 
HETATM   18  N   UNL     1      26.445  42.564  49.654  1.00  0.00    -0.062 NA
HETATM   19  C   UNL     1      27.001  41.396  49.186  1.00  0.00     0.103 A 
HETATM   20  C   UNL     1      26.636  40.323  49.989  1.00  0.00     0.078 A 
HETATM   21  C   UNL     1      27.827  41.176  48.076  1.00  0.00     0.034 A 
HETATM   22  N   UNL     1      25.849  40.880  50.963  1.00  0.00    -0.188 N 
HETATM   23  C   UNL     1      27.045  39.011  49.747  1.00  0.00     0.032 A 
HETATM   24  H   UNL     1      25.408  40.376  51.718  1.00  0.00     0.184 HD
HETATM   25  C   UNL     1      27.866  38.807  48.631  1.00  0.00     0.002 A 
HETATM   26  C   UNL     1      28.253  39.869  47.810  1.00  0.00     0.002 A 
ENDBRANCH   2  17
TORSDOF 2
ENDMDL
MODEL 2
REMARK VINA RESULT:      -8.7      3.088      4.433
REMARK  2 active torsions:
REMARK  status: ('A' for Active; 'I' for Inactive)
REMARK    1  A    between atoms: C_9  and  C_10 
REMARK       I    between atoms: C_10  and  N_11 
REMARK    2  A    between atoms: N_11  and  C_12 
ROOT
HETATM    1  C   UNL     1      27.143  42.286  51.339  1.00  0.00     0.267 C 
HETATM    2  N   UNL     1      26.287  42.924  50.495  1.00  0.00    -0.156 N 
HETATM    3  O   UNL     1      27.063  41.055  51.460  1.00  0.00    -0.270 OA
HETATM    4  H   UNL     1      25.594  42.340  50.041  1.00  0.00     0.187 HD
ENDROOT
BRANCH   1   5
HETATM    5  C   UNL     1      28.216  43.028  52.164  1.00  0.00     0.282 C 
HETATM    6  N   UNL     1      29.159  41.980  52.769  1.00  0.00    -0.058 N 
HETATM    7  C   UNL     1      30.292  42.581  53.507  1.00  0.00     0.272 C 
HETATM    8  H   UNL     1      28.599  41.376  53.387  1.00  0.00     0.278 HD
HETATM    9  H   UNL     1      29.481  41.355  52.020  1.00  0.00     0.278 HD
HETATM   10  C   UNL     1      29.858  43.650  54.468  1.00  0.00    -0.026 A 
HETATM   11  C   UNL     1      28.590  44.256  54.362  1.00  0.00    -0.048 A 
HETATM   12  C   UNL     1      30.751  44.093  55.454  1.00  0.00     0.009 A 
HETATM   13  C   UNL     1      28.231  45.269  55.263  1.00  0.00     0.008 A 
HETATM   14  C   UNL     1      27.582  43.794  53.334  1.00  0.00     0.082 C 
HETATM   15  C   UNL     1      29.126  45.693  56.243  1.00  0.00     0.001 A 
HETATM   16  C   UNL     1      30.385  45.107  56.338  1.00  0.00     0.001 A 
ENDBRANCH   1   5
BRANCH   2  17
HETATM   17  C   UNL     1      26.371  44.251  50.173  1.00  0.00     0.708 A 
HETATM   18  N   UNL     1      27.432  44.891  49.745  1.00  0.00    -0.062 NA
HETATM   19  C   UNL     1      27.035  46.197  49.577  1.00  0.00     0.103 A 
HETATM   20  C   UNL     1      25.693  46.348  49.903  1.00  0.00     0.078 A 
HETATM   21  C   UNL     1      27.770  47.312  49.152  1.00  0.00     0.034 A 
HETATM   22  N   UNL     1      25.288  45.089  50.265  1.00  0.00    -0.188 N 
HETATM   23  C   UNL     1      25.021  47.570  49.838  1.00  0.00     0.032 A 
HETATM   24  H   UNL     1      24.358  44.839  50.567  1.00  0.00     0.184 HD
HETATM   25  C   UNL     1      25.770  48.674  49.415  1.00  0.00     0.002 A 
HETATM   26  C   UNL     1      27.120  48.550  49.076  1.00  0.00     0.002 A 
ENDBRANCH   2  17
TORSDOF 2
ENDMDL
MODEL 3
REMARK VINA RESULT:      -8.5      6.754      9.357
REMARK  2 active torsions:
REMARK  status: ('A' for Active; 'I' for Inactive)
REMARK    1  A    between atoms: C_9  and  C_10 
REMARK       I    between atoms: C_10  and  N_11 
REMARK    2  A    between atoms: N_11  and  C_12 
ROOT
HETATM    1  C   UNL     1      25.302  49.461  48.434  1.00  0.00     0.267 C 
HETATM    2  N   UNL     1      26.287  48.711  48.998  1.00  0.00    -0.156 N 
HETATM    3  O   UNL     1      25.584  50.214  47.491  1.00  0.00    -0.270 OA
HETATM    4  H   UNL     1      27.220  48.852  48.627  1.00  0.00     0.187 HD
ENDROOT
BRANCH   1   5
HETATM    5  C   UNL     1      23.836  49.424  48.919  1.00  0.00     0.282 C 
HETATM    6  N   UNL     1      23.154  48.209  48.279  1.00  0.00    -0.058 N 
HETATM    7  C   UNL     1      21.765  48.013  48.749  1.00  0.00     0.272 C 
HETATM    8  H   UNL     1      23.180  48.338  47.257  1.00  0.00     0.278 HD
HETATM    9  H   UNL     1      23.734  47.377  48.448  1.00  0.00     0.278 HD
HETATM   10  C   UNL     1      20.952  49.275  48.701  1.00  0.00    -0.026 A 
HETATM   11  C   UNL     1      21.570  50.538  48.605  1.00  0.00    -0.048 A 
HETATM   12  C   UNL     1      19.556  49.199  48.810  1.00  0.00     0.009 A 
HETATM   13  C   UNL     1      20.778  51.695  48.588  1.00  0.00     0.008 A 
HETATM   14  C   UNL     1      23.069  50.670  48.456  1.00  0.00     0.082 C 
HETATM   15  C   UNL     1      19.391  51.604  48.690  1.00  0.00     0.001 A 
HETATM   16  C   UNL     1      18.781  50.358  48.802  1.00  0.00     0.001 A 
ENDBRANCH   1   5
BRANCH   2  17
HETATM   17  C   UNL     1      26.073  47.745  49.943  1.00  0.00     0.708 A 
HETATM   18  N   UNL     1      26.065  47.906  51.244  1.00  0.00    -0.062 NA
HETATM   19  C   UNL     1      25.829  46.657  51.771  1.00  0.00     0.103 A 
HETATM   20  C   UNL     1      25.681  45.717  50.759  1.00  0.00     0.078 A 
HETATM   21  C   UNL     1      25.733  46.251  53.108  1.00  0.00     0.034 A 
HETATM   22  N   UNL     1      25.826  46.439  49.602  1.00  0.00    -0.188 N 
HETATM   23  C   UNL     1      25.443  44.363  50.999  1.00  0.00     0.032 A 
HETATM   24  H   UNL     1      25.777  46.060  48.667  1.00  0.00     0.184 HD
HETATM   25  C   UNL     1      25.354  43.972  52.341  1.00  0.00     0.002 A 
HETATM   26  C   UNL     1      25.494  44.897  53.378  1.00  0.00     0.002 A 
ENDBRANCH   2  17
TORSDOF 2
ENDMDL
MODEL 4
REMARK VINA RESULT:      -8.5      2.678      3.488
REMARK  2 active torsions:
REMARK  status: ('A' for Active; 'I' for Inactive)
REMARK    1  A    between atoms: C_9  and  C_10 
REMARK       I    between atoms: C_10  and  N_11 
REMARK    2  A    between atoms: N_11  and  C_12 
ROOT
HETATM    1  C   UNL     1      26.461  47.145  54.624  1.00  0.00     0.267 C 
HETATM    2  N   UNL     1      25.560  46.974  53.619  1.00  0.00    -0.156 N 
HETATM    3  O   UNL     1      26.209  47.955  55.528  1.00  0.00    -0.270 OA
HETATM    4  H   UNL     1      24.739  47.566  53.654  1.00  0.00     0.187 HD
ENDROOT
BRANCH   1   5
HETATM    5  C   UNL     1      27.799  46.376  54.693  1.00  0.00     0.282 C 
HETATM    6  N   UNL     1      27.525  44.913  54.324  1.00  0.00    -0.058 N 
HETATM    7  C   UNL     1      28.757  44.094  54.261  1.00  0.00     0.272 C 
HETATM    8  H   UNL     1      26.869  44.533  55.020  1.00  0.00     0.278 HD
HETATM    9  H   UNL     1      27.006  44.888  53.438  1.00  0.00     0.278 HD
HETATM   10  C   UNL     1      29.636  44.274  55.464  1.00  0.00    -0.026 A 
HETATM   11  C   UNL     1      29.482  45.382  56.322  1.00  0.00    -0.048 A 
HETATM   12  C   UNL     1      30.667  43.355  55.707  1.00  0.00     0.009 A 
HETATM   13  C   UNL     1      30.340  45.529  57.422  1.00  0.00     0.008 A 
HETATM   14  C   UNL     1      28.369  46.384  56.119  1.00  0.00     0.082 C 
HETATM   15  C   UNL     1      31.354  44.602  57.655  1.00  0.00     0.001 A 
HETATM   16  C   UNL     1      31.518  43.517  56.799  1.00  0.00     0.001 A 
ENDBRANCH   1   5
BRANCH   2  17
HETATM   17  C   UNL     1      25.663  46.014  52.650  1.00  0.00     0.708 A 
HETATM   18  N   UNL     1      26.499  46.000  51.641  1.00  0.00    -0.062 NA
HETATM   19  C   UNL     1      26.213  44.854  50.935  1.00  0.00     0.103 A 
HETATM   20  C   UNL     1      25.179  44.151  51.542  1.00  0.00     0.078 A 
HETATM   21  C   UNL     1      26.793  44.353  49.763  1.00  0.00     0.034 A 
HETATM   22  N   UNL     1      24.856  44.903  52.642  1.00  0.00    -0.188 N 
HETATM   23  C   UNL     1      24.670  42.953  51.039  1.00  0.00     0.032 A 
HETATM   24  H   UNL     1      24.135  44.679  53.311  1.00  0.00     0.184 HD
HETATM   25  C   UNL     1      25.257  42.467  49.865  1.00  0.00     0.002 A 
HETATM   26  C   UNL     1      26.301  43.151  49.237  1.00  0.00     0.002 A 
ENDBRANCH   2  17
TORSDOF 2
ENDMDL
MODEL 5
REMARK VINA RESULT:      -8.2      3.297      6.495
REMARK  2 active torsions:
REMARK  status: ('A' for Active; 'I' for Inactive)
REMARK    1  A    between atoms: C_9  and  C_10 
REMARK       I    between atoms: C_10  and  N_11 
REMARK    2  A    between atoms: N_11  and  C_12 
ROOT
HETATM    1  C   UNL     1      25.948  42.950  51.082  1.00  0.00     0.267 C 
HETATM    2  N   UNL     1      26.788  42.288  51.923  1.00  0.00    -0.156 N 
HETATM    3  O   UNL     1      25.207  42.298  50.333  1.00  0.00    -0.270 OA
HETATM    4  H   UNL     1      26.782  41.277  51.850  1.00  0.00     0.187 HD
ENDROOT
BRANCH   1   5
HETATM    5  C   UNL     1      25.876  44.491  51.010  1.00  0.00     0.282 C 
HETATM    6  N   UNL     1      24.536  44.875  50.371  1.00  0.00    -0.058 N 
HETATM    7  C   UNL     1      24.311  46.337  50.338  1.00  0.00     0.272 C 
HETATM    8  H   UNL     1      24.519  44.480  49.420  1.00  0.00     0.278 HD
HETATM    9  H   UNL     1      23.781  44.385  50.868  1.00  0.00     0.278 HD
HETATM   10  C   UNL     1      25.490  47.095  49.801  1.00  0.00    -0.026 A 
HETATM   11  C   UNL     1      26.767  46.503  49.732  1.00  0.00    -0.048 A 
HETATM   12  C   UNL     1      25.331  48.433  49.414  1.00  0.00     0.009 A 
HETATM   13  C   UNL     1      27.851  47.251  49.248  1.00  0.00     0.008 A 
HETATM   14  C   UNL     1      26.984  45.055  50.109  1.00  0.00     0.082 C 
HETATM   15  C   UNL     1      27.675  48.578  48.859  1.00  0.00     0.001 A 
HETATM   16  C   UNL     1      26.418  49.169  48.943  1.00  0.00     0.001 A 
ENDBRANCH   1   5
BRANCH   2  17
HETATM   17  C   UNL     1      27.545  42.893  52.889  1.00  0.00     0.708 A 
HETATM   18  N   UNL     1      27.214  43.937  53.608  1.00  0.00    -0.062 NA
HETATM   19  C   UNL     1      28.295  44.186  54.421  1.00  0.00     0.103 A 
HETATM   20  C   UNL     1      29.305  43.258  54.193  1.00  0.00     0.078 A 
HETATM   21  C   UNL     1      28.487  45.191  55.378  1.00  0.00     0.034 A 
HETATM   22  N   UNL     1      28.795  42.435  53.221  1.00  0.00    -0.188 N 
HETATM   23  C   UNL     1      30.526  43.273  54.868  1.00  0.00     0.032 A 
HETATM   24  H   UNL     1      29.275  41.646  52.815  1.00  0.00     0.184 HD
HETATM   25  C   UNL     1      30.704  44.286  55.818  1.00  0.00     0.002 A 
HETATM   26  C   UNL     1      29.704  45.228  56.072  1.00  0.00     0.002 A 
ENDBRANCH   2  17
TORSDOF 2
ENDMDL
MODEL 6
REMARK VINA RESULT:      -8.2      2.479      6.972
REMARK  2 active torsions:
REMARK  status: ('A' for Active; 'I' for Inactive)
REMARK    1  A    between atoms: C_9  and  C_10 
REMARK       I    between atoms: C_10  and  N_11 
REMARK    2  A    between atoms: N_11  and  C_12 
ROOT
HETATM    1  C   UNL     1      25.835  46.689  52.741  1.00  0.00     0.267 C 
HETATM    2  N   UNL     1      26.627  46.992  53.805  1.00  0.00    -0.156 N 
HETATM    3  O   UNL     1      25.059  47.551  52.303  1.00  0.00    -0.270 OA
HETATM    4  H   UNL     1      26.497  47.913  54.207  1.00  0.00     0.187 HD
ENDROOT
BRANCH   1   5
HETATM    5  C   UNL     1      25.851  45.309  52.048  1.00  0.00     0.282 C 
HETATM    6  N   UNL     1      26.842  45.376  50.879  1.00  0.00    -0.058 N 
HETATM    7  C   UNL     1      27.015  44.075  50.196  1.00  0.00     0.272 C 
HETATM    8  H   UNL     1      26.502  46.092  50.222  1.00  0.00     0.278 HD
HETATM    9  H   UNL     1      27.736  45.746  51.225  1.00  0.00     0.278 HD
HETATM   10  C   UNL     1      25.709  43.416  49.861  1.00  0.00    -0.026 A 
HETATM   11  C   UNL     1      24.510  43.810  50.489  1.00  0.00    -0.048 A 
HETATM   12  C   UNL     1      25.689  42.350  48.950  1.00  0.00     0.009 A 
HETATM   13  C   UNL     1      23.313  43.153  50.169  1.00  0.00     0.008 A 
HETATM   14  C   UNL     1      24.475  44.972  51.456  1.00  0.00     0.082 C 
HETATM   15  C   UNL     1      23.308  42.101  49.255  1.00  0.00     0.001 A 
HETATM   16  C   UNL     1      24.494  41.699  48.647  1.00  0.00     0.001 A 
ENDBRANCH   1   5
BRANCH   2  17
HETATM   17  C   UNL     1      27.617  46.177  54.283  1.00  0.00     0.708 A 
HETATM   18  N   UNL     1      27.898  44.962  53.882  1.00  0.00    -0.062 NA
HETATM   19  C   UNL     1      28.950  44.546  54.665  1.00  0.00     0.103 A 
HETATM   20  C   UNL     1      29.320  45.543  55.560  1.00  0.00     0.078 A 
HETATM   21  C   UNL     1      29.637  43.325  54.671  1.00  0.00     0.034 A 
HETATM   22  N   UNL     1      28.465  46.579  55.285  1.00  0.00    -0.188 N 
HETATM   23  C   UNL     1      30.353  45.396  56.487  1.00  0.00     0.032 A 
HETATM   24  H   UNL     1      28.456  47.470  55.759  1.00  0.00     0.184 HD
HETATM   25  C   UNL     1      31.027  44.169  56.483  1.00  0.00     0.002 A 
HETATM   26  C   UNL     1      30.679  43.151  55.592  1.00  0.00     0.002 A 
ENDBRANCH   2  17
TORSDOF 2
ENDMDL
MODEL 7
REMARK VINA RESULT:      -8.1     15.303     17.561
REMARK  2 active torsions:
REMARK  status: ('A' for Active; 'I' for Inactive)
REMARK    1  A    between atoms: C_9  and  C_10 
REMARK       I    between atoms: C_10  and  N_11 
REMARK    2  A    between atoms: N_11  and  C_12 
ROOT
HETATM    1  C   UNL     1      35.388  44.273  65.957  1.00  0.00     0.267 C 
HETATM    2  N   UNL     1      35.313  45.552  66.414  1.00  0.00    -0.156 N 
HETATM    3  O   UNL     1      34.401  43.532  66.078  1.00  0.00    -0.270 OA
HETATM    4  H   UNL     1      34.447  45.810  66.872  1.00  0.00     0.187 HD
ENDROOT
BRANCH   1   5
HETATM    5  C   UNL     1      36.655  43.691  65.294  1.00  0.00     0.282 C 
HETATM    6  N   UNL     1      36.589  43.995  63.793  1.00  0.00    -0.058 N 
HETATM    7  C   UNL     1      37.804  43.568  63.064  1.00  0.00     0.272 C 
HETATM    8  H   UNL     1      35.752  43.528  63.416  1.00  0.00     0.278 HD
HETATM    9  H   UNL     1      36.403  44.998  63.668  1.00  0.00     0.278 HD
HETATM   10  C   UNL     1      38.213  42.161  63.391  1.00  0.00    -0.026 A 
HETATM   11  C   UNL     1      37.727  41.509  64.542  1.00  0.00    -0.048 A 
HETATM   12  C   UNL     1      39.139  41.504  62.568  1.00  0.00     0.009 A 
HETATM   13  C   UNL     1      38.153  40.203  64.828  1.00  0.00     0.008 A 
HETATM   14  C   UNL     1      36.706  42.163  65.444  1.00  0.00     0.082 C 
HETATM   15  C   UNL     1      39.067  39.560  63.997  1.00  0.00     0.001 A 
HETATM   16  C   UNL     1      39.561  40.210  62.869  1.00  0.00     0.001 A 
ENDBRANCH   1   5
BRANCH   2  17
HETATM   17  C   UNL     1      36.280  46.499  66.211  1.00  0.00     0.708 A 
HETATM   18  N   UNL     1      36.461  47.220  65.131  1.00  0.00    -0.062 NA
HETATM   19  C   UNL     1      37.557  48.009  65.391  1.00  0.00     0.103 A 
HETATM   20  C   UNL     1      38.046  47.765  66.669  1.00  0.00     0.078 A 
HETATM   21  C   UNL     1      38.195  48.956  64.579  1.00  0.00     0.034 A 
HETATM   22  N   UNL     1      37.204  46.809  67.177  1.00  0.00    -0.188 N 
HETATM   23  C   UNL     1      39.160  48.416  67.201  1.00  0.00     0.032 A 
HETATM   24  H   UNL     1      37.275  46.397  68.096  1.00  0.00     0.184 HD
HETATM   25  C   UNL     1      39.789  49.356  66.375  1.00  0.00     0.002 A 
HETATM   26  C   UNL     1      39.316  49.625  65.088  1.00  0.00     0.002 A 
ENDBRANCH   2  17
TORSDOF 2
ENDMDL
MODEL 8
REMARK VINA RESULT:      -8.1      2.736      4.475
REMARK  2 active torsions:
REMARK  status: ('A' for Active; 'I' for Inactive)
REMARK    1  A    between atoms: C_9  and  C_10 
REMARK       I    between atoms: C_10  and  N_11 
REMARK    2  A    between atoms: N_11  and  C_12 
ROOT
HETATM    1  C   UNL     1      28.491  41.760  52.448  1.00  0.00     0.267 C 
HETATM    2  N   UNL     1      27.759  42.089  51.349  1.00  0.00    -0.156 N 
HETATM    3  O   UNL     1      29.130  40.698  52.450  1.00  0.00    -0.270 OA
HETATM    4  H   UNL     1      27.751  41.406  50.600  1.00  0.00     0.187 HD
ENDROOT
BRANCH   1   5
HETATM    5  C   UNL     1      28.561  42.651  53.707  1.00  0.00     0.282 C 
HETATM    6  N   UNL     1      28.598  44.115  53.252  1.00  0.00    -0.058 N 
HETATM    7  C   UNL     1      28.568  45.071  54.382  1.00  0.00     0.272 C 
HETATM    8  H   UNL     1      29.447  44.245  52.685  1.00  0.00     0.278 HD
HETATM    9  H   UNL     1      27.823  44.276  52.597  1.00  0.00     0.278 HD
HETATM   10  C   UNL     1      29.562  44.733  55.455  1.00  0.00    -0.026 A 
HETATM   11  C   UNL     1      30.139  43.450  55.537  1.00  0.00    -0.048 A 
HETATM   12  C   UNL     1      29.878  45.693  56.427  1.00  0.00     0.009 A 
HETATM   13  C   UNL     1      31.045  43.164  56.570  1.00  0.00     0.008 A 
HETATM   14  C   UNL     1      29.852  42.391  54.497  1.00  0.00     0.082 C 
HETATM   15  C   UNL     1      31.355  44.131  57.524  1.00  0.00     0.001 A 
HETATM   16  C   UNL     1      30.772  45.393  57.454  1.00  0.00     0.001 A 
ENDBRANCH   1   5
BRANCH   2  17
HETATM   17  C   UNL     1      27.131  43.292  51.175  1.00  0.00     0.708 A 
HETATM   18  N   UNL     1      26.035  43.700  51.767  1.00  0.00    -0.062 NA
HETATM   19  C   UNL     1      25.785  44.954  51.261  1.00  0.00     0.103 A 
HETATM   20  C   UNL     1      26.763  45.318  50.343  1.00  0.00     0.078 A 
HETATM   21  C   UNL     1      24.735  45.841  51.536  1.00  0.00     0.034 A 
HETATM   22  N   UNL     1      27.619  44.247  50.318  1.00  0.00    -0.188 N 
HETATM   23  C   UNL     1      26.759  46.535  49.661  1.00  0.00     0.032 A 
HETATM   24  H   UNL     1      28.449  44.175  49.748  1.00  0.00     0.184 HD
HETATM   25  C   UNL     1      25.702  47.408  49.944  1.00  0.00     0.002 A 
HETATM   26  C   UNL     1      24.708  47.071  50.866  1.00  0.00     0.002 A 
ENDBRANCH   2  17
TORSDOF 2
ENDMDL
MODEL 9
REMARK VINA RESULT:      -8.0      7.026      9.751
REMARK  2 active torsions:
REMARK  status: ('A' for Active; 'I' for Inactive)
REMARK    1  A    between atoms: C_9  and  C_10 
REMARK       I    between atoms: C_10  and  N_11 
REMARK    2  A    between atoms: N_11  and  C_12 
ROOT
HETATM    1  C   UNL     1      21.225  46.145  47.944  1.00  0.00     0.267 C 
HETATM    2  N   UNL     1      22.382  45.461  48.154  1.00  0.00    -0.156 N 
HETATM    3  O   UNL     1      20.445  45.755  47.063  1.00  0.00    -0.270 OA
HETATM    4  H   UNL     1      22.555  44.681  47.530  1.00  0.00     0.187 HD
ENDROOT
BRANCH   1   5
HETATM    5  C   UNL     1      20.832  47.399  48.756  1.00  0.00     0.282 C 
HETATM    6  N   UNL     1      19.440  47.162  49.353  1.00  0.00    -0.058 N 
HETATM    7  C   UNL     1      18.996  48.263  50.236  1.00  0.00     0.272 C 
HETATM    8  H   UNL     1      18.783  47.033  48.571  1.00  0.00     0.278 HD
HETATM    9  H   UNL     1      19.440  46.258  49.842  1.00  0.00     0.278 HD
HETATM   10  C   UNL     1      19.180  49.617  49.614  1.00  0.00    -0.026 A 
HETATM   11  C   UNL     1      20.035  49.803  48.510  1.00  0.00    -0.048 A 
HETATM   12  C   UNL     1      18.533  50.727  50.177  1.00  0.00     0.009 A 
HETATM   13  C   UNL     1      20.200  51.088  47.972  1.00  0.00     0.008 A 
HETATM   14  C   UNL     1      20.732  48.635  47.850  1.00  0.00     0.082 C 
HETATM   15  C   UNL     1      19.544  52.179  48.537  1.00  0.00     0.001 A 
HETATM   16  C   UNL     1      18.713  52.000  49.638  1.00  0.00     0.001 A 
ENDBRANCH   1   5
BRANCH   2  17
HETATM   17  C   UNL     1      23.247  45.709  49.184  1.00  0.00     0.708 A 
HETATM   18  N   UNL     1      24.012  46.763  49.333  1.00  0.00    -0.062 NA
HETATM   19  C   UNL     1      24.710  46.553  50.500  1.00  0.00     0.103 A 
HETATM   20  C   UNL     1      24.348  45.342  51.077  1.00  0.00     0.078 A 
HETATM   21  C   UNL     1      25.673  47.355  51.126  1.00  0.00     0.034 A 
HETATM   22  N   UNL     1      23.402  44.830  50.227  1.00  0.00    -0.188 N 
HETATM   23  C   UNL     1      24.904  44.864  52.265  1.00  0.00     0.032 A 
HETATM   24  H   UNL     1      22.926  43.948  50.347  1.00  0.00     0.184 HD
HETATM   25  C   UNL     1      25.868  45.674  52.875  1.00  0.00     0.002 A 
HETATM   26  C   UNL     1      26.247  46.898  52.320  1.00  0.00     0.002 A 
ENDBRANCH   2  17
TORSDOF 2
ENDMDL
MODEL 10
REMARK VINA RESULT:      -8.0     15.427     17.324
REMARK  2 active torsions:
REMARK  status: ('A' for Active; 'I' for Inactive)
REMARK    1  A    between atoms: C_9  and  C_10 
REMARK       I    between atoms: C_10  and  N_11 
REMARK    2  A    between atoms: N_11  and  C_12 
ROOT
HETATM    1  C   UNL     1      37.228  44.844  63.845  1.00  0.00     0.267 C 
HETATM    2  N   UNL     1      36.928  43.586  63.422  1.00  0.00    -0.156 N 
HETATM    3  O   UNL     1      36.405  45.753  63.663  1.00  0.00    -0.270 OA
HETATM    4  H   UNL     1      36.045  43.480  62.935  1.00  0.00     0.187 HD
ENDROOT
BRANCH   1   5
HETATM    5  C   UNL     1      38.559  45.200  64.542  1.00  0.00     0.282 C 
HETATM    6  N   UNL     1      38.609  46.723  64.721  1.00  0.00    -0.058 N 
HETATM    7  C   UNL     1      39.802  47.176  65.470  1.00  0.00     0.272 C 
HETATM    8  H   UNL     1      38.581  47.148  63.784  1.00  0.00     0.278 HD
HETATM    9  H   UNL     1      37.738  47.031  65.171  1.00  0.00     0.278 HD
HETATM   10  C   UNL     1      41.076  46.573  64.954  1.00  0.00    -0.026 A 
HETATM   11  C   UNL     1      41.061  45.425  64.136  1.00  0.00    -0.048 A 
HETATM   12  C   UNL     1      42.306  47.127  65.338  1.00  0.00     0.009 A 
HETATM   13  C   UNL     1      42.274  44.875  63.695  1.00  0.00     0.008 A 
HETATM   14  C   UNL     1      39.762  44.808  63.672  1.00  0.00     0.082 C 
HETATM   15  C   UNL     1      43.487  45.441  64.078  1.00  0.00     0.001 A 
HETATM   16  C   UNL     1      43.504  46.565  64.900  1.00  0.00     0.001 A 
ENDBRANCH   1   5
BRANCH   2  17
HETATM   17  C   UNL     1      37.690  42.482  63.691  1.00  0.00     0.708 A 
HETATM   18  N   UNL     1      37.957  41.979  64.871  1.00  0.00    -0.062 NA
HETATM   19  C   UNL     1      38.769  40.893  64.637  1.00  0.00     0.103 A 
HETATM   20  C   UNL     1      38.991  40.731  63.275  1.00  0.00     0.078 A 
HETATM   21  C   UNL     1      39.359  40.002  65.543  1.00  0.00     0.034 A 
HETATM   22  N   UNL     1      38.279  41.747  62.692  1.00  0.00    -0.188 N 
HETATM   23  C   UNL     1      39.787  39.715  62.744  1.00  0.00     0.032 A 
HETATM   24  H   UNL     1      38.223  41.927  61.700  1.00  0.00     0.184 HD
HETATM   25  C   UNL     1      40.373  38.835  63.662  1.00  0.00     0.002 A 
HETATM   26  C   UNL     1      40.163  38.972  65.037  1.00  0.00     0.002 A 
ENDBRANCH   2  17
TORSDOF 2
ENDMDL
