MODEL 1
REMARK VINA RESULT:     -10.1      0.000      0.000
REMARK  6 active torsions:
REMARK  status: ('A' for Active; 'I' for Inactive)
REMARK    1  A    between atoms: O_2  and  C_3 
REMARK    2  A    between atoms: C_6  and  C_7 
REMARK    3  A    between atoms: C_12  and  C_13 
REMARK       I    between atoms: C_13  and  N_14 
REMARK    4  A    between atoms: N_14  and  C_15 
REMARK    5  A    between atoms: C_15  and  C_16 
REMARK    6  A    between atoms: C_24  and  C_25 
ROOT
HETATM    1  C   UNL     1      26.687  44.035  53.656  1.00  0.00     0.118 C 
HETATM    2  N   UNL     1      26.739  44.293  52.224  1.00  0.00    -0.366 N 
HETATM    3  C   UNL     1      26.381  45.479  51.691  1.00  0.00     0.123 A 
HETATM    4  N   UNL     1      25.822  46.472  52.447  1.00  0.00    -0.240 N 
HETATM    5  N   UNL     1      25.508  47.578  51.745  1.00  0.00    -0.165 NA
HETATM    6  C   UNL     1      25.925  47.287  50.491  1.00  0.00     0.148 A 
HETATM    7  C   UNL     1      26.464  45.974  50.419  1.00  0.00     0.088 A 
HETATM    8  C   UNL     1      25.542  46.364  53.865  1.00  0.00     0.221 C 
HETATM    9  C   UNL     1      25.605  44.896  54.332  1.00  0.00     0.066 C 
HETATM   10  H   UNL     1      27.295  43.628  51.685  1.00  0.00     0.161 HD
ENDROOT
BRANCH   6  11
HETATM   11  C   UNL     1      25.827  48.247  49.382  1.00  0.00     0.272 C 
HETATM   12  N   UNL     1      24.572  48.784  49.232  1.00  0.00    -0.351 N 
HETATM   13  H   UNL     1      23.858  48.456  49.877  1.00  0.00     0.163 HD
HETATM   14  O   UNL     1      26.789  48.546  48.682  1.00  0.00    -0.266 OA
BRANCH  12  15
HETATM   15  C   UNL     1      24.259  49.791  48.251  1.00  0.00     0.161 C 
BRANCH  15  16
HETATM   16  C   UNL     1      22.837  50.287  48.354  1.00  0.00    -0.041 A 
HETATM   17  C   UNL     1      21.933  50.165  47.286  1.00  0.00     0.009 A 
HETATM   18  C   UNL     1      20.610  50.588  47.420  1.00  0.00     0.001 A 
HETATM   19  C   UNL     1      20.166  51.120  48.629  1.00  0.00     0.000 A 
HETATM   20  C   UNL     1      21.045  51.229  49.703  1.00  0.00     0.001 A 
HETATM   21  C   UNL     1      22.371  50.812  49.568  1.00  0.00     0.009 A 
ENDBRANCH  15  16
ENDBRANCH  12  15
ENDBRANCH   6  11
BRANCH   8  22
HETATM   22  C   UNL     1      26.429  47.299  54.657  1.00  0.00     0.409 C 
HETATM   23  F   UNL     1      27.636  47.511  54.100  1.00  0.00    -0.169 F 
HETATM   24  F   UNL     1      25.852  48.511  54.838  1.00  0.00    -0.169 F 
HETATM   25  F   UNL     1      26.645  46.798  55.900  1.00  0.00    -0.169 F 
ENDBRANCH   8  22
BRANCH   1  26
HETATM   26  C   UNL     1      28.054  44.095  54.312  1.00  0.00    -0.035 A 
HETATM   27  C   UNL     1      28.378  45.007  55.327  1.00  0.00     0.012 A 
HETATM   28  C   UNL     1      29.646  45.011  55.923  1.00  0.00     0.037 A 
HETATM   29  C   UNL     1      30.622  44.113  55.500  1.00  0.00     0.068 A 
HETATM   30  C   UNL     1      30.328  43.229  54.463  1.00  0.00     0.037 A 
HETATM   31  C   UNL     1      29.056  43.211  53.882  1.00  0.00     0.012 A 
BRANCH  29  32
HETATM   32  O   UNL     1      31.890  44.017  56.002  1.00  0.00    -0.356 OA
HETATM   33  C   UNL     1      32.018  43.381  57.268  1.00  0.00     0.210 C 
ENDBRANCH  29  32
ENDBRANCH   1  26
TORSDOF 6
ENDMDL
MODEL 2
REMARK VINA RESULT:      -9.5      6.805     10.199
REMARK  6 active torsions:
REMARK  status: ('A' for Active; 'I' for Inactive)
REMARK    1  A    between atoms: O_2  and  C_3 
REMARK    2  A    between atoms: C_6  and  C_7 
REMARK    3  A    between atoms: C_12  and  C_13 
REMARK       I    between atoms: C_13  and  N_14 
REMARK    4  A    between atoms: N_14  and  C_15 
REMARK    5  A    between atoms: C_15  and  C_16 
REMARK    6  A    between atoms: C_24  and  C_25 
ROOT
HETATM    1  C   UNL     1      26.225  38.205  47.775  1.00  0.00     0.118 C 
HETATM    2  N   UNL     1      25.569  39.459  48.122  1.00  0.00    -0.366 N 
HETATM    3  C   UNL     1      25.972  40.220  49.159  1.00  0.00     0.123 A 
HETATM    4  N   UNL     1      26.936  39.800  50.033  1.00  0.00    -0.240 N 
HETATM    5  N   UNL     1      27.194  40.679  51.021  1.00  0.00    -0.165 NA
HETATM    6  C   UNL     1      26.383  41.724  50.736  1.00  0.00     0.148 A 
HETATM    7  C   UNL     1      25.592  41.463  49.584  1.00  0.00     0.088 A 
HETATM    8  C   UNL     1      27.609  38.518  49.958  1.00  0.00     0.221 C 
HETATM    9  C   UNL     1      26.860  37.554  49.016  1.00  0.00     0.066 C 
HETATM   10  H   UNL     1      24.969  39.848  47.394  1.00  0.00     0.161 HD
ENDROOT
BRANCH   6  11
HETATM   11  C   UNL     1      26.370  42.957  51.537  1.00  0.00     0.272 C 
HETATM   12  N   UNL     1      26.641  42.748  52.867  1.00  0.00    -0.351 N 
HETATM   13  H   UNL     1      26.801  41.786  53.152  1.00  0.00     0.163 HD
HETATM   14  O   UNL     1      26.159  44.061  51.045  1.00  0.00    -0.266 OA
BRANCH  12  15
HETATM   15  C   UNL     1      26.742  43.818  53.826  1.00  0.00     0.161 C 
BRANCH  15  16
HETATM   16  C   UNL     1      28.125  43.945  54.418  1.00  0.00    -0.041 A 
HETATM   17  C   UNL     1      28.492  45.049  55.205  1.00  0.00     0.009 A 
HETATM   18  C   UNL     1      29.761  45.123  55.782  1.00  0.00     0.001 A 
HETATM   19  C   UNL     1      30.673  44.086  55.597  1.00  0.00     0.000 A 
HETATM   20  C   UNL     1      30.317  42.975  54.836  1.00  0.00     0.001 A 
HETATM   21  C   UNL     1      29.049  42.903  54.254  1.00  0.00     0.009 A 
ENDBRANCH  15  16
ENDBRANCH  12  15
ENDBRANCH   6  11
BRANCH   8  22
HETATM   22  C   UNL     1      29.070  38.703  49.613  1.00  0.00     0.409 C 
HETATM   23  F   UNL     1      29.598  37.689  48.902  1.00  0.00    -0.169 F 
HETATM   24  F   UNL     1      29.284  39.841  48.911  1.00  0.00    -0.169 F 
HETATM   25  F   UNL     1      29.807  38.821  50.748  1.00  0.00    -0.169 F 
ENDBRANCH   8  22
BRANCH   1  26
HETATM   26  C   UNL     1      27.150  38.340  46.579  1.00  0.00    -0.035 A 
HETATM   27  C   UNL     1      27.893  37.269  46.060  1.00  0.00     0.012 A 
HETATM   28  C   UNL     1      28.716  37.432  44.939  1.00  0.00     0.037 A 
HETATM   29  C   UNL     1      28.826  38.677  44.325  1.00  0.00     0.068 A 
HETATM   30  C   UNL     1      28.126  39.760  44.854  1.00  0.00     0.037 A 
HETATM   31  C   UNL     1      27.289  39.593  45.961  1.00  0.00     0.012 A 
BRANCH  29  32
HETATM   32  O   UNL     1      29.591  38.961  43.227  1.00  0.00    -0.356 OA
HETATM   33  C   UNL     1      29.726  40.338  42.895  1.00  0.00     0.210 C 
ENDBRANCH  29  32
ENDBRANCH   1  26
TORSDOF 6
ENDMDL
MODEL 3
REMARK VINA RESULT:      -9.4      4.667     11.445
REMARK  6 active torsions:
REMARK  status: ('A' for Active; 'I' for Inactive)
REMARK    1  A    between atoms: O_2  and  C_3 
REMARK    2  A    between atoms: C_6  and  C_7 
REMARK    3  A    between atoms: C_12  and  C_13 
REMARK       I    between atoms: C_13  and  N_14 
REMARK    4  A    between atoms: N_14  and  C_15 
REMARK    5  A    between atoms: C_15  and  C_16 
REMARK    6  A    between atoms: C_24  and  C_25 
ROOT
HETATM    1  C   UNL     1      18.471  51.456  49.303  1.00  0.00     0.118 C 
HETATM    2  N   UNL     1      19.816  51.887  48.946  1.00  0.00    -0.366 N 
HETATM    3  C   UNL     1      20.865  51.041  48.938  1.00  0.00     0.123 A 
HETATM    4  N   UNL     1      20.762  49.755  49.392  1.00  0.00    -0.240 N 
HETATM    5  N   UNL     1      21.915  49.062  49.330  1.00  0.00    -0.165 NA
HETATM    6  C   UNL     1      22.783  49.939  48.773  1.00  0.00     0.148 A 
HETATM    7  C   UNL     1      22.161  51.194  48.529  1.00  0.00     0.088 A 
HETATM    8  C   UNL     1      19.549  49.171  49.932  1.00  0.00     0.221 C 
HETATM    9  C   UNL     1      18.514  50.262  50.274  1.00  0.00     0.066 C 
HETATM   10  H   UNL     1      19.868  52.784  48.463  1.00  0.00     0.161 HD
ENDROOT
BRANCH   6  11
HETATM   11  C   UNL     1      24.176  49.586  48.465  1.00  0.00     0.272 C 
HETATM   12  N   UNL     1      24.747  48.748  49.392  1.00  0.00    -0.351 N 
HETATM   13  H   UNL     1      24.165  48.483  50.182  1.00  0.00     0.163 HD
HETATM   14  O   UNL     1      24.751  49.989  47.459  1.00  0.00    -0.266 OA
BRANCH  12  15
HETATM   15  C   UNL     1      26.081  48.224  49.261  1.00  0.00     0.161 C 
BRANCH  15  16
HETATM   16  C   UNL     1      26.342  47.052  50.177  1.00  0.00    -0.041 A 
HETATM   17  C   UNL     1      25.983  47.080  51.534  1.00  0.00     0.009 A 
HETATM   18  C   UNL     1      26.190  45.967  52.350  1.00  0.00     0.001 A 
HETATM   19  C   UNL     1      26.741  44.803  51.817  1.00  0.00     0.000 A 
HETATM   20  C   UNL     1      27.084  44.753  50.468  1.00  0.00     0.001 A 
HETATM   21  C   UNL     1      26.882  45.868  49.652  1.00  0.00     0.009 A 
ENDBRANCH  15  16
ENDBRANCH  12  15
ENDBRANCH   6  11
BRANCH   8  22
HETATM   22  C   UNL     1      19.024  48.089  49.016  1.00  0.00     0.409 C 
HETATM   23  F   UNL     1      17.714  47.824  49.176  1.00  0.00    -0.169 F 
HETATM   24  F   UNL     1      19.216  48.395  47.711  1.00  0.00    -0.169 F 
HETATM   25  F   UNL     1      19.695  46.928  49.230  1.00  0.00    -0.169 F 
ENDBRANCH   8  22
BRANCH   1  26
HETATM   26  C   UNL     1      17.577  51.264  48.092  1.00  0.00    -0.035 A 
HETATM   27  C   UNL     1      16.347  50.591  48.145  1.00  0.00     0.012 A 
HETATM   28  C   UNL     1      15.542  50.458  47.007  1.00  0.00     0.037 A 
HETATM   29  C   UNL     1      15.960  50.981  45.787  1.00  0.00     0.068 A 
HETATM   30  C   UNL     1      17.198  51.617  45.709  1.00  0.00     0.037 A 
HETATM   31  C   UNL     1      17.994  51.767  46.849  1.00  0.00     0.012 A 
BRANCH  29  32
HETATM   32  O   UNL     1      15.265  50.919  44.611  1.00  0.00    -0.356 OA
HETATM   33  C   UNL     1      13.953  51.468  44.627  1.00  0.00     0.210 C 
ENDBRANCH  29  32
ENDBRANCH   1  26
TORSDOF 6
ENDMDL
MODEL 4
REMARK VINA RESULT:      -9.3     12.777     15.658
REMARK  6 active torsions:
REMARK  status: ('A' for Active; 'I' for Inactive)
REMARK    1  A    between atoms: O_2  and  C_3 
REMARK    2  A    between atoms: C_6  and  C_7 
REMARK    3  A    between atoms: C_12  and  C_13 
REMARK       I    between atoms: C_13  and  N_14 
REMARK    4  A    between atoms: N_14  and  C_15 
REMARK    5  A    between atoms: C_15  and  C_16 
REMARK    6  A    between atoms: C_24  and  C_25 
ROOT
HETATM    1  C   UNL     1      29.217  50.362  39.966  1.00  0.00     0.118 C 
HETATM    2  N   UNL     1      30.137  51.025  39.053  1.00  0.00    -0.366 N 
HETATM    3  C   UNL     1      31.337  51.493  39.452  1.00  0.00     0.123 A 
HETATM    4  N   UNL     1      31.711  51.495  40.768  1.00  0.00    -0.240 N 
HETATM    5  N   UNL     1      32.932  52.020  40.984  1.00  0.00    -0.165 NA
HETATM    6  C   UNL     1      33.370  52.330  39.742  1.00  0.00     0.148 A 
HETATM    7  C   UNL     1      32.388  52.027  38.760  1.00  0.00     0.088 A 
HETATM    8  C   UNL     1      30.881  51.020  41.857  1.00  0.00     0.221 C 
HETATM    9  C   UNL     1      29.414  50.863  41.408  1.00  0.00     0.066 C 
HETATM   10  H   UNL     1      29.938  50.886  38.061  1.00  0.00     0.161 HD
ENDROOT
BRANCH   6  11
HETATM   11  C   UNL     1      34.705  52.893  39.491  1.00  0.00     0.272 C 
HETATM   12  N   UNL     1      34.733  54.266  39.510  1.00  0.00    -0.351 N 
HETATM   13  H   UNL     1      33.848  54.735  39.674  1.00  0.00     0.163 HD
HETATM   14  O   UNL     1      35.693  52.189  39.308  1.00  0.00    -0.266 OA
BRANCH  12  15
HETATM   15  C   UNL     1      35.944  55.029  39.350  1.00  0.00     0.161 C 
BRANCH  15  16
HETATM   16  C   UNL     1      35.687  56.448  38.902  1.00  0.00    -0.041 A 
HETATM   17  C   UNL     1      36.516  57.090  37.969  1.00  0.00     0.009 A 
HETATM   18  C   UNL     1      36.231  58.385  37.534  1.00  0.00     0.001 A 
HETATM   19  C   UNL     1      35.103  59.050  38.011  1.00  0.00     0.000 A 
HETATM   20  C   UNL     1      34.260  58.419  38.922  1.00  0.00     0.001 A 
HETATM   21  C   UNL     1      34.547  57.125  39.362  1.00  0.00     0.009 A 
ENDBRANCH  15  16
ENDBRANCH  12  15
ENDBRANCH   6  11
BRANCH   8  22
HETATM   22  C   UNL     1      31.472  49.771  42.473  1.00  0.00     0.409 C 
HETATM   23  F   UNL     1      32.241  49.056  41.631  1.00  0.00    -0.169 F 
HETATM   24  F   UNL     1      32.224  50.053  43.563  1.00  0.00    -0.169 F 
HETATM   25  F   UNL     1      30.481  48.949  42.905  1.00  0.00    -0.169 F 
ENDBRANCH   8  22
BRANCH   1  26
HETATM   26  C   UNL     1      29.220  48.853  39.807  1.00  0.00    -0.035 A 
HETATM   27  C   UNL     1      30.038  48.180  38.888  1.00  0.00     0.012 A 
HETATM   28  C   UNL     1      30.027  46.783  38.793  1.00  0.00     0.037 A 
HETATM   29  C   UNL     1      29.181  46.031  39.603  1.00  0.00     0.068 A 
HETATM   30  C   UNL     1      28.332  46.688  40.492  1.00  0.00     0.037 A 
HETATM   31  C   UNL     1      28.357  48.081  40.602  1.00  0.00     0.012 A 
BRANCH  29  32
HETATM   32  O   UNL     1      29.081  44.667  39.606  1.00  0.00    -0.356 OA
HETATM   33  C   UNL     1      27.807  44.132  39.944  1.00  0.00     0.210 C 
ENDBRANCH  29  32
ENDBRANCH   1  26
TORSDOF 6
ENDMDL
MODEL 5
REMARK VINA RESULT:      -9.1     12.569     15.445
REMARK  6 active torsions:
REMARK  status: ('A' for Active; 'I' for Inactive)
REMARK    1  A    between atoms: O_2  and  C_3 
REMARK    2  A    between atoms: C_6  and  C_7 
REMARK    3  A    between atoms: C_12  and  C_13 
REMARK       I    between atoms: C_13  and  N_14 
REMARK    4  A    between atoms: N_14  and  C_15 
REMARK    5  A    between atoms: C_15  and  C_16 
REMARK    6  A    between atoms: C_24  and  C_25 
ROOT
HETATM    1  C   UNL     1      29.488  50.387  39.810  1.00  0.00     0.118 C 
HETATM    2  N   UNL     1      30.538  50.965  38.983  1.00  0.00    -0.366 N 
HETATM    3  C   UNL     1      31.711  51.385  39.497  1.00  0.00     0.123 A 
HETATM    4  N   UNL     1      31.941  51.417  40.844  1.00  0.00    -0.240 N 
HETATM    5  N   UNL     1      33.159  51.885  41.177  1.00  0.00    -0.165 NA
HETATM    6  C   UNL     1      33.745  52.124  39.980  1.00  0.00     0.148 A 
HETATM    7  C   UNL     1      32.860  51.835  38.907  1.00  0.00     0.088 A 
HETATM    8  C   UNL     1      30.972  51.029  41.851  1.00  0.00     0.221 C 
HETATM    9  C   UNL     1      29.556  50.932  41.248  1.00  0.00     0.066 C 
HETATM   10  H   UNL     1      30.439  50.799  37.981  1.00  0.00     0.161 HD
ENDROOT
BRANCH   6  11
HETATM   11  C   UNL     1      35.129  52.605  39.860  1.00  0.00     0.272 C 
HETATM   12  N   UNL     1      35.709  52.915  41.065  1.00  0.00    -0.351 N 
HETATM   13  H   UNL     1      35.128  52.799  41.891  1.00  0.00     0.163 HD
HETATM   14  O   UNL     1      35.705  52.692  38.780  1.00  0.00    -0.266 OA
BRANCH  12  15
HETATM   15  C   UNL     1      37.076  53.347  41.193  1.00  0.00     0.161 C 
BRANCH  15  16
HETATM   16  C   UNL     1      37.377  53.952  42.543  1.00  0.00    -0.041 A 
HETATM   17  C   UNL     1      36.992  53.321  43.737  1.00  0.00     0.009 A 
HETATM   18  C   UNL     1      37.323  53.875  44.975  1.00  0.00     0.001 A 
HETATM   19  C   UNL     1      38.058  55.057  45.037  1.00  0.00     0.000 A 
HETATM   20  C   UNL     1      38.464  55.684  43.862  1.00  0.00     0.001 A 
HETATM   21  C   UNL     1      38.129  55.133  42.623  1.00  0.00     0.009 A 
ENDBRANCH  15  16
ENDBRANCH  12  15
ENDBRANCH   6  11
BRANCH   8  22
HETATM   22  C   UNL     1      31.422  49.775  42.568  1.00  0.00     0.409 C 
HETATM   23  F   UNL     1      30.414  48.963  42.935  1.00  0.00    -0.169 F 
HETATM   24  F   UNL     1      32.277  49.042  41.817  1.00  0.00    -0.169 F 
HETATM   25  F   UNL     1      32.103  50.102  43.697  1.00  0.00    -0.169 F 
ENDBRANCH   8  22
BRANCH   1  26
HETATM   26  C   UNL     1      29.423  48.875  39.702  1.00  0.00    -0.035 A 
HETATM   27  C   UNL     1      30.288  48.126  38.891  1.00  0.00     0.012 A 
HETATM   28  C   UNL     1      30.208  46.729  38.840  1.00  0.00     0.037 A 
HETATM   29  C   UNL     1      29.247  46.053  39.588  1.00  0.00     0.068 A 
HETATM   30  C   UNL     1      28.354  46.786  40.367  1.00  0.00     0.037 A 
HETATM   31  C   UNL     1      28.445  48.180  40.433  1.00  0.00     0.012 A 
BRANCH  29  32
HETATM   32  O   UNL     1      29.072  44.697  39.625  1.00  0.00    -0.356 OA
HETATM   33  C   UNL     1      29.207  44.012  38.386  1.00  0.00     0.210 C 
ENDBRANCH  29  32
ENDBRANCH   1  26
TORSDOF 6
ENDMDL
MODEL 6
REMARK VINA RESULT:      -9.1     17.705     19.127
REMARK  6 active torsions:
REMARK  status: ('A' for Active; 'I' for Inactive)
REMARK    1  A    between atoms: O_2  and  C_3 
REMARK    2  A    between atoms: C_6  and  C_7 
REMARK    3  A    between atoms: C_12  and  C_13 
REMARK       I    between atoms: C_13  and  N_14 
REMARK    4  A    between atoms: N_14  and  C_15 
REMARK    5  A    between atoms: C_15  and  C_16 
REMARK    6  A    between atoms: C_24  and  C_25 
ROOT
HETATM    1  C   UNL     1      39.406  41.780  63.091  1.00  0.00     0.118 C 
HETATM    2  N   UNL     1      40.352  42.888  63.078  1.00  0.00    -0.366 N 
HETATM    3  C   UNL     1      40.059  44.093  63.607  1.00  0.00     0.123 A 
HETATM    4  N   UNL     1      38.808  44.394  64.071  1.00  0.00    -0.240 N 
HETATM    5  N   UNL     1      38.691  45.651  64.542  1.00  0.00    -0.165 NA
HETATM    6  C   UNL     1      39.939  46.157  64.408  1.00  0.00     0.148 A 
HETATM    7  C   UNL     1      40.817  45.213  63.812  1.00  0.00     0.088 A 
HETATM    8  C   UNL     1      37.680  43.485  64.036  1.00  0.00     0.221 C 
HETATM    9  C   UNL     1      37.956  42.295  63.095  1.00  0.00     0.066 C 
HETATM   10  H   UNL     1      41.320  42.628  62.885  1.00  0.00     0.161 HD
ENDROOT
BRANCH   6  11
HETATM   11  C   UNL     1      40.294  47.512  64.854  1.00  0.00     0.272 C 
HETATM   12  N   UNL     1      39.354  48.460  64.530  1.00  0.00    -0.351 N 
HETATM   13  H   UNL     1      38.542  48.134  64.014  1.00  0.00     0.163 HD
HETATM   14  O   UNL     1      41.325  47.753  65.475  1.00  0.00    -0.266 OA
BRANCH  12  15
HETATM   15  C   UNL     1      39.464  49.841  64.919  1.00  0.00     0.161 C 
BRANCH  15  16
HETATM   16  C   UNL     1      38.546  50.202  66.063  1.00  0.00    -0.041 A 
HETATM   17  C   UNL     1      37.870  49.221  66.805  1.00  0.00     0.009 A 
HETATM   18  C   UNL     1      37.064  49.574  67.888  1.00  0.00     0.001 A 
HETATM   19  C   UNL     1      36.938  50.912  68.257  1.00  0.00     0.000 A 
HETATM   20  C   UNL     1      37.618  51.896  67.543  1.00  0.00     0.001 A 
HETATM   21  C   UNL     1      38.420  51.543  66.455  1.00  0.00     0.009 A 
ENDBRANCH  15  16
ENDBRANCH  12  15
ENDBRANCH   6  11
BRANCH   8  22
HETATM   22  C   UNL     1      37.278  43.080  65.437  1.00  0.00     0.409 C 
HETATM   23  F   UNL     1      38.300  43.043  66.311  1.00  0.00    -0.169 F 
HETATM   24  F   UNL     1      36.338  43.908  65.952  1.00  0.00    -0.169 F 
HETATM   25  F   UNL     1      36.718  41.842  65.423  1.00  0.00    -0.169 F 
ENDBRANCH   8  22
BRANCH   1  26
HETATM   26  C   UNL     1      39.723  40.752  64.161  1.00  0.00    -0.035 A 
HETATM   27  C   UNL     1      39.063  39.518  64.259  1.00  0.00     0.012 A 
HETATM   28  C   UNL     1      39.405  38.588  65.248  1.00  0.00     0.037 A 
HETATM   29  C   UNL     1      40.403  38.882  66.173  1.00  0.00     0.068 A 
HETATM   30  C   UNL     1      41.039  40.121  66.115  1.00  0.00     0.037 A 
HETATM   31  C   UNL     1      40.712  41.042  65.115  1.00  0.00     0.012 A 
BRANCH  29  32
HETATM   32  O   UNL     1      40.827  38.059  67.180  1.00  0.00    -0.356 OA
HETATM   33  C   UNL     1      41.225  38.698  68.387  1.00  0.00     0.210 C 
ENDBRANCH  29  32
ENDBRANCH   1  26
TORSDOF 6
ENDMDL
MODEL 7
REMARK VINA RESULT:      -9.0      6.459      9.530
REMARK  6 active torsions:
REMARK  status: ('A' for Active; 'I' for Inactive)
REMARK    1  A    between atoms: O_2  and  C_3 
REMARK    2  A    between atoms: C_6  and  C_7 
REMARK    3  A    between atoms: C_12  and  C_13 
REMARK       I    between atoms: C_13  and  N_14 
REMARK    4  A    between atoms: N_14  and  C_15 
REMARK    5  A    between atoms: C_15  and  C_16 
REMARK    6  A    between atoms: C_24  and  C_25 
ROOT
HETATM    1  C   UNL     1      26.386  39.458  48.309  1.00  0.00     0.118 C 
HETATM    2  N   UNL     1      26.369  40.707  49.057  1.00  0.00    -0.366 N 
HETATM    3  C   UNL     1      27.224  40.952  50.070  1.00  0.00     0.123 A 
HETATM    4  N   UNL     1      28.076  39.994  50.547  1.00  0.00    -0.240 N 
HETATM    5  N   UNL     1      28.841  40.410  51.574  1.00  0.00    -0.165 NA
HETATM    6  C   UNL     1      28.486  41.707  51.730  1.00  0.00     0.148 A 
HETATM    7  C   UNL     1      27.464  42.075  50.814  1.00  0.00     0.088 A 
HETATM    8  C   UNL     1      28.146  38.637  50.043  1.00  0.00     0.221 C 
HETATM    9  C   UNL     1      26.914  38.302  49.177  1.00  0.00     0.066 C 
HETATM   10  H   UNL     1      25.858  41.470  48.612  1.00  0.00     0.161 HD
ENDROOT
BRANCH   6  11
HETATM   11  C   UNL     1      29.117  42.585  52.726  1.00  0.00     0.272 C 
HETATM   12  N   UNL     1      28.225  43.385  53.396  1.00  0.00    -0.351 N 
HETATM   13  H   UNL     1      27.249  43.299  53.127  1.00  0.00     0.163 HD
HETATM   14  O   UNL     1      30.325  42.575  52.941  1.00  0.00    -0.266 OA
BRANCH  12  15
HETATM   15  C   UNL     1      28.612  44.279  54.456  1.00  0.00     0.161 C 
BRANCH  15  16
HETATM   16  C   UNL     1      27.763  45.526  54.511  1.00  0.00    -0.041 A 
HETATM   17  C   UNL     1      28.145  46.648  55.263  1.00  0.00     0.009 A 
HETATM   18  C   UNL     1      27.368  47.807  55.261  1.00  0.00     0.001 A 
HETATM   19  C   UNL     1      26.208  47.868  54.491  1.00  0.00     0.000 A 
HETATM   20  C   UNL     1      25.826  46.771  53.724  1.00  0.00     0.001 A 
HETATM   21  C   UNL     1      26.600  45.608  53.730  1.00  0.00     0.009 A 
ENDBRANCH  15  16
ENDBRANCH  12  15
ENDBRANCH   6  11
BRANCH   8  22
HETATM   22  C   UNL     1      29.469  38.392  49.351  1.00  0.00     0.409 C 
HETATM   23  F   UNL     1      29.425  37.434  48.408  1.00  0.00    -0.169 F 
HETATM   24  F   UNL     1      29.946  39.515  48.762  1.00  0.00    -0.169 F 
HETATM   25  F   UNL     1      30.408  38.018  50.258  1.00  0.00    -0.169 F 
ENDBRANCH   8  22
BRANCH   1  26
HETATM   26  C   UNL     1      27.055  39.596  46.953  1.00  0.00    -0.035 A 
HETATM   27  C   UNL     1      27.510  40.821  46.445  1.00  0.00     0.012 A 
HETATM   28  C   UNL     1      28.145  40.899  45.198  1.00  0.00     0.037 A 
HETATM   29  C   UNL     1      28.320  39.753  44.427  1.00  0.00     0.068 A 
HETATM   30  C   UNL     1      27.836  38.535  44.901  1.00  0.00     0.037 A 
HETATM   31  C   UNL     1      27.220  38.453  46.154  1.00  0.00     0.012 A 
BRANCH  29  32
HETATM   32  O   UNL     1      28.924  39.700  43.201  1.00  0.00    -0.356 OA
HETATM   33  C   UNL     1      28.934  38.430  42.561  1.00  0.00     0.210 C 
ENDBRANCH  29  32
ENDBRANCH   1  26
TORSDOF 6
ENDMDL
MODEL 8
REMARK VINA RESULT:      -8.9      7.670     11.024
REMARK  6 active torsions:
REMARK  status: ('A' for Active; 'I' for Inactive)
REMARK    1  A    between atoms: O_2  and  C_3 
REMARK    2  A    between atoms: C_6  and  C_7 
REMARK    3  A    between atoms: C_12  and  C_13 
REMARK       I    between atoms: C_13  and  N_14 
REMARK    4  A    between atoms: N_14  and  C_15 
REMARK    5  A    between atoms: C_15  and  C_16 
REMARK    6  A    between atoms: C_24  and  C_25 
ROOT
HETATM    1  C   UNL     1      19.485  49.548  49.995  1.00  0.00     0.118 C 
HETATM    2  N   UNL     1      18.694  48.425  49.510  1.00  0.00    -0.366 N 
HETATM    3  C   UNL     1      17.675  48.582  48.641  1.00  0.00     0.123 A 
HETATM    4  N   UNL     1      17.234  49.819  48.260  1.00  0.00    -0.240 N 
HETATM    5  N   UNL     1      16.194  49.785  47.404  1.00  0.00    -0.165 NA
HETATM    6  C   UNL     1      15.993  48.462  47.202  1.00  0.00     0.148 A 
HETATM    7  C   UNL     1      16.894  47.680  47.974  1.00  0.00     0.088 A 
HETATM    8  C   UNL     1      17.784  51.070  48.743  1.00  0.00     0.221 C 
HETATM    9  C   UNL     1      18.658  50.846  49.994  1.00  0.00     0.066 C 
HETATM   10  H   UNL     1      19.111  47.505  49.661  1.00  0.00     0.161 HD
ENDROOT
BRANCH   6  11
HETATM   11  C   UNL     1      14.969  47.950  46.279  1.00  0.00     0.272 C 
HETATM   12  N   UNL     1      15.469  47.102  45.322  1.00  0.00    -0.351 N 
HETATM   13  H   UNL     1      16.472  46.935  45.343  1.00  0.00     0.163 HD
HETATM   14  O   UNL     1      13.783  48.245  46.382  1.00  0.00    -0.266 OA
BRANCH  12  15
HETATM   15  C   UNL     1      14.641  46.435  44.352  1.00  0.00     0.161 C 
BRANCH  15  16
HETATM   16  C   UNL     1      15.293  45.204  43.771  1.00  0.00    -0.041 A 
HETATM   17  C   UNL     1      16.394  44.589  44.390  1.00  0.00     0.009 A 
HETATM   18  C   UNL     1      16.951  43.424  43.861  1.00  0.00     0.001 A 
HETATM   19  C   UNL     1      16.405  42.846  42.717  1.00  0.00     0.000 A 
HETATM   20  C   UNL     1      15.301  43.432  42.103  1.00  0.00     0.001 A 
HETATM   21  C   UNL     1      14.746  44.601  42.628  1.00  0.00     0.009 A 
ENDBRANCH  15  16
ENDBRANCH  12  15
ENDBRANCH   6  11
BRANCH   8  22
HETATM   22  C   UNL     1      18.487  51.810  47.626  1.00  0.00     0.409 C 
HETATM   23  F   UNL     1      17.653  52.409  46.756  1.00  0.00    -0.169 F 
HETATM   24  F   UNL     1      19.325  52.762  48.100  1.00  0.00    -0.169 F 
HETATM   25  F   UNL     1      19.261  50.952  46.912  1.00  0.00    -0.169 F 
ENDBRANCH   8  22
BRANCH   1  26
HETATM   26  C   UNL     1      20.836  49.650  49.312  1.00  0.00    -0.035 A 
HETATM   27  C   UNL     1      21.441  48.575  48.644  1.00  0.00     0.012 A 
HETATM   28  C   UNL     1      22.679  48.721  48.005  1.00  0.00     0.037 A 
HETATM   29  C   UNL     1      23.346  49.943  48.038  1.00  0.00     0.068 A 
HETATM   30  C   UNL     1      22.777  51.008  48.733  1.00  0.00     0.037 A 
HETATM   31  C   UNL     1      21.532  50.869  49.354  1.00  0.00     0.012 A 
BRANCH  29  32
HETATM   32  O   UNL     1      24.553  50.210  47.453  1.00  0.00    -0.356 OA
HETATM   33  C   UNL     1      25.707  49.838  48.196  1.00  0.00     0.210 C 
ENDBRANCH  29  32
ENDBRANCH   1  26
TORSDOF 6
ENDMDL
MODEL 9
REMARK VINA RESULT:      -8.8     13.723     16.721
REMARK  6 active torsions:
REMARK  status: ('A' for Active; 'I' for Inactive)
REMARK    1  A    between atoms: O_2  and  C_3 
REMARK    2  A    between atoms: C_6  and  C_7 
REMARK    3  A    between atoms: C_12  and  C_13 
REMARK       I    between atoms: C_13  and  N_14 
REMARK    4  A    between atoms: N_14  and  C_15 
REMARK    5  A    between atoms: C_15  and  C_16 
REMARK    6  A    between atoms: C_24  and  C_25 
ROOT
HETATM    1  C   UNL     1      33.221  50.196  42.109  1.00  0.00     0.118 C 
HETATM    2  N   UNL     1      33.870  50.937  43.182  1.00  0.00    -0.366 N 
HETATM    3  C   UNL     1      35.018  51.618  42.996  1.00  0.00     0.123 A 
HETATM    4  N   UNL     1      35.718  51.549  41.823  1.00  0.00    -0.240 N 
HETATM    5  N   UNL     1      36.852  52.276  41.824  1.00  0.00    -0.165 NA
HETATM    6  C   UNL     1      36.850  52.866  43.042  1.00  0.00     0.148 A 
HETATM    7  C   UNL     1      35.723  52.464  43.807  1.00  0.00     0.088 A 
HETATM    8  C   UNL     1      35.326  50.748  40.680  1.00  0.00     0.221 C 
HETATM    9  C   UNL     1      34.250  49.714  41.071  1.00  0.00     0.066 C 
HETATM   10  H   UNL     1      33.283  51.121  43.996  1.00  0.00     0.161 HD
ENDROOT
BRANCH   6  11
HETATM   11  C   UNL     1      37.896  53.809  43.465  1.00  0.00     0.272 C 
HETATM   12  N   UNL     1      37.608  54.455  44.642  1.00  0.00    -0.351 N 
HETATM   13  H   UNL     1      36.716  54.231  45.076  1.00  0.00     0.163 HD
HETATM   14  O   UNL     1      38.932  53.974  42.828  1.00  0.00    -0.266 OA
BRANCH  12  15
HETATM   15  C   UNL     1      38.515  55.376  45.276  1.00  0.00     0.161 C 
BRANCH  15  16
HETATM   16  C   UNL     1      39.127  54.818  46.539  1.00  0.00    -0.041 A 
HETATM   17  C   UNL     1      40.509  54.882  46.781  1.00  0.00     0.009 A 
HETATM   18  C   UNL     1      41.047  54.404  47.977  1.00  0.00     0.001 A 
HETATM   19  C   UNL     1      40.209  53.873  48.956  1.00  0.00     0.000 A 
HETATM   20  C   UNL     1      38.835  53.821  48.739  1.00  0.00     0.001 A 
HETATM   21  C   UNL     1      38.296  54.294  47.541  1.00  0.00     0.009 A 
ENDBRANCH  15  16
ENDBRANCH  12  15
ENDBRANCH   6  11
BRANCH   8  22
HETATM   22  C   UNL     1      34.936  51.632  39.517  1.00  0.00     0.409 C 
HETATM   23  F   UNL     1      33.928  51.143  38.771  1.00  0.00    -0.169 F 
HETATM   24  F   UNL     1      34.570  52.871  39.924  1.00  0.00    -0.169 F 
HETATM   25  F   UNL     1      35.997  51.809  38.688  1.00  0.00    -0.169 F 
ENDBRANCH   8  22
BRANCH   1  26
HETATM   26  C   UNL     1      32.025  50.929  41.531  1.00  0.00    -0.035 A 
HETATM   27  C   UNL     1      31.779  52.292  41.755  1.00  0.00     0.012 A 
HETATM   28  C   UNL     1      30.675  52.935  41.180  1.00  0.00     0.037 A 
HETATM   29  C   UNL     1      29.783  52.221  40.384  1.00  0.00     0.068 A 
HETATM   30  C   UNL     1      29.992  50.857  40.186  1.00  0.00     0.037 A 
HETATM   31  C   UNL     1      31.104  50.219  40.743  1.00  0.00     0.012 A 
BRANCH  29  32
HETATM   32  O   UNL     1      28.675  52.733  39.768  1.00  0.00    -0.356 OA
HETATM   33  C   UNL     1      28.737  52.838  38.351  1.00  0.00     0.210 C 
ENDBRANCH  29  32
ENDBRANCH   1  26
TORSDOF 6
ENDMDL
MODEL 10
REMARK VINA RESULT:      -8.5     16.734     18.622
REMARK  6 active torsions:
REMARK  status: ('A' for Active; 'I' for Inactive)
REMARK    1  A    between atoms: O_2  and  C_3 
REMARK    2  A    between atoms: C_6  and  C_7 
REMARK    3  A    between atoms: C_12  and  C_13 
REMARK       I    between atoms: C_13  and  N_14 
REMARK    4  A    between atoms: N_14  and  C_15 
REMARK    5  A    between atoms: C_15  and  C_16 
REMARK    6  A    between atoms: C_24  and  C_25 
ROOT
HETATM    1  C   UNL     1      36.433  45.435  63.835  1.00  0.00     0.118 C 
HETATM    2  N   UNL     1      36.948  46.770  63.564  1.00  0.00    -0.366 N 
HETATM    3  C   UNL     1      37.255  47.638  64.549  1.00  0.00     0.123 A 
HETATM    4  N   UNL     1      36.978  47.371  65.861  1.00  0.00    -0.240 N 
HETATM    5  N   UNL     1      37.333  48.360  66.704  1.00  0.00    -0.165 NA
HETATM    6  C   UNL     1      37.899  49.282  65.890  1.00  0.00     0.148 A 
HETATM    7  C   UNL     1      37.852  48.868  64.532  1.00  0.00     0.088 A 
HETATM    8  C   UNL     1      36.329  46.163  66.333  1.00  0.00     0.221 C 
HETATM    9  C   UNL     1      35.664  45.401  65.169  1.00  0.00     0.066 C 
HETATM   10  H   UNL     1      37.300  46.913  62.617  1.00  0.00     0.161 HD
ENDROOT
BRANCH   6  11
HETATM   11  C   UNL     1      38.487  50.530  66.399  1.00  0.00     0.272 C 
HETATM   12  N   UNL     1      37.953  50.939  67.596  1.00  0.00    -0.351 N 
HETATM   13  H   UNL     1      37.214  50.360  67.985  1.00  0.00     0.163 HD
HETATM   14  O   UNL     1      39.384  51.123  65.809  1.00  0.00    -0.266 OA
BRANCH  12  15
HETATM   15  C   UNL     1      38.419  52.100  68.308  1.00  0.00     0.161 C 
BRANCH  15  16
HETATM   16  C   UNL     1      37.546  53.312  68.089  1.00  0.00    -0.041 A 
HETATM   17  C   UNL     1      36.559  53.689  69.014  1.00  0.00     0.009 A 
HETATM   18  C   UNL     1      35.795  54.840  68.813  1.00  0.00     0.001 A 
HETATM   19  C   UNL     1      36.021  55.642  67.696  1.00  0.00     0.000 A 
HETATM   20  C   UNL     1      37.010  55.292  66.780  1.00  0.00     0.001 A 
HETATM   21  C   UNL     1      37.770  54.137  66.977  1.00  0.00     0.009 A 
ENDBRANCH  15  16
ENDBRANCH  12  15
ENDBRANCH   6  11
BRANCH   8  22
HETATM   22  C   UNL     1      37.287  45.325  67.149  1.00  0.00     0.409 C 
HETATM   23  F   UNL     1      37.029  44.005  67.113  1.00  0.00    -0.169 F 
HETATM   24  F   UNL     1      38.571  45.495  66.752  1.00  0.00    -0.169 F 
HETATM   25  F   UNL     1      37.246  45.705  68.453  1.00  0.00    -0.169 F 
ENDBRANCH   8  22
BRANCH   1  26
HETATM   26  C   UNL     1      37.489  44.356  63.679  1.00  0.00    -0.035 A 
HETATM   27  C   UNL     1      38.847  44.638  63.472  1.00  0.00     0.012 A 
HETATM   28  C   UNL     1      39.793  43.611  63.358  1.00  0.00     0.037 A 
HETATM   29  C   UNL     1      39.393  42.279  63.428  1.00  0.00     0.068 A 
HETATM   30  C   UNL     1      38.041  41.983  63.592  1.00  0.00     0.037 A 
HETATM   31  C   UNL     1      37.100  43.008  63.726  1.00  0.00     0.012 A 
BRANCH  29  32
HETATM   32  O   UNL     1      40.218  41.191  63.334  1.00  0.00    -0.356 OA
HETATM   33  C   UNL     1      39.582  39.940  63.106  1.00  0.00     0.210 C 
ENDBRANCH  29  32
ENDBRANCH   1  26
TORSDOF 6
ENDMDL
