MODEL 1
REMARK VINA RESULT:      -9.7      0.000      0.000
REMARK  6 active torsions:
REMARK  status: ('A' for Active; 'I' for Inactive)
REMARK    1  A    between atoms: C_4  and  C_5 
REMARK    2  A    between atoms: C_5  and  O_6 
REMARK    3  A    between atoms: O_6  and  C_7 
REMARK    4  A    between atoms: C_10  and  C_11 
REMARK    5  A    between atoms: C_17  and  C_18 
REMARK    6  A    between atoms: C_27  and  N_28 
ROOT
HETATM    1  C   UNL     1      25.409  47.996  49.455  1.00  0.00     0.072 A 
HETATM    2  N   UNL     1      26.203  48.975  48.891  1.00  0.00    -0.274 N 
HETATM    3  H   UNL     1      27.214  49.056  48.945  1.00  0.00     0.189 HD
HETATM    4  N   UNL     1      25.522  49.931  48.228  1.00  0.00    -0.148 NA
HETATM    5  C   UNL     1      24.266  49.543  48.387  1.00  0.00     0.199 A 
HETATM    6  C   UNL     1      24.115  48.350  49.101  1.00  0.00     0.040 A 
HETATM    7  C   UNL     1      22.760  47.781  49.334  1.00  0.00     0.107 A 
HETATM    8  C   UNL     1      21.675  48.729  48.838  1.00  0.00     0.081 A 
HETATM    9  C   UNL     1      20.328  48.378  49.155  1.00  0.00     0.100 C 
HETATM   10  N   UNL     1      19.240  48.079  49.418  1.00  0.00    -0.191 NA
HETATM   11  C   UNL     1      21.949  49.878  48.167  1.00  0.00     0.140 A 
HETATM   12  O   UNL     1      23.261  50.280  47.882  1.00  0.00    -0.277 OA
ENDROOT
BRANCH   7  13
HETATM   13  C   UNL     1      22.730  46.436  48.634  1.00  0.00    -0.027 A 
HETATM   14  C   UNL     1      22.319  46.282  47.308  1.00  0.00     0.124 A 
HETATM   15  N   UNL     1      22.228  45.094  46.668  1.00  0.00    -0.273 NA
HETATM   16  C   UNL     1      22.560  43.995  47.376  1.00  0.00     0.116 A 
HETATM   17  C   UNL     1      22.981  44.029  48.694  1.00  0.00     0.020 A 
HETATM   18  C   UNL     1      23.064  45.265  49.329  1.00  0.00     0.011 A 
ENDBRANCH   7  13
BRANCH  11  19
HETATM   19  N   UNL     1      21.008  50.769  47.698  1.00  0.00    -0.282 NA
HETATM   20  H   UNL     1      20.420  50.436  46.938  1.00  0.00     0.126 HD
HETATM   21  H   UNL     1      21.406  51.690  47.521  1.00  0.00     0.126 HD
ENDBRANCH  11  19
BRANCH   1  22
HETATM   22  C   UNL     1      25.955  46.891  50.238  1.00  0.00    -0.007 A 
HETATM   23  C   UNL     1      26.747  45.910  49.633  1.00  0.00     0.016 A 
HETATM   24  C   UNL     1      27.270  44.857  50.388  1.00  0.00     0.037 A 
HETATM   25  C   UNL     1      27.006  44.758  51.754  1.00  0.00     0.069 A 
HETATM   26  C   UNL     1      26.204  45.721  52.362  1.00  0.00     0.037 A 
HETATM   27  C   UNL     1      25.687  46.784  51.609  1.00  0.00     0.016 A 
BRANCH  25  28
HETATM   28  O   UNL     1      27.591  43.688  52.371  1.00  0.00    -0.347 OA
BRANCH  28  29
HETATM   29  C   UNL     1      27.342  43.518  53.768  1.00  0.00     0.214 C 
BRANCH  29  30
HETATM   30  C   UNL     1      28.581  43.875  54.554  1.00  0.00    -0.034 A 
HETATM   31  C   UNL     1      28.664  45.110  55.215  1.00  0.00     0.009 A 
HETATM   32  C   UNL     1      29.796  45.442  55.963  1.00  0.00     0.001 A 
HETATM   33  C   UNL     1      30.853  44.541  56.066  1.00  0.00     0.000 A 
HETATM   34  C   UNL     1      30.777  43.305  55.428  1.00  0.00     0.001 A 
HETATM   35  C   UNL     1      29.646  42.971  54.682  1.00  0.00     0.009 A 
ENDBRANCH  29  30
ENDBRANCH  28  29
ENDBRANCH  25  28
ENDBRANCH   1  22
TORSDOF 6
ENDMDL
MODEL 2
REMARK VINA RESULT:      -9.4      3.175      8.305
REMARK  6 active torsions:
REMARK  status: ('A' for Active; 'I' for Inactive)
REMARK    1  A    between atoms: C_4  and  C_5 
REMARK    2  A    between atoms: C_5  and  O_6 
REMARK    3  A    between atoms: O_6  and  C_7 
REMARK    4  A    between atoms: C_10  and  C_11 
REMARK    5  A    between atoms: C_17  and  C_18 
REMARK    6  A    between atoms: C_27  and  N_28 
ROOT
HETATM    1  C   UNL     1      26.187  46.376  51.740  1.00  0.00     0.072 A 
HETATM    2  N   UNL     1      26.333  46.803  53.045  1.00  0.00    -0.274 N 
HETATM    3  H   UNL     1      26.134  47.726  53.418  1.00  0.00     0.189 HD
HETATM    4  N   UNL     1      26.826  45.871  53.884  1.00  0.00    -0.148 NA
HETATM    5  C   UNL     1      27.000  44.833  53.080  1.00  0.00     0.199 A 
HETATM    6  C   UNL     1      26.605  45.054  51.758  1.00  0.00     0.040 A 
HETATM    7  C   UNL     1      26.719  43.966  50.749  1.00  0.00     0.107 A 
HETATM    8  C   UNL     1      27.425  42.749  51.333  1.00  0.00     0.081 A 
HETATM    9  C   UNL     1      27.749  41.701  50.419  1.00  0.00     0.100 C 
HETATM   10  N   UNL     1      28.005  40.857  49.666  1.00  0.00    -0.191 NA
HETATM   11  C   UNL     1      27.781  42.659  52.640  1.00  0.00     0.140 A 
HETATM   12  O   UNL     1      27.524  43.689  53.555  1.00  0.00    -0.277 OA
ENDROOT
BRANCH   7  13
HETATM   13  C   UNL     1      25.309  43.659  50.282  1.00  0.00    -0.027 A 
HETATM   14  C   UNL     1      24.331  43.128  51.126  1.00  0.00     0.124 A 
HETATM   15  N   UNL     1      23.082  42.792  50.733  1.00  0.00    -0.273 NA
HETATM   16  C   UNL     1      22.779  42.990  49.433  1.00  0.00     0.116 A 
HETATM   17  C   UNL     1      23.668  43.509  48.509  1.00  0.00     0.020 A 
HETATM   18  C   UNL     1      24.948  43.844  48.940  1.00  0.00     0.011 A 
ENDBRANCH   7  13
BRANCH  11  19
HETATM   19  N   UNL     1      28.421  41.584  53.219  1.00  0.00    -0.282 NA
HETATM   20  H   UNL     1      28.097  40.664  52.927  1.00  0.00     0.126 HD
HETATM   21  H   UNL     1      28.493  41.679  54.230  1.00  0.00     0.126 HD
ENDBRANCH  11  19
BRANCH   1  22
HETATM   22  C   UNL     1      25.697  47.247  50.676  1.00  0.00    -0.007 A 
HETATM   23  C   UNL     1      24.357  47.203  50.277  1.00  0.00     0.016 A 
HETATM   24  C   UNL     1      23.893  48.041  49.259  1.00  0.00     0.037 A 
HETATM   25  C   UNL     1      24.755  48.930  48.617  1.00  0.00     0.069 A 
HETATM   26  C   UNL     1      26.095  48.968  48.996  1.00  0.00     0.037 A 
HETATM   27  C   UNL     1      26.560  48.136  50.023  1.00  0.00     0.016 A 
BRANCH  25  28
HETATM   28  O   UNL     1      24.165  49.698  47.653  1.00  0.00    -0.347 OA
BRANCH  28  29
HETATM   29  C   UNL     1      23.667  50.979  48.048  1.00  0.00     0.214 C 
BRANCH  29  30
HETATM   30  C   UNL     1      22.228  50.852  48.488  1.00  0.00    -0.034 A 
HETATM   31  C   UNL     1      21.880  51.081  49.829  1.00  0.00     0.009 A 
HETATM   32  C   UNL     1      20.550  50.989  50.243  1.00  0.00     0.001 A 
HETATM   33  C   UNL     1      19.552  50.675  49.324  1.00  0.00     0.000 A 
HETATM   34  C   UNL     1      19.882  50.461  47.987  1.00  0.00     0.001 A 
HETATM   35  C   UNL     1      21.210  50.555  47.570  1.00  0.00     0.009 A 
ENDBRANCH  29  30
ENDBRANCH  28  29
ENDBRANCH  25  28
ENDBRANCH   1  22
TORSDOF 6
ENDMDL
MODEL 3
REMARK VINA RESULT:      -9.2      1.559      1.906
REMARK  6 active torsions:
REMARK  status: ('A' for Active; 'I' for Inactive)
REMARK    1  A    between atoms: C_4  and  C_5 
REMARK    2  A    between atoms: C_5  and  O_6 
REMARK    3  A    between atoms: O_6  and  C_7 
REMARK    4  A    between atoms: C_10  and  C_11 
REMARK    5  A    between atoms: C_17  and  C_18 
REMARK    6  A    between atoms: C_27  and  N_28 
ROOT
HETATM    1  C   UNL     1      24.348  46.764  49.553  1.00  0.00     0.072 A 
HETATM    2  N   UNL     1      24.745  48.068  49.332  1.00  0.00    -0.274 N 
HETATM    3  H   UNL     1      25.618  48.503  49.615  1.00  0.00     0.189 HD
HETATM    4  N   UNL     1      23.833  48.827  48.693  1.00  0.00    -0.148 NA
HETATM    5  C   UNL     1      22.834  47.976  48.515  1.00  0.00     0.199 A 
HETATM    6  C   UNL     1      23.084  46.684  48.988  1.00  0.00     0.040 A 
HETATM    7  C   UNL     1      22.059  45.617  48.832  1.00  0.00     0.107 A 
HETATM    8  C   UNL     1      20.762  46.181  48.264  1.00  0.00     0.081 A 
HETATM    9  C   UNL     1      19.645  45.293  48.225  1.00  0.00     0.100 C 
HETATM   10  N   UNL     1      18.747  44.561  48.197  1.00  0.00    -0.191 NA
HETATM   11  C   UNL     1      20.635  47.469  47.854  1.00  0.00     0.140 A 
HETATM   12  O   UNL     1      21.696  48.382  47.925  1.00  0.00    -0.277 OA
ENDROOT
BRANCH   7  13
HETATM   13  C   UNL     1      22.675  44.553  47.943  1.00  0.00    -0.027 A 
HETATM   14  C   UNL     1      22.758  44.681  46.554  1.00  0.00     0.124 A 
HETATM   15  N   UNL     1      23.251  43.733  45.727  1.00  0.00    -0.273 NA
HETATM   16  C   UNL     1      23.685  42.591  46.300  1.00  0.00     0.116 A 
HETATM   17  C   UNL     1      23.650  42.356  47.662  1.00  0.00     0.020 A 
HETATM   18  C   UNL     1      23.137  43.348  48.492  1.00  0.00     0.011 A 
ENDBRANCH   7  13
BRANCH  11  19
HETATM   19  N   UNL     1      19.487  48.029  47.336  1.00  0.00    -0.282 NA
HETATM   20  H   UNL     1      18.685  48.059  47.961  1.00  0.00     0.126 HD
HETATM   21  H   UNL     1      19.263  47.658  46.414  1.00  0.00     0.126 HD
ENDBRANCH  11  19
BRANCH   1  22
HETATM   22  C   UNL     1      25.182  45.794  50.257  1.00  0.00    -0.007 A 
HETATM   23  C   UNL     1      26.442  45.444  49.761  1.00  0.00     0.016 A 
HETATM   24  C   UNL     1      27.238  44.517  50.440  1.00  0.00     0.037 A 
HETATM   25  C   UNL     1      26.790  43.918  51.617  1.00  0.00     0.069 A 
HETATM   26  C   UNL     1      25.529  44.247  52.109  1.00  0.00     0.037 A 
HETATM   27  C   UNL     1      24.734  45.184  51.436  1.00  0.00     0.016 A 
BRANCH  25  28
HETATM   28  O   UNL     1      27.675  43.043  52.183  1.00  0.00    -0.347 OA
BRANCH  28  29
HETATM   29  C   UNL     1      27.504  42.741  53.570  1.00  0.00     0.214 C 
BRANCH  29  30
HETATM   30  C   UNL     1      28.529  43.493  54.385  1.00  0.00    -0.034 A 
HETATM   31  C   UNL     1      28.237  44.775  54.874  1.00  0.00     0.009 A 
HETATM   32  C   UNL     1      29.169  45.471  55.647  1.00  0.00     0.001 A 
HETATM   33  C   UNL     1      30.399  44.891  55.947  1.00  0.00     0.000 A 
HETATM   34  C   UNL     1      30.696  43.612  55.481  1.00  0.00     0.001 A 
HETATM   35  C   UNL     1      29.765  42.914  54.710  1.00  0.00     0.009 A 
ENDBRANCH  29  30
ENDBRANCH  28  29
ENDBRANCH  25  28
ENDBRANCH   1  22
TORSDOF 6
ENDMDL
MODEL 4
REMARK VINA RESULT:      -9.2      1.181      1.828
REMARK  6 active torsions:
REMARK  status: ('A' for Active; 'I' for Inactive)
REMARK    1  A    between atoms: C_4  and  C_5 
REMARK    2  A    between atoms: C_5  and  O_6 
REMARK    3  A    between atoms: O_6  and  C_7 
REMARK    4  A    between atoms: C_10  and  C_11 
REMARK    5  A    between atoms: C_17  and  C_18 
REMARK    6  A    between atoms: C_27  and  N_28 
ROOT
HETATM    1  C   UNL     1      24.231  48.121  49.156  1.00  0.00     0.072 A 
HETATM    2  N   UNL     1      24.982  49.135  48.595  1.00  0.00    -0.274 N 
HETATM    3  H   UNL     1      25.982  49.286  48.688  1.00  0.00     0.189 HD
HETATM    4  N   UNL     1      24.270  50.023  47.874  1.00  0.00    -0.148 NA
HETATM    5  C   UNL     1      23.036  49.555  47.992  1.00  0.00     0.199 A 
HETATM    6  C   UNL     1      22.934  48.377  48.737  1.00  0.00     0.040 A 
HETATM    7  C   UNL     1      21.610  47.724  48.931  1.00  0.00     0.107 A 
HETATM    8  C   UNL     1      20.487  48.582  48.359  1.00  0.00     0.081 A 
HETATM    9  C   UNL     1      19.155  48.149  48.631  1.00  0.00     0.100 C 
HETATM   10  N   UNL     1      18.077  47.785  48.857  1.00  0.00    -0.191 NA
HETATM   11  C   UNL     1      20.713  49.727  47.665  1.00  0.00     0.140 A 
HETATM   12  O   UNL     1      22.007  50.209  47.423  1.00  0.00    -0.277 OA
ENDROOT
BRANCH   7  13
HETATM   13  C   UNL     1      21.701  46.361  48.273  1.00  0.00    -0.027 A 
HETATM   14  C   UNL     1      21.529  45.167  48.978  1.00  0.00     0.124 A 
HETATM   15  N   UNL     1      21.655  43.934  48.438  1.00  0.00    -0.273 NA
HETATM   16  C   UNL     1      21.971  43.874  47.127  1.00  0.00     0.116 A 
HETATM   17  C   UNL     1      22.164  44.990  46.333  1.00  0.00     0.020 A 
HETATM   18  C   UNL     1      22.030  46.247  46.915  1.00  0.00     0.011 A 
ENDBRANCH   7  13
BRANCH  11  19
HETATM   19  N   UNL     1      19.737  50.538  47.129  1.00  0.00    -0.282 NA
HETATM   20  H   UNL     1      20.066  51.307  46.551  1.00  0.00     0.126 HD
HETATM   21  H   UNL     1      19.052  50.826  47.826  1.00  0.00     0.126 HD
ENDBRANCH  11  19
BRANCH   1  22
HETATM   22  C   UNL     1      24.814  47.080  49.996  1.00  0.00    -0.007 A 
HETATM   23  C   UNL     1      25.139  47.338  51.331  1.00  0.00     0.016 A 
HETATM   24  C   UNL     1      25.696  46.337  52.132  1.00  0.00     0.037 A 
HETATM   25  C   UNL     1      25.945  45.066  51.615  1.00  0.00     0.069 A 
HETATM   26  C   UNL     1      25.641  44.804  50.281  1.00  0.00     0.037 A 
HETATM   27  C   UNL     1      25.074  45.804  49.479  1.00  0.00     0.016 A 
BRANCH  25  28
HETATM   28  O   UNL     1      26.477  44.181  52.511  1.00  0.00    -0.347 OA
BRANCH  28  29
HETATM   29  C   UNL     1      27.798  43.699  52.253  1.00  0.00     0.214 C 
BRANCH  29  30
HETATM   30  C   UNL     1      28.661  43.899  53.476  1.00  0.00    -0.034 A 
HETATM   31  C   UNL     1      29.748  43.045  53.717  1.00  0.00     0.009 A 
HETATM   32  C   UNL     1      30.567  43.233  54.833  1.00  0.00     0.001 A 
HETATM   33  C   UNL     1      30.314  44.280  55.715  1.00  0.00     0.000 A 
HETATM   34  C   UNL     1      29.248  45.146  55.479  1.00  0.00     0.001 A 
HETATM   35  C   UNL     1      28.430  44.960  54.363  1.00  0.00     0.009 A 
ENDBRANCH  29  30
ENDBRANCH  28  29
ENDBRANCH  25  28
ENDBRANCH   1  22
TORSDOF 6
ENDMDL
MODEL 5
REMARK VINA RESULT:      -9.1      1.571      2.093
REMARK  6 active torsions:
REMARK  status: ('A' for Active; 'I' for Inactive)
REMARK    1  A    between atoms: C_4  and  C_5 
REMARK    2  A    between atoms: C_5  and  O_6 
REMARK    3  A    between atoms: O_6  and  C_7 
REMARK    4  A    between atoms: C_10  and  C_11 
REMARK    5  A    between atoms: C_17  and  C_18 
REMARK    6  A    between atoms: C_27  and  N_28 
ROOT
HETATM    1  C   UNL     1      24.672  46.637  49.817  1.00  0.00     0.072 A 
HETATM    2  N   UNL     1      25.178  47.878  49.485  1.00  0.00    -0.274 N 
HETATM    3  H   UNL     1      26.058  48.286  49.785  1.00  0.00     0.189 HD
HETATM    4  N   UNL     1      24.371  48.616  48.697  1.00  0.00    -0.148 NA
HETATM    5  C   UNL     1      23.327  47.816  48.536  1.00  0.00     0.199 A 
HETATM    6  C   UNL     1      23.448  46.575  49.167  1.00  0.00     0.040 A 
HETATM    7  C   UNL     1      22.361  45.565  49.051  1.00  0.00     0.107 A 
HETATM    8  C   UNL     1      21.152  46.142  48.325  1.00  0.00     0.081 A 
HETATM    9  C   UNL     1      19.978  45.330  48.298  1.00  0.00     0.100 C 
HETATM   10  N   UNL     1      19.033  44.660  48.281  1.00  0.00    -0.191 NA
HETATM   11  C   UNL     1      21.148  47.380  47.767  1.00  0.00     0.140 A 
HETATM   12  O   UNL     1      22.266  48.225  47.818  1.00  0.00    -0.277 OA
ENDROOT
BRANCH   7  13
HETATM   13  C   UNL     1      22.959  44.368  48.336  1.00  0.00    -0.027 A 
HETATM   14  C   UNL     1      23.083  44.300  46.947  1.00  0.00     0.124 A 
HETATM   15  N   UNL     1      23.559  43.229  46.273  1.00  0.00    -0.273 NA
HETATM   16  C   UNL     1      23.934  42.164  47.010  1.00  0.00     0.116 A 
HETATM   17  C   UNL     1      23.855  42.120  48.391  1.00  0.00     0.020 A 
HETATM   18  C   UNL     1      23.359  43.235  49.059  1.00  0.00     0.011 A 
ENDBRANCH   7  13
BRANCH  11  19
HETATM   19  N   UNL     1      20.084  47.949  47.101  1.00  0.00    -0.282 NA
HETATM   20  H   UNL     1      20.318  48.669  46.422  1.00  0.00     0.126 HD
HETATM   21  H   UNL     1      19.339  48.227  47.738  1.00  0.00     0.126 HD
ENDBRANCH  11  19
BRANCH   1  22
HETATM   22  C   UNL     1      25.382  45.704  50.687  1.00  0.00    -0.007 A 
HETATM   23  C   UNL     1      24.892  45.402  51.961  1.00  0.00     0.016 A 
HETATM   24  C   UNL     1      25.574  44.506  52.789  1.00  0.00     0.037 A 
HETATM   25  C   UNL     1      26.758  43.902  52.364  1.00  0.00     0.069 A 
HETATM   26  C   UNL     1      27.262  44.210  51.103  1.00  0.00     0.037 A 
HETATM   27  C   UNL     1      26.575  45.100  50.268  1.00  0.00     0.016 A 
BRANCH  25  28
HETATM   28  O   UNL     1      27.311  43.037  53.267  1.00  0.00    -0.347 OA
BRANCH  28  29
HETATM   29  C   UNL     1      28.730  42.868  53.229  1.00  0.00     0.214 C 
BRANCH  29  30
HETATM   30  C   UNL     1      29.364  43.620  54.374  1.00  0.00    -0.034 A 
HETATM   31  C   UNL     1      28.823  44.845  54.797  1.00  0.00     0.009 A 
HETATM   32  C   UNL     1      29.387  45.539  55.869  1.00  0.00     0.001 A 
HETATM   33  C   UNL     1      30.491  45.015  56.536  1.00  0.00     0.000 A 
HETATM   34  C   UNL     1      31.029  43.793  56.138  1.00  0.00     0.001 A 
HETATM   35  C   UNL     1      30.465  43.097  55.068  1.00  0.00     0.009 A 
ENDBRANCH  29  30
ENDBRANCH  28  29
ENDBRANCH  25  28
ENDBRANCH   1  22
TORSDOF 6
ENDMDL
MODEL 6
REMARK VINA RESULT:      -8.8      3.150      8.591
REMARK  6 active torsions:
REMARK  status: ('A' for Active; 'I' for Inactive)
REMARK    1  A    between atoms: C_4  and  C_5 
REMARK    2  A    between atoms: C_5  and  O_6 
REMARK    3  A    between atoms: O_6  and  C_7 
REMARK    4  A    between atoms: C_10  and  C_11 
REMARK    5  A    between atoms: C_17  and  C_18 
REMARK    6  A    between atoms: C_27  and  N_28 
ROOT
HETATM    1  C   UNL     1      23.442  44.771  48.800  1.00  0.00     0.072 A 
HETATM    2  N   UNL     1      23.912  43.568  48.310  1.00  0.00    -0.274 N 
HETATM    3  H   UNL     1      23.512  43.008  47.564  1.00  0.00     0.189 HD
HETATM    4  N   UNL     1      25.010  43.103  48.938  1.00  0.00    -0.148 NA
HETATM    5  C   UNL     1      25.230  44.037  49.850  1.00  0.00     0.199 A 
HETATM    6  C   UNL     1      24.330  45.106  49.811  1.00  0.00     0.040 A 
HETATM    7  C   UNL     1      24.472  46.241  50.763  1.00  0.00     0.107 A 
HETATM    8  C   UNL     1      25.570  45.967  51.784  1.00  0.00     0.081 A 
HETATM    9  C   UNL     1      25.692  46.902  52.855  1.00  0.00     0.100 C 
HETATM   10  N   UNL     1      25.781  47.671  53.718  1.00  0.00    -0.191 NA
HETATM   11  C   UNL     1      26.373  44.873  51.728  1.00  0.00     0.140 A 
HETATM   12  O   UNL     1      26.249  43.908  50.719  1.00  0.00    -0.277 OA
ENDROOT
BRANCH   7  13
HETATM   13  C   UNL     1      24.745  47.476  49.925  1.00  0.00    -0.027 A 
HETATM   14  C   UNL     1      26.031  47.863  49.543  1.00  0.00     0.124 A 
HETATM   15  N   UNL     1      26.317  48.984  48.843  1.00  0.00    -0.273 NA
HETATM   16  C   UNL     1      25.275  49.770  48.502  1.00  0.00     0.116 A 
HETATM   17  C   UNL     1      23.961  49.486  48.827  1.00  0.00     0.020 A 
HETATM   18  C   UNL     1      23.695  48.326  49.549  1.00  0.00     0.011 A 
ENDBRANCH   7  13
BRANCH  11  19
HETATM   19  N   UNL     1      27.378  44.577  52.623  1.00  0.00    -0.282 NA
HETATM   20  H   UNL     1      28.306  44.458  52.226  1.00  0.00     0.126 HD
HETATM   21  H   UNL     1      27.115  43.826  53.259  1.00  0.00     0.126 HD
ENDBRANCH  11  19
BRANCH   1  22
HETATM   22  C   UNL     1      22.246  45.423  48.274  1.00  0.00    -0.007 A 
HETATM   23  C   UNL     1      21.064  45.455  49.019  1.00  0.00     0.016 A 
HETATM   24  C   UNL     1      19.923  46.083  48.512  1.00  0.00     0.037 A 
HETATM   25  C   UNL     1      19.938  46.682  47.252  1.00  0.00     0.069 A 
HETATM   26  C   UNL     1      21.107  46.640  46.496  1.00  0.00     0.037 A 
HETATM   27  C   UNL     1      22.255  46.020  47.007  1.00  0.00     0.016 A 
BRANCH  25  28
HETATM   28  O   UNL     1      18.760  47.271  46.888  1.00  0.00    -0.347 OA
BRANCH  28  29
HETATM   29  C   UNL     1      18.823  48.608  46.384  1.00  0.00     0.214 C 
BRANCH  29  30
HETATM   30  C   UNL     1      19.176  49.558  47.503  1.00  0.00    -0.034 A 
HETATM   31  C   UNL     1      20.316  50.371  47.403  1.00  0.00     0.009 A 
HETATM   32  C   UNL     1      20.640  51.269  48.422  1.00  0.00     0.001 A 
HETATM   33  C   UNL     1      19.826  51.372  49.547  1.00  0.00     0.000 A 
HETATM   34  C   UNL     1      18.683  50.582  49.653  1.00  0.00     0.001 A 
HETATM   35  C   UNL     1      18.356  49.686  48.634  1.00  0.00     0.009 A 
ENDBRANCH  29  30
ENDBRANCH  28  29
ENDBRANCH  25  28
ENDBRANCH   1  22
TORSDOF 6
ENDMDL
MODEL 7
REMARK VINA RESULT:      -8.7     18.794     22.208
REMARK  6 active torsions:
REMARK  status: ('A' for Active; 'I' for Inactive)
REMARK    1  A    between atoms: C_4  and  C_5 
REMARK    2  A    between atoms: C_5  and  O_6 
REMARK    3  A    between atoms: O_6  and  C_7 
REMARK    4  A    between atoms: C_10  and  C_11 
REMARK    5  A    between atoms: C_17  and  C_18 
REMARK    6  A    between atoms: C_27  and  N_28 
ROOT
HETATM    1  C   UNL     1      39.211  40.855  63.239  1.00  0.00     0.072 A 
HETATM    2  N   UNL     1      39.298  40.143  62.058  1.00  0.00    -0.274 N 
HETATM    3  H   UNL     1      38.939  40.414  61.148  1.00  0.00     0.189 HD
HETATM    4  N   UNL     1      39.907  38.947  62.173  1.00  0.00    -0.148 NA
HETATM    5  C   UNL     1      40.205  38.905  63.462  1.00  0.00     0.199 A 
HETATM    6  C   UNL     1      39.838  40.049  64.178  1.00  0.00     0.040 A 
HETATM    7  C   UNL     1      40.134  40.151  65.632  1.00  0.00     0.107 A 
HETATM    8  C   UNL     1      40.707  38.844  66.169  1.00  0.00     0.081 A 
HETATM    9  C   UNL     1      40.875  38.756  67.583  1.00  0.00     0.100 C 
HETATM   10  N   UNL     1      41.008  38.698  68.734  1.00  0.00    -0.191 NA
HETATM   11  C   UNL     1      41.006  37.787  65.370  1.00  0.00     0.140 A 
HETATM   12  O   UNL     1      40.808  37.821  63.983  1.00  0.00    -0.277 OA
ENDROOT
BRANCH   7  13
HETATM   13  C   UNL     1      41.085  41.321  65.799  1.00  0.00    -0.027 A 
HETATM   14  C   UNL     1      42.470  41.196  65.668  1.00  0.00     0.124 A 
HETATM   15  N   UNL     1      43.351  42.203  65.862  1.00  0.00    -0.273 NA
HETATM   16  C   UNL     1      42.837  43.402  66.205  1.00  0.00     0.116 A 
HETATM   17  C   UNL     1      41.484  43.641  66.363  1.00  0.00     0.020 A 
HETATM   18  C   UNL     1      40.599  42.586  66.159  1.00  0.00     0.011 A 
ENDBRANCH   7  13
BRANCH  11  19
HETATM   19  N   UNL     1      41.524  36.586  65.802  1.00  0.00    -0.282 NA
HETATM   20  H   UNL     1      41.091  35.750  65.417  1.00  0.00     0.126 HD
HETATM   21  H   UNL     1      41.623  36.553  66.816  1.00  0.00     0.126 HD
ENDBRANCH  11  19
BRANCH   1  22
HETATM   22  C   UNL     1      38.560  42.158  63.328  1.00  0.00    -0.007 A 
HETATM   23  C   UNL     1      37.360  42.310  64.030  1.00  0.00     0.016 A 
HETATM   24  C   UNL     1      36.741  43.560  64.114  1.00  0.00     0.037 A 
HETATM   25  C   UNL     1      37.302  44.677  63.495  1.00  0.00     0.069 A 
HETATM   26  C   UNL     1      38.488  44.532  62.779  1.00  0.00     0.037 A 
HETATM   27  C   UNL     1      39.115  43.281  62.702  1.00  0.00     0.016 A 
BRANCH  25  28
HETATM   28  O   UNL     1      36.601  45.837  63.670  1.00  0.00    -0.347 OA
BRANCH  28  29
HETATM   29  C   UNL     1      36.112  46.117  64.985  1.00  0.00     0.214 C 
BRANCH  29  30
HETATM   30  C   UNL     1      36.640  47.452  65.452  1.00  0.00    -0.034 A 
HETATM   31  C   UNL     1      36.425  47.871  66.774  1.00  0.00     0.009 A 
HETATM   32  C   UNL     1      36.927  49.094  67.223  1.00  0.00     0.001 A 
HETATM   33  C   UNL     1      37.655  49.909  66.360  1.00  0.00     0.000 A 
HETATM   34  C   UNL     1      37.890  49.499  65.049  1.00  0.00     0.001 A 
HETATM   35  C   UNL     1      37.391  48.275  64.599  1.00  0.00     0.009 A 
ENDBRANCH  29  30
ENDBRANCH  28  29
ENDBRANCH  25  28
ENDBRANCH   1  22
TORSDOF 6
ENDMDL
MODEL 8
REMARK VINA RESULT:      -8.6     11.043     14.186
REMARK  6 active torsions:
REMARK  status: ('A' for Active; 'I' for Inactive)
REMARK    1  A    between atoms: C_4  and  C_5 
REMARK    2  A    between atoms: C_5  and  O_6 
REMARK    3  A    between atoms: O_6  and  C_7 
REMARK    4  A    between atoms: C_10  and  C_11 
REMARK    5  A    between atoms: C_17  and  C_18 
REMARK    6  A    between atoms: C_27  and  N_28 
ROOT
HETATM    1  C   UNL     1      28.252  47.360  39.647  1.00  0.00     0.072 A 
HETATM    2  N   UNL     1      28.623  46.119  39.169  1.00  0.00    -0.274 N 
HETATM    3  H   UNL     1      28.023  45.415  38.750  1.00  0.00     0.189 HD
HETATM    4  N   UNL     1      29.931  45.832  39.320  1.00  0.00    -0.148 NA
HETATM    5  C   UNL     1      30.391  46.922  39.915  1.00  0.00     0.199 A 
HETATM    6  C   UNL     1      29.430  47.916  40.124  1.00  0.00     0.040 A 
HETATM    7  C   UNL     1      29.811  49.205  40.761  1.00  0.00     0.107 A 
HETATM    8  C   UNL     1      31.258  49.175  41.238  1.00  0.00     0.081 A 
HETATM    9  C   UNL     1      31.696  50.288  42.017  1.00  0.00     0.100 C 
HETATM   10  N   UNL     1      32.038  51.200  42.647  1.00  0.00    -0.191 NA
HETATM   11  C   UNL     1      32.096  48.135  40.989  1.00  0.00     0.140 A 
HETATM   12  O   UNL     1      31.686  47.004  40.271  1.00  0.00    -0.277 OA
ENDROOT
BRANCH   7  13
HETATM   13  C   UNL     1      29.555  50.289  39.730  1.00  0.00    -0.027 A 
HETATM   14  C   UNL     1      30.211  50.332  38.498  1.00  0.00     0.124 A 
HETATM   15  N   UNL     1      30.048  51.309  37.578  1.00  0.00    -0.273 NA
HETATM   16  C   UNL     1      29.191  52.302  37.892  1.00  0.00     0.116 A 
HETATM   17  C   UNL     1      28.489  52.362  39.082  1.00  0.00     0.020 A 
HETATM   18  C   UNL     1      28.676  51.344  40.012  1.00  0.00     0.011 A 
ENDBRANCH   7  13
BRANCH  11  19
HETATM   19  N   UNL     1      33.410  48.057  41.397  1.00  0.00    -0.282 NA
HETATM   20  H   UNL     1      34.106  48.058  40.656  1.00  0.00     0.126 HD
HETATM   21  H   UNL     1      33.555  47.316  42.081  1.00  0.00     0.126 HD
ENDBRANCH  11  19
BRANCH   1  22
HETATM   22  C   UNL     1      26.875  47.843  39.604  1.00  0.00    -0.007 A 
HETATM   23  C   UNL     1      25.921  47.360  40.505  1.00  0.00     0.016 A 
HETATM   24  C   UNL     1      24.604  47.827  40.460  1.00  0.00     0.037 A 
HETATM   25  C   UNL     1      24.215  48.775  39.514  1.00  0.00     0.069 A 
HETATM   26  C   UNL     1      25.154  49.248  38.601  1.00  0.00     0.037 A 
HETATM   27  C   UNL     1      26.477  48.789  38.651  1.00  0.00     0.016 A 
BRANCH  25  28
HETATM   28  O   UNL     1      22.904  49.153  39.593  1.00  0.00    -0.347 OA
BRANCH  28  29
HETATM   29  C   UNL     1      22.560  50.444  39.082  1.00  0.00     0.214 C 
BRANCH  29  30
HETATM   30  C   UNL     1      21.172  50.821  39.540  1.00  0.00    -0.034 A 
HETATM   31  C   UNL     1      20.919  51.051  40.902  1.00  0.00     0.009 A 
HETATM   32  C   UNL     1      19.644  51.422  41.335  1.00  0.00     0.001 A 
HETATM   33  C   UNL     1      18.611  51.574  40.414  1.00  0.00     0.000 A 
HETATM   34  C   UNL     1      18.852  51.364  39.058  1.00  0.00     0.001 A 
HETATM   35  C   UNL     1      20.126  50.996  38.623  1.00  0.00     0.009 A 
ENDBRANCH  29  30
ENDBRANCH  28  29
ENDBRANCH  25  28
ENDBRANCH   1  22
TORSDOF 6
ENDMDL
MODEL 9
REMARK VINA RESULT:      -8.6     10.043     12.258
REMARK  6 active torsions:
REMARK  status: ('A' for Active; 'I' for Inactive)
REMARK    1  A    between atoms: C_4  and  C_5 
REMARK    2  A    between atoms: C_5  and  O_6 
REMARK    3  A    between atoms: O_6  and  C_7 
REMARK    4  A    between atoms: C_10  and  C_11 
REMARK    5  A    between atoms: C_17  and  C_18 
REMARK    6  A    between atoms: C_27  and  N_28 
ROOT
HETATM    1  C   UNL     1      26.139  50.024  39.165  1.00  0.00     0.072 A 
HETATM    2  N   UNL     1      25.197  50.304  38.195  1.00  0.00    -0.274 N 
HETATM    3  H   UNL     1      25.101  51.160  37.658  1.00  0.00     0.189 HD
HETATM    4  N   UNL     1      24.303  49.318  37.986  1.00  0.00    -0.148 NA
HETATM    5  C   UNL     1      24.692  48.396  38.855  1.00  0.00     0.199 A 
HETATM    6  C   UNL     1      25.827  48.742  39.594  1.00  0.00     0.040 A 
HETATM    7  C   UNL     1      26.392  47.791  40.590  1.00  0.00     0.107 A 
HETATM    8  C   UNL     1      25.498  46.568  40.749  1.00  0.00     0.081 A 
HETATM    9  C   UNL     1      25.839  45.661  41.797  1.00  0.00     0.100 C 
HETATM   10  N   UNL     1      26.129  44.932  42.650  1.00  0.00    -0.191 NA
HETATM   11  C   UNL     1      24.400  46.351  39.979  1.00  0.00     0.140 A 
HETATM   12  O   UNL     1      24.006  47.245  38.974  1.00  0.00    -0.277 OA
ENDROOT
BRANCH   7  13
HETATM   13  C   UNL     1      27.788  47.440  40.109  1.00  0.00    -0.027 A 
HETATM   14  C   UNL     1      28.023  46.624  39.000  1.00  0.00     0.124 A 
HETATM   15  N   UNL     1      29.250  46.247  38.575  1.00  0.00    -0.273 NA
HETATM   16  C   UNL     1      30.305  46.698  39.284  1.00  0.00     0.116 A 
HETATM   17  C   UNL     1      30.190  47.510  40.398  1.00  0.00     0.020 A 
HETATM   18  C   UNL     1      28.915  47.882  40.815  1.00  0.00     0.011 A 
ENDBRANCH   7  13
BRANCH  11  19
HETATM   19  N   UNL     1      23.559  45.265  40.081  1.00  0.00    -0.282 NA
HETATM   20  H   UNL     1      23.167  44.922  39.207  1.00  0.00     0.126 HD
HETATM   21  H   UNL     1      22.859  45.389  40.811  1.00  0.00     0.126 HD
ENDBRANCH  11  19
BRANCH   1  22
HETATM   22  C   UNL     1      27.174  50.976  39.558  1.00  0.00    -0.007 A 
HETATM   23  C   UNL     1      27.347  51.329  40.899  1.00  0.00     0.016 A 
HETATM   24  C   UNL     1      28.341  52.239  41.270  1.00  0.00     0.037 A 
HETATM   25  C   UNL     1      29.172  52.819  40.311  1.00  0.00     0.069 A 
HETATM   26  C   UNL     1      28.995  52.486  38.970  1.00  0.00     0.037 A 
HETATM   27  C   UNL     1      28.006  51.566  38.598  1.00  0.00     0.016 A 
BRANCH  25  28
HETATM   28  O   UNL     1      30.108  53.678  40.814  1.00  0.00    -0.347 OA
BRANCH  28  29
HETATM   29  C   UNL     1      31.480  53.403  40.516  1.00  0.00     0.214 C 
BRANCH  29  30
HETATM   30  C   UNL     1      31.897  52.115  41.182  1.00  0.00    -0.034 A 
HETATM   31  C   UNL     1      31.768  51.967  42.572  1.00  0.00     0.009 A 
HETATM   32  C   UNL     1      32.130  50.772  43.197  1.00  0.00     0.001 A 
HETATM   33  C   UNL     1      32.618  49.709  42.441  1.00  0.00     0.000 A 
HETATM   34  C   UNL     1      32.737  49.836  41.058  1.00  0.00     0.001 A 
HETATM   35  C   UNL     1      32.373  51.029  40.432  1.00  0.00     0.009 A 
ENDBRANCH  29  30
ENDBRANCH  28  29
ENDBRANCH  25  28
ENDBRANCH   1  22
TORSDOF 6
ENDMDL
MODEL 10
REMARK VINA RESULT:      -8.2      3.051      8.958
REMARK  6 active torsions:
REMARK  status: ('A' for Active; 'I' for Inactive)
REMARK    1  A    between atoms: C_4  and  C_5 
REMARK    2  A    between atoms: C_5  and  O_6 
REMARK    3  A    between atoms: O_6  and  C_7 
REMARK    4  A    between atoms: C_10  and  C_11 
REMARK    5  A    between atoms: C_17  and  C_18 
REMARK    6  A    between atoms: C_27  and  N_28 
ROOT
HETATM    1  C   UNL     1      23.924  43.698  48.681  1.00  0.00     0.072 A 
HETATM    2  N   UNL     1      24.158  42.771  47.684  1.00  0.00    -0.274 N 
HETATM    3  H   UNL     1      23.644  42.657  46.815  1.00  0.00     0.189 HD
HETATM    4  N   UNL     1      25.170  41.920  47.941  1.00  0.00    -0.148 NA
HETATM    5  C   UNL     1      25.578  42.321  49.135  1.00  0.00     0.199 A 
HETATM    6  C   UNL     1      24.884  43.423  49.643  1.00  0.00     0.040 A 
HETATM    7  C   UNL     1      25.253  43.997  50.965  1.00  0.00     0.107 A 
HETATM    8  C   UNL     1      26.310  43.145  51.658  1.00  0.00     0.081 A 
HETATM    9  C   UNL     1      26.626  43.493  53.006  1.00  0.00     0.100 C 
HETATM   10  N   UNL     1      26.874  43.788  54.099  1.00  0.00    -0.191 NA
HETATM   11  C   UNL     1      26.902  42.077  51.064  1.00  0.00     0.140 A 
HETATM   12  O   UNL     1      26.580  41.676  49.760  1.00  0.00    -0.277 OA
ENDROOT
BRANCH   7  13
HETATM   13  C   UNL     1      25.721  45.417  50.705  1.00  0.00    -0.027 A 
HETATM   14  C   UNL     1      25.145  46.529  51.322  1.00  0.00     0.124 A 
HETATM   15  N   UNL     1      25.499  47.810  51.075  1.00  0.00    -0.273 NA
HETATM   16  C   UNL     1      26.476  48.006  50.166  1.00  0.00     0.116 A 
HETATM   17  C   UNL     1      27.116  46.980  49.494  1.00  0.00     0.020 A 
HETATM   18  C   UNL     1      26.731  45.671  49.767  1.00  0.00     0.011 A 
ENDBRANCH   7  13
BRANCH  11  19
HETATM   19  N   UNL     1      27.860  41.274  51.644  1.00  0.00    -0.282 NA
HETATM   20  H   UNL     1      28.165  41.547  52.575  1.00  0.00     0.126 HD
HETATM   21  H   UNL     1      28.634  41.082  51.010  1.00  0.00     0.126 HD
ENDBRANCH  11  19
BRANCH   1  22
HETATM   22  C   UNL     1      22.852  44.686  48.603  1.00  0.00    -0.007 A 
HETATM   23  C   UNL     1      21.515  44.299  48.729  1.00  0.00     0.016 A 
HETATM   24  C   UNL     1      20.492  45.249  48.656  1.00  0.00     0.037 A 
HETATM   25  C   UNL     1      20.784  46.598  48.450  1.00  0.00     0.069 A 
HETATM   26  C   UNL     1      22.113  46.990  48.307  1.00  0.00     0.037 A 
HETATM   27  C   UNL     1      23.140  46.040  48.389  1.00  0.00     0.016 A 
BRANCH  25  28
HETATM   28  O   UNL     1      19.691  47.418  48.415  1.00  0.00    -0.347 OA
BRANCH  28  29
HETATM   29  C   UNL     1      19.386  48.156  49.601  1.00  0.00     0.214 C 
BRANCH  29  30
HETATM   30  C   UNL     1      19.294  49.628  49.276  1.00  0.00    -0.034 A 
HETATM   31  C   UNL     1      20.426  50.319  48.816  1.00  0.00     0.009 A 
HETATM   32  C   UNL     1      20.348  51.674  48.491  1.00  0.00     0.001 A 
HETATM   33  C   UNL     1      19.138  52.353  48.614  1.00  0.00     0.000 A 
HETATM   34  C   UNL     1      18.002  51.676  49.054  1.00  0.00     0.001 A 
HETATM   35  C   UNL     1      18.078  50.320  49.377  1.00  0.00     0.009 A 
ENDBRANCH  29  30
ENDBRANCH  28  29
ENDBRANCH  25  28
ENDBRANCH   1  22
TORSDOF 6
ENDMDL
