MODEL 1
REMARK VINA RESULT:      -9.4      0.000      0.000
REMARK  7 active torsions:
REMARK  status: ('A' for Active; 'I' for Inactive)
REMARK    1  A    between atoms: O_2  and  C_3 
REMARK    2  A    between atoms: C_6  and  C_7 
REMARK       I    between atoms: C_7  and  N_8 
REMARK    3  A    between atoms: N_8  and  C_9 
REMARK    4  A    between atoms: C_9  and  C_10 
REMARK    5  A    between atoms: C_10  and  N_11 
REMARK       I    between atoms: N_11  and  C_12 
REMARK    6  A    between atoms: C_12  and  C_13 
REMARK    7  A    between atoms: C_15  and  C_16 
ROOT
HETATM    1  N   UNL     1      26.600  45.679  52.245  1.00  0.00    -0.355 N 
HETATM    2  C   UNL     1      26.653  44.628  53.136  1.00  0.00     0.251 C 
HETATM    3  O   UNL     1      25.659  44.166  53.686  1.00  0.00    -0.268 OA
HETATM    4  H   UNL     1      27.450  46.160  51.982  1.00  0.00     0.162 HD
ENDROOT
BRANCH   1   5
HETATM    5  C   UNL     1      25.342  46.330  51.921  1.00  0.00     0.142 C 
BRANCH   5   6
HETATM    6  C   UNL     1      24.882  46.042  50.487  1.00  0.00     0.142 C 
BRANCH   6   7
HETATM    7  N   UNL     1      23.853  46.957  50.030  1.00  0.00    -0.355 N 
HETATM    8  C   UNL     1      24.171  48.219  49.573  1.00  0.00     0.251 C 
HETATM    9  O   UNL     1      25.324  48.629  49.501  1.00  0.00    -0.268 OA
HETATM   10  H   UNL     1      22.926  46.583  49.885  1.00  0.00     0.162 HD
BRANCH   8  11
HETATM   11  C   UNL     1      23.037  49.079  49.130  1.00  0.00     0.032 A 
HETATM   12  C   UNL     1      23.186  50.451  48.889  1.00  0.00     0.020 A 
HETATM   13  C   UNL     1      22.098  51.216  48.448  1.00  0.00     0.038 A 
HETATM   14  C   UNL     1      20.856  50.615  48.234  1.00  0.00     0.068 A 
HETATM   15  C   UNL     1      20.711  49.246  48.469  1.00  0.00     0.038 A 
HETATM   16  C   UNL     1      21.793  48.479  48.908  1.00  0.00     0.020 A 
BRANCH  14  17
HETATM   17  O   UNL     1      19.723  51.243  47.799  1.00  0.00    -0.356 OA
HETATM   18  C   UNL     1      19.191  52.264  48.634  1.00  0.00     0.210 C 
ENDBRANCH  14  17
ENDBRANCH   8  11
ENDBRANCH   6   7
ENDBRANCH   5   6
ENDBRANCH   1   5
BRANCH   2  19
HETATM   19  C   UNL     1      28.006  44.087  53.450  1.00  0.00     0.032 A 
HETATM   20  C   UNL     1      28.576  44.408  54.690  1.00  0.00     0.029 A 
HETATM   21  C   UNL     1      29.845  43.926  55.042  1.00  0.00    -0.023 A 
HETATM   22  C   UNL     1      30.534  43.115  54.130  1.00  0.00     0.012 A 
HETATM   23  C   UNL     1      29.963  42.778  52.900  1.00  0.00     0.002 A 
HETATM   24  C   UNL     1      28.698  43.259  52.560  1.00  0.00     0.017 A 
BRANCH  21  25
HETATM   25  C   UNL     1      30.451  44.257  56.323  1.00  0.00    -0.002 A 
HETATM   26  C   UNL     1      31.463  43.533  56.923  1.00  0.00     0.153 A 
HETATM   27  O   UNL     1      31.827  44.096  58.103  1.00  0.00    -0.334 OA
HETATM   28  C   UNL     1      31.052  45.196  58.270  1.00  0.00     0.142 A 
HETATM   29  C   UNL     1      30.194  45.344  57.206  1.00  0.00     0.038 A 
ENDBRANCH  21  25
ENDBRANCH   2  19
TORSDOF 7
ENDMDL
MODEL 2
REMARK VINA RESULT:      -9.4      1.894      2.944
REMARK  7 active torsions:
REMARK  status: ('A' for Active; 'I' for Inactive)
REMARK    1  A    between atoms: O_2  and  C_3 
REMARK    2  A    between atoms: C_6  and  C_7 
REMARK       I    between atoms: C_7  and  N_8 
REMARK    3  A    between atoms: N_8  and  C_9 
REMARK    4  A    between atoms: C_9  and  C_10 
REMARK    5  A    between atoms: C_10  and  N_11 
REMARK       I    between atoms: N_11  and  C_12 
REMARK    6  A    between atoms: C_12  and  C_13 
REMARK    7  A    between atoms: C_15  and  C_16 
ROOT
HETATM    1  N   UNL     1      25.164  46.634  51.285  1.00  0.00    -0.355 N 
HETATM    2  C   UNL     1      25.295  45.788  52.366  1.00  0.00     0.251 C 
HETATM    3  O   UNL     1      24.685  44.729  52.464  1.00  0.00    -0.268 OA
HETATM    4  H   UNL     1      25.515  47.581  51.340  1.00  0.00     0.162 HD
ENDROOT
BRANCH   1   5
HETATM    5  C   UNL     1      24.259  46.324  50.191  1.00  0.00     0.142 C 
BRANCH   5   6
HETATM    6  C   UNL     1      24.035  47.518  49.256  1.00  0.00     0.142 C 
BRANCH   6   7
HETATM    7  N   UNL     1      22.807  48.237  49.542  1.00  0.00    -0.355 N 
HETATM    8  C   UNL     1      22.320  49.191  48.673  1.00  0.00     0.251 C 
HETATM    9  O   UNL     1      22.869  49.467  47.612  1.00  0.00    -0.268 OA
HETATM   10  H   UNL     1      22.229  47.895  50.295  1.00  0.00     0.162 HD
BRANCH   8  11
HETATM   11  C   UNL     1      21.054  49.873  49.064  1.00  0.00     0.032 A 
HETATM   12  C   UNL     1      20.794  51.212  48.747  1.00  0.00     0.020 A 
HETATM   13  C   UNL     1      19.578  51.804  49.113  1.00  0.00     0.038 A 
HETATM   14  C   UNL     1      18.608  51.061  49.787  1.00  0.00     0.068 A 
HETATM   15  C   UNL     1      18.866  49.724  50.097  1.00  0.00     0.038 A 
HETATM   16  C   UNL     1      20.076  49.128  49.734  1.00  0.00     0.020 A 
BRANCH  14  17
HETATM   17  O   UNL     1      17.383  51.515  50.191  1.00  0.00    -0.356 OA
HETATM   18  C   UNL     1      16.462  51.878  49.169  1.00  0.00     0.210 C 
ENDBRANCH  14  17
ENDBRANCH   8  11
ENDBRANCH   6   7
ENDBRANCH   5   6
ENDBRANCH   1   5
BRANCH   2  19
HETATM   19  C   UNL     1      26.195  46.242  53.463  1.00  0.00     0.032 A 
HETATM   20  C   UNL     1      27.262  45.410  53.831  1.00  0.00     0.029 A 
HETATM   21  C   UNL     1      28.143  45.786  54.856  1.00  0.00    -0.023 A 
HETATM   22  C   UNL     1      27.939  47.011  55.504  1.00  0.00     0.012 A 
HETATM   23  C   UNL     1      26.888  47.852  55.129  1.00  0.00     0.002 A 
HETATM   24  C   UNL     1      26.018  47.472  54.107  1.00  0.00     0.017 A 
BRANCH  21  25
HETATM   25  C   UNL     1      29.250  44.929  55.252  1.00  0.00    -0.002 A 
HETATM   26  C   UNL     1      30.156  45.229  56.251  1.00  0.00     0.153 A 
HETATM   27  O   UNL     1      31.064  44.230  56.398  1.00  0.00    -0.334 OA
HETATM   28  C   UNL     1      30.744  43.271  55.493  1.00  0.00     0.142 A 
HETATM   29  C   UNL     1      29.638  43.647  54.768  1.00  0.00     0.038 A 
ENDBRANCH  21  25
ENDBRANCH   2  19
TORSDOF 7
ENDMDL
MODEL 3
REMARK VINA RESULT:      -9.3      3.663      5.167
REMARK  7 active torsions:
REMARK  status: ('A' for Active; 'I' for Inactive)
REMARK    1  A    between atoms: O_2  and  C_3 
REMARK    2  A    between atoms: C_6  and  C_7 
REMARK       I    between atoms: C_7  and  N_8 
REMARK    3  A    between atoms: N_8  and  C_9 
REMARK    4  A    between atoms: C_9  and  C_10 
REMARK    5  A    between atoms: C_10  and  N_11 
REMARK       I    between atoms: N_11  and  C_12 
REMARK    6  A    between atoms: C_12  and  C_13 
REMARK    7  A    between atoms: C_15  and  C_16 
ROOT
HETATM    1  N   UNL     1      26.960  41.571  52.003  1.00  0.00    -0.355 N 
HETATM    2  C   UNL     1      28.249  41.482  52.485  1.00  0.00     0.251 C 
HETATM    3  O   UNL     1      29.007  40.561  52.202  1.00  0.00    -0.268 OA
HETATM    4  H   UNL     1      26.309  42.221  52.422  1.00  0.00     0.162 HD
ENDROOT
BRANCH   1   5
HETATM    5  C   UNL     1      26.407  40.544  51.136  1.00  0.00     0.142 C 
BRANCH   5   6
HETATM    6  C   UNL     1      25.647  41.129  49.941  1.00  0.00     0.142 C 
BRANCH   6   7
HETATM    7  N   UNL     1      25.831  42.561  49.800  1.00  0.00    -0.355 N 
HETATM    8  C   UNL     1      25.057  43.454  50.512  1.00  0.00     0.251 C 
HETATM    9  O   UNL     1      24.199  43.099  51.313  1.00  0.00    -0.268 OA
HETATM   10  H   UNL     1      26.654  42.881  49.310  1.00  0.00     0.162 HD
BRANCH   8  11
HETATM   11  C   UNL     1      25.326  44.902  50.290  1.00  0.00     0.032 A 
HETATM   12  C   UNL     1      24.376  45.893  50.569  1.00  0.00     0.020 A 
HETATM   13  C   UNL     1      24.682  47.246  50.370  1.00  0.00     0.038 A 
HETATM   14  C   UNL     1      25.941  47.620  49.900  1.00  0.00     0.068 A 
HETATM   15  C   UNL     1      26.890  46.632  49.627  1.00  0.00     0.038 A 
HETATM   16  C   UNL     1      26.590  45.282  49.825  1.00  0.00     0.020 A 
BRANCH  14  17
HETATM   17  O   UNL     1      26.368  48.899  49.672  1.00  0.00    -0.356 OA
HETATM   18  C   UNL     1      27.670  49.056  49.122  1.00  0.00     0.210 C 
ENDBRANCH  14  17
ENDBRANCH   8  11
ENDBRANCH   6   7
ENDBRANCH   5   6
ENDBRANCH   1   5
BRANCH   2  19
HETATM   19  C   UNL     1      28.685  42.553  53.424  1.00  0.00     0.032 A 
HETATM   20  C   UNL     1      27.908  43.718  53.508  1.00  0.00     0.029 A 
HETATM   21  C   UNL     1      28.268  44.759  54.376  1.00  0.00    -0.023 A 
HETATM   22  C   UNL     1      29.419  44.613  55.162  1.00  0.00     0.012 A 
HETATM   23  C   UNL     1      30.187  43.447  55.095  1.00  0.00     0.002 A 
HETATM   24  C   UNL     1      29.819  42.415  54.231  1.00  0.00     0.017 A 
BRANCH  21  25
HETATM   25  C   UNL     1      27.475  45.975  54.468  1.00  0.00    -0.002 A 
HETATM   26  C   UNL     1      27.732  47.016  55.338  1.00  0.00     0.153 A 
HETATM   27  O   UNL     1      26.827  48.016  55.179  1.00  0.00    -0.334 OA
HETATM   28  C   UNL     1      25.979  47.626  54.195  1.00  0.00     0.142 A 
HETATM   29  C   UNL     1      26.332  46.384  53.721  1.00  0.00     0.038 A 
ENDBRANCH  21  25
ENDBRANCH   2  19
TORSDOF 7
ENDMDL
MODEL 4
REMARK VINA RESULT:      -9.3      0.572      1.090
REMARK  7 active torsions:
REMARK  status: ('A' for Active; 'I' for Inactive)
REMARK    1  A    between atoms: O_2  and  C_3 
REMARK    2  A    between atoms: C_6  and  C_7 
REMARK       I    between atoms: C_7  and  N_8 
REMARK    3  A    between atoms: N_8  and  C_9 
REMARK    4  A    between atoms: C_9  and  C_10 
REMARK    5  A    between atoms: C_10  and  N_11 
REMARK       I    between atoms: N_11  and  C_12 
REMARK    6  A    between atoms: C_12  and  C_13 
REMARK    7  A    between atoms: C_15  and  C_16 
ROOT
HETATM    1  N   UNL     1      26.198  44.618  51.904  1.00  0.00    -0.355 N 
HETATM    2  C   UNL     1      26.875  45.052  53.023  1.00  0.00     0.251 C 
HETATM    3  O   UNL     1      26.512  46.012  53.695  1.00  0.00    -0.268 OA
HETATM    4  H   UNL     1      26.639  43.968  51.268  1.00  0.00     0.162 HD
ENDROOT
BRANCH   1   5
HETATM    5  C   UNL     1      25.006  45.302  51.432  1.00  0.00     0.142 C 
BRANCH   5   6
HETATM    6  C   UNL     1      25.157  45.829  50.000  1.00  0.00     0.142 C 
BRANCH   6   7
HETATM    7  N   UNL     1      24.065  46.697  49.600  1.00  0.00    -0.355 N 
HETATM    8  C   UNL     1      24.241  48.061  49.490  1.00  0.00     0.251 C 
HETATM    9  O   UNL     1      25.318  48.611  49.694  1.00  0.00    -0.268 OA
HETATM   10  H   UNL     1      23.232  46.262  49.231  1.00  0.00     0.162 HD
BRANCH   8  11
HETATM   11  C   UNL     1      23.054  48.861  49.075  1.00  0.00     0.032 A 
HETATM   12  C   UNL     1      21.801  48.279  48.844  1.00  0.00     0.020 A 
HETATM   13  C   UNL     1      20.706  49.074  48.481  1.00  0.00     0.038 A 
HETATM   14  C   UNL     1      20.851  50.456  48.356  1.00  0.00     0.068 A 
HETATM   15  C   UNL     1      22.100  51.036  48.593  1.00  0.00     0.038 A 
HETATM   16  C   UNL     1      23.194  50.248  48.956  1.00  0.00     0.020 A 
BRANCH  14  17
HETATM   17  O   UNL     1      19.865  51.341  48.018  1.00  0.00    -0.356 OA
HETATM   18  C   UNL     1      19.267  52.076  49.080  1.00  0.00     0.210 C 
ENDBRANCH  14  17
ENDBRANCH   8  11
ENDBRANCH   6   7
ENDBRANCH   5   6
ENDBRANCH   1   5
BRANCH   2  19
HETATM   19  C   UNL     1      28.126  44.320  53.372  1.00  0.00     0.032 A 
HETATM   20  C   UNL     1      28.725  44.586  54.612  1.00  0.00     0.029 A 
HETATM   21  C   UNL     1      29.902  43.926  54.995  1.00  0.00    -0.023 A 
HETATM   22  C   UNL     1      30.468  42.994  54.116  1.00  0.00     0.012 A 
HETATM   23  C   UNL     1      29.865  42.712  52.887  1.00  0.00     0.002 A 
HETATM   24  C   UNL     1      28.693  43.371  52.515  1.00  0.00     0.017 A 
BRANCH  21  25
HETATM   25  C   UNL     1      30.537  44.198  56.276  1.00  0.00    -0.002 A 
HETATM   26  C   UNL     1      31.522  43.414  56.845  1.00  0.00     0.153 A 
HETATM   27  O   UNL     1      31.926  43.930  58.034  1.00  0.00    -0.334 OA
HETATM   28  C   UNL     1      31.204  45.061  58.238  1.00  0.00     0.142 A 
HETATM   29  C   UNL     1      30.341  45.274  57.189  1.00  0.00     0.038 A 
ENDBRANCH  21  25
ENDBRANCH   2  19
TORSDOF 7
ENDMDL
MODEL 5
REMARK VINA RESULT:      -9.1      1.859     10.480
REMARK  7 active torsions:
REMARK  status: ('A' for Active; 'I' for Inactive)
REMARK    1  A    between atoms: O_2  and  C_3 
REMARK    2  A    between atoms: C_6  and  C_7 
REMARK       I    between atoms: C_7  and  N_8 
REMARK    3  A    between atoms: N_8  and  C_9 
REMARK    4  A    between atoms: C_9  and  C_10 
REMARK    5  A    between atoms: C_10  and  N_11 
REMARK       I    between atoms: N_11  and  C_12 
REMARK    6  A    between atoms: C_12  and  C_13 
REMARK    7  A    between atoms: C_15  and  C_16 
ROOT
HETATM    1  N   UNL     1      25.776  45.348  49.713  1.00  0.00    -0.355 N 
HETATM    2  C   UNL     1      25.901  46.508  50.448  1.00  0.00     0.251 C 
HETATM    3  O   UNL     1      26.063  46.515  51.664  1.00  0.00    -0.268 OA
HETATM    4  H   UNL     1      25.437  45.388  48.761  1.00  0.00     0.162 HD
ENDROOT
BRANCH   1   5
HETATM    5  C   UNL     1      25.804  44.044  50.352  1.00  0.00     0.142 C 
BRANCH   5   6
HETATM    6  C   UNL     1      27.228  43.510  50.543  1.00  0.00     0.142 C 
BRANCH   6   7
HETATM    7  N   UNL     1      27.849  43.983  51.766  1.00  0.00    -0.355 N 
HETATM    8  C   UNL     1      28.483  43.112  52.628  1.00  0.00     0.251 C 
HETATM    9  O   UNL     1      28.582  41.910  52.405  1.00  0.00    -0.268 OA
HETATM   10  H   UNL     1      27.964  44.980  51.878  1.00  0.00     0.162 HD
BRANCH   8  11
HETATM   11  C   UNL     1      29.085  43.701  53.857  1.00  0.00     0.032 A 
HETATM   12  C   UNL     1      30.249  43.188  54.442  1.00  0.00     0.020 A 
HETATM   13  C   UNL     1      30.795  43.790  55.583  1.00  0.00     0.038 A 
HETATM   14  C   UNL     1      30.187  44.915  56.143  1.00  0.00     0.068 A 
HETATM   15  C   UNL     1      29.029  45.430  55.555  1.00  0.00     0.038 A 
HETATM   16  C   UNL     1      28.482  44.833  54.417  1.00  0.00     0.020 A 
BRANCH  14  17
HETATM   17  O   UNL     1      30.621  45.600  57.245  1.00  0.00    -0.356 OA
HETATM   18  C   UNL     1      31.170  44.829  58.307  1.00  0.00     0.210 C 
ENDBRANCH  14  17
ENDBRANCH   8  11
ENDBRANCH   6   7
ENDBRANCH   5   6
ENDBRANCH   1   5
BRANCH   2  19
HETATM   19  C   UNL     1      25.784  47.789  49.697  1.00  0.00     0.032 A 
HETATM   20  C   UNL     1      24.506  48.342  49.526  1.00  0.00     0.029 A 
HETATM   21  C   UNL     1      24.334  49.548  48.830  1.00  0.00    -0.023 A 
HETATM   22  C   UNL     1      25.465  50.191  48.309  1.00  0.00     0.012 A 
HETATM   23  C   UNL     1      26.741  49.654  48.492  1.00  0.00     0.002 A 
HETATM   24  C   UNL     1      26.904  48.456  49.188  1.00  0.00     0.017 A 
BRANCH  21  25
HETATM   25  C   UNL     1      23.014  50.129  48.639  1.00  0.00    -0.002 A 
HETATM   26  C   UNL     1      22.310  50.106  47.451  1.00  0.00     0.153 A 
HETATM   27  O   UNL     1      21.105  50.716  47.589  1.00  0.00    -0.334 OA
HETATM   28  C   UNL     1      21.021  51.134  48.877  1.00  0.00     0.142 A 
HETATM   29  C   UNL     1      22.162  50.796  49.566  1.00  0.00     0.038 A 
ENDBRANCH  21  25
ENDBRANCH   2  19
TORSDOF 7
ENDMDL
MODEL 6
REMARK VINA RESULT:      -9.1      1.380     11.204
REMARK  7 active torsions:
REMARK  status: ('A' for Active; 'I' for Inactive)
REMARK    1  A    between atoms: O_2  and  C_3 
REMARK    2  A    between atoms: C_6  and  C_7 
REMARK       I    between atoms: C_7  and  N_8 
REMARK    3  A    between atoms: N_8  and  C_9 
REMARK    4  A    between atoms: C_9  and  C_10 
REMARK    5  A    between atoms: C_10  and  N_11 
REMARK       I    between atoms: N_11  and  C_12 
REMARK    6  A    between atoms: C_12  and  C_13 
REMARK    7  A    between atoms: C_15  and  C_16 
ROOT
HETATM    1  N   UNL     1      25.133  47.328  50.283  1.00  0.00    -0.355 N 
HETATM    2  C   UNL     1      23.954  47.354  49.570  1.00  0.00     0.251 C 
HETATM    3  O   UNL     1      23.330  46.342  49.271  1.00  0.00    -0.268 OA
HETATM    4  H   UNL     1      25.716  48.154  50.324  1.00  0.00     0.162 HD
ENDROOT
BRANCH   1   5
HETATM    5  C   UNL     1      25.731  46.073  50.707  1.00  0.00     0.142 C 
BRANCH   5   6
HETATM    6  C   UNL     1      25.341  45.689  52.138  1.00  0.00     0.142 C 
BRANCH   6   7
HETATM    7  N   UNL     1      26.490  45.486  53.001  1.00  0.00    -0.355 N 
HETATM    8  C   UNL     1      27.118  44.260  53.079  1.00  0.00     0.251 C 
HETATM    9  O   UNL     1      26.766  43.290  52.415  1.00  0.00    -0.268 OA
HETATM   10  H   UNL     1      26.926  46.305  53.400  1.00  0.00     0.162 HD
BRANCH   8  11
HETATM   11  C   UNL     1      28.286  44.159  53.998  1.00  0.00     0.032 A 
HETATM   12  C   UNL     1      29.214  43.114  53.920  1.00  0.00     0.020 A 
HETATM   13  C   UNL     1      30.313  43.074  54.788  1.00  0.00     0.038 A 
HETATM   14  C   UNL     1      30.498  44.083  55.735  1.00  0.00     0.068 A 
HETATM   15  C   UNL     1      29.575  45.128  55.808  1.00  0.00     0.038 A 
HETATM   16  C   UNL     1      28.479  45.173  54.943  1.00  0.00     0.020 A 
BRANCH  14  17
HETATM   17  O   UNL     1      31.528  44.166  56.631  1.00  0.00    -0.356 OA
HETATM   18  C   UNL     1      31.201  44.581  57.951  1.00  0.00     0.210 C 
ENDBRANCH  14  17
ENDBRANCH   8  11
ENDBRANCH   6   7
ENDBRANCH   5   6
ENDBRANCH   1   5
BRANCH   2  19
HETATM   19  C   UNL     1      23.473  48.693  49.125  1.00  0.00     0.032 A 
HETATM   20  C   UNL     1      22.171  49.080  49.476  1.00  0.00     0.029 A 
HETATM   21  C   UNL     1      21.665  50.328  49.086  1.00  0.00    -0.023 A 
HETATM   22  C   UNL     1      22.486  51.184  48.339  1.00  0.00     0.012 A 
HETATM   23  C   UNL     1      23.790  50.811  48.002  1.00  0.00     0.002 A 
HETATM   24  C   UNL     1      24.286  49.568  48.397  1.00  0.00     0.017 A 
BRANCH  21  25
HETATM   25  C   UNL     1      20.314  50.739  49.437  1.00  0.00    -0.002 A 
HETATM   26  C   UNL     1      19.513  50.095  50.360  1.00  0.00     0.153 A 
HETATM   27  O   UNL     1      18.314  50.721  50.481  1.00  0.00    -0.334 OA
HETATM   28  C   UNL     1      18.337  51.782  49.636  1.00  0.00     0.142 A 
HETATM   29  C   UNL     1      19.541  51.843  48.975  1.00  0.00     0.038 A 
ENDBRANCH  21  25
ENDBRANCH   2  19
TORSDOF 7
ENDMDL
MODEL 7
REMARK VINA RESULT:      -9.0      3.177      9.507
REMARK  7 active torsions:
REMARK  status: ('A' for Active; 'I' for Inactive)
REMARK    1  A    between atoms: O_2  and  C_3 
REMARK    2  A    between atoms: C_6  and  C_7 
REMARK       I    between atoms: C_7  and  N_8 
REMARK    3  A    between atoms: N_8  and  C_9 
REMARK    4  A    between atoms: C_9  and  C_10 
REMARK    5  A    between atoms: C_10  and  N_11 
REMARK       I    between atoms: N_11  and  C_12 
REMARK    6  A    between atoms: C_12  and  C_13 
REMARK    7  A    between atoms: C_15  and  C_16 
ROOT
HETATM    1  N   UNL     1      26.562  42.450  51.720  1.00  0.00    -0.355 N 
HETATM    2  C   UNL     1      26.825  43.475  50.837  1.00  0.00     0.251 C 
HETATM    3  O   UNL     1      27.452  43.316  49.795  1.00  0.00    -0.268 OA
HETATM    4  H   UNL     1      26.232  42.659  52.653  1.00  0.00     0.162 HD
ENDROOT
BRANCH   1   5
HETATM    5  C   UNL     1      27.045  41.101  51.475  1.00  0.00     0.142 C 
BRANCH   5   6
HETATM    6  C   UNL     1      28.294  40.764  52.297  1.00  0.00     0.142 C 
BRANCH   6   7
HETATM    7  N   UNL     1      28.546  41.719  53.360  1.00  0.00    -0.355 N 
HETATM    8  C   UNL     1      29.449  42.749  53.195  1.00  0.00     0.251 C 
HETATM    9  O   UNL     1      30.064  42.934  52.150  1.00  0.00    -0.268 OA
HETATM   10  H   UNL     1      27.916  41.718  54.149  1.00  0.00     0.162 HD
BRANCH   8  11
HETATM   11  C   UNL     1      29.635  43.671  54.351  1.00  0.00     0.032 A 
HETATM   12  C   UNL     1      28.739  44.709  54.634  1.00  0.00     0.020 A 
HETATM   13  C   UNL     1      28.940  45.536  55.747  1.00  0.00     0.038 A 
HETATM   14  C   UNL     1      30.031  45.326  56.592  1.00  0.00     0.068 A 
HETATM   15  C   UNL     1      30.921  44.286  56.312  1.00  0.00     0.038 A 
HETATM   16  C   UNL     1      30.724  43.459  55.204  1.00  0.00     0.020 A 
BRANCH  14  17
HETATM   17  O   UNL     1      30.334  46.052  57.710  1.00  0.00    -0.356 OA
HETATM   18  C   UNL     1      30.998  45.365  58.763  1.00  0.00     0.210 C 
ENDBRANCH  14  17
ENDBRANCH   8  11
ENDBRANCH   6   7
ENDBRANCH   5   6
ENDBRANCH   1   5
BRANCH   2  19
HETATM   19  C   UNL     1      26.344  44.830  51.227  1.00  0.00     0.032 A 
HETATM   20  C   UNL     1      26.479  45.873  50.298  1.00  0.00     0.029 A 
HETATM   21  C   UNL     1      26.042  47.169  50.608  1.00  0.00    -0.023 A 
HETATM   22  C   UNL     1      25.468  47.404  51.864  1.00  0.00     0.012 A 
HETATM   23  C   UNL     1      25.316  46.366  52.786  1.00  0.00     0.002 A 
HETATM   24  C   UNL     1      25.749  45.078  52.468  1.00  0.00     0.017 A 
BRANCH  21  25
HETATM   25  C   UNL     1      26.182  48.261  49.656  1.00  0.00    -0.002 A 
HETATM   26  C   UNL     1      27.385  48.826  49.280  1.00  0.00     0.153 A 
HETATM   27  O   UNL     1      27.193  49.814  48.368  1.00  0.00    -0.334 OA
HETATM   28  C   UNL     1      25.857  49.888  48.144  1.00  0.00     0.142 A 
HETATM   29  C   UNL     1      25.191  48.956  48.905  1.00  0.00     0.038 A 
ENDBRANCH  21  25
ENDBRANCH   2  19
TORSDOF 7
ENDMDL
MODEL 8
REMARK VINA RESULT:      -8.9      2.518      3.942
REMARK  7 active torsions:
REMARK  status: ('A' for Active; 'I' for Inactive)
REMARK    1  A    between atoms: O_2  and  C_3 
REMARK    2  A    between atoms: C_6  and  C_7 
REMARK       I    between atoms: C_7  and  N_8 
REMARK    3  A    between atoms: N_8  and  C_9 
REMARK    4  A    between atoms: C_9  and  C_10 
REMARK    5  A    between atoms: C_10  and  N_11 
REMARK       I    between atoms: N_11  and  C_12 
REMARK    6  A    between atoms: C_12  and  C_13 
REMARK    7  A    between atoms: C_15  and  C_16 
ROOT
HETATM    1  N   UNL     1      26.569  42.038  51.925  1.00  0.00    -0.355 N 
HETATM    2  C   UNL     1      27.868  42.257  52.331  1.00  0.00     0.251 C 
HETATM    3  O   UNL     1      28.808  41.552  51.978  1.00  0.00    -0.268 OA
HETATM    4  H   UNL     1      25.807  42.503  52.398  1.00  0.00     0.162 HD
ENDROOT
BRANCH   1   5
HETATM    5  C   UNL     1      26.229  40.921  51.059  1.00  0.00     0.142 C 
BRANCH   5   6
HETATM    6  C   UNL     1      25.719  41.375  49.686  1.00  0.00     0.142 C 
BRANCH   6   7
HETATM    7  N   UNL     1      25.218  42.736  49.691  1.00  0.00    -0.355 N 
HETATM    8  C   UNL     1      26.063  43.809  49.492  1.00  0.00     0.251 C 
HETATM    9  O   UNL     1      27.263  43.679  49.277  1.00  0.00    -0.268 OA
HETATM   10  H   UNL     1      24.217  42.867  49.661  1.00  0.00     0.162 HD
BRANCH   8  11
HETATM   11  C   UNL     1      25.446  45.165  49.520  1.00  0.00     0.032 A 
HETATM   12  C   UNL     1      24.095  45.380  49.218  1.00  0.00     0.020 A 
HETATM   13  C   UNL     1      23.551  46.670  49.282  1.00  0.00     0.038 A 
HETATM   14  C   UNL     1      24.349  47.752  49.658  1.00  0.00     0.068 A 
HETATM   15  C   UNL     1      25.694  47.534  49.965  1.00  0.00     0.038 A 
HETATM   16  C   UNL     1      26.241  46.250  49.903  1.00  0.00     0.020 A 
BRANCH  14  17
HETATM   17  O   UNL     1      23.941  49.053  49.768  1.00  0.00    -0.356 OA
HETATM   18  C   UNL     1      24.219  49.910  48.668  1.00  0.00     0.210 C 
ENDBRANCH  14  17
ENDBRANCH   8  11
ENDBRANCH   6   7
ENDBRANCH   5   6
ENDBRANCH   1   5
BRANCH   2  19
HETATM   19  C   UNL     1      28.089  43.386  53.278  1.00  0.00     0.032 A 
HETATM   20  C   UNL     1      29.091  43.249  54.250  1.00  0.00     0.029 A 
HETATM   21  C   UNL     1      29.346  44.279  55.167  1.00  0.00    -0.023 A 
HETATM   22  C   UNL     1      28.582  45.451  55.092  1.00  0.00     0.012 A 
HETATM   23  C   UNL     1      27.595  45.600  54.114  1.00  0.00     0.002 A 
HETATM   24  C   UNL     1      27.350  44.572  53.204  1.00  0.00     0.017 A 
BRANCH  21  25
HETATM   25  C   UNL     1      30.377  44.147  56.185  1.00  0.00    -0.002 A 
HETATM   26  C   UNL     1      30.533  45.001  57.260  1.00  0.00     0.153 A 
HETATM   27  O   UNL     1      31.572  44.611  58.041  1.00  0.00    -0.334 OA
HETATM   28  C   UNL     1      32.093  43.494  57.475  1.00  0.00     0.142 A 
HETATM   29  C   UNL     1      31.395  43.163  56.338  1.00  0.00     0.038 A 
ENDBRANCH  21  25
ENDBRANCH   2  19
TORSDOF 7
ENDMDL
MODEL 9
REMARK VINA RESULT:      -8.7      2.915      4.377
REMARK  7 active torsions:
REMARK  status: ('A' for Active; 'I' for Inactive)
REMARK    1  A    between atoms: O_2  and  C_3 
REMARK    2  A    between atoms: C_6  and  C_7 
REMARK       I    between atoms: C_7  and  N_8 
REMARK    3  A    between atoms: N_8  and  C_9 
REMARK    4  A    between atoms: C_9  and  C_10 
REMARK    5  A    between atoms: C_10  and  N_11 
REMARK       I    between atoms: N_11  and  C_12 
REMARK    6  A    between atoms: C_12  and  C_13 
REMARK    7  A    between atoms: C_15  and  C_16 
ROOT
HETATM    1  N   UNL     1      26.970  42.024  51.917  1.00  0.00    -0.355 N 
HETATM    2  C   UNL     1      28.185  41.816  52.534  1.00  0.00     0.251 C 
HETATM    3  O   UNL     1      28.873  40.819  52.337  1.00  0.00    -0.268 OA
HETATM    4  H   UNL     1      26.347  42.743  52.261  1.00  0.00     0.162 HD
ENDROOT
BRANCH   1   5
HETATM    5  C   UNL     1      26.411  41.044  51.002  1.00  0.00     0.142 C 
BRANCH   5   6
HETATM    6  C   UNL     1      26.321  41.565  49.563  1.00  0.00     0.142 C 
BRANCH   6   7
HETATM    7  N   UNL     1      25.445  42.713  49.431  1.00  0.00    -0.355 N 
HETATM    8  C   UNL     1      25.938  44.000  49.502  1.00  0.00     0.251 C 
HETATM    9  O   UNL     1      27.130  44.248  49.652  1.00  0.00    -0.268 OA
HETATM   10  H   UNL     1      24.503  42.549  49.107  1.00  0.00     0.162 HD
BRANCH   8  11
HETATM   11  C   UNL     1      24.951  45.107  49.358  1.00  0.00     0.032 A 
HETATM   12  C   UNL     1      25.140  46.362  49.952  1.00  0.00     0.020 A 
HETATM   13  C   UNL     1      24.198  47.382  49.767  1.00  0.00     0.038 A 
HETATM   14  C   UNL     1      23.066  47.162  48.981  1.00  0.00     0.068 A 
HETATM   15  C   UNL     1      22.883  45.912  48.384  1.00  0.00     0.038 A 
HETATM   16  C   UNL     1      23.819  44.891  48.564  1.00  0.00     0.020 A 
BRANCH  14  17
HETATM   17  O   UNL     1      22.081  48.071  48.715  1.00  0.00    -0.356 OA
HETATM   18  C   UNL     1      20.737  47.622  48.842  1.00  0.00     0.210 C 
ENDBRANCH  14  17
ENDBRANCH   8  11
ENDBRANCH   6   7
ENDBRANCH   5   6
ENDBRANCH   1   5
BRANCH   2  19
HETATM   19  C   UNL     1      28.625  42.853  53.509  1.00  0.00     0.032 A 
HETATM   20  C   UNL     1      27.832  44.000  53.660  1.00  0.00     0.029 A 
HETATM   21  C   UNL     1      28.195  45.008  54.564  1.00  0.00    -0.023 A 
HETATM   22  C   UNL     1      29.366  44.849  55.316  1.00  0.00     0.012 A 
HETATM   23  C   UNL     1      30.151  43.701  55.183  1.00  0.00     0.002 A 
HETATM   24  C   UNL     1      29.780  42.700  54.283  1.00  0.00     0.017 A 
BRANCH  21  25
HETATM   25  C   UNL     1      27.384  46.206  54.726  1.00  0.00    -0.002 A 
HETATM   26  C   UNL     1      26.159  46.411  54.122  1.00  0.00     0.153 A 
HETATM   27  O   UNL     1      25.640  47.616  54.475  1.00  0.00    -0.334 OA
HETATM   28  C   UNL     1      26.531  48.196  55.318  1.00  0.00     0.142 A 
HETATM   29  C   UNL     1      27.616  47.373  55.509  1.00  0.00     0.038 A 
ENDBRANCH  21  25
ENDBRANCH   2  19
TORSDOF 7
ENDMDL
MODEL 10
REMARK VINA RESULT:      -8.6      1.442     11.062
REMARK  7 active torsions:
REMARK  status: ('A' for Active; 'I' for Inactive)
REMARK    1  A    between atoms: O_2  and  C_3 
REMARK    2  A    between atoms: C_6  and  C_7 
REMARK       I    between atoms: C_7  and  N_8 
REMARK    3  A    between atoms: N_8  and  C_9 
REMARK    4  A    between atoms: C_9  and  C_10 
REMARK    5  A    between atoms: C_10  and  N_11 
REMARK       I    between atoms: N_11  and  C_12 
REMARK    6  A    between atoms: C_12  and  C_13 
REMARK    7  A    between atoms: C_15  and  C_16 
ROOT
HETATM    1  N   UNL     1      24.545  46.460  49.619  1.00  0.00    -0.355 N 
HETATM    2  C   UNL     1      24.910  47.787  49.693  1.00  0.00     0.251 C 
HETATM    3  O   UNL     1      25.939  48.169  50.241  1.00  0.00    -0.268 OA
HETATM    4  H   UNL     1      23.602  46.210  49.352  1.00  0.00     0.162 HD
ENDROOT
BRANCH   1   5
HETATM    5  C   UNL     1      25.362  45.419  50.219  1.00  0.00     0.142 C 
BRANCH   5   6
HETATM    6  C   UNL     1      24.958  45.113  51.666  1.00  0.00     0.142 C 
BRANCH   6   7
HETATM    7  N   UNL     1      26.089  45.082  52.574  1.00  0.00    -0.355 N 
HETATM    8  C   UNL     1      26.835  43.935  52.747  1.00  0.00     0.251 C 
HETATM    9  O   UNL     1      26.609  42.896  52.136  1.00  0.00    -0.268 OA
HETATM   10  H   UNL     1      26.424  45.964  52.934  1.00  0.00     0.162 HD
BRANCH   8  11
HETATM   11  C   UNL     1      27.973  44.011  53.706  1.00  0.00     0.032 A 
HETATM   12  C   UNL     1      28.974  43.033  53.762  1.00  0.00     0.020 A 
HETATM   13  C   UNL     1      30.040  43.160  54.662  1.00  0.00     0.038 A 
HETATM   14  C   UNL     1      30.120  44.268  55.506  1.00  0.00     0.068 A 
HETATM   15  C   UNL     1      29.124  45.246  55.446  1.00  0.00     0.038 A 
HETATM   16  C   UNL     1      28.060  45.125  54.549  1.00  0.00     0.020 A 
BRANCH  14  17
HETATM   17  O   UNL     1      31.108  44.515  56.419  1.00  0.00    -0.356 OA
HETATM   18  C   UNL     1      31.669  43.388  57.081  1.00  0.00     0.210 C 
ENDBRANCH  14  17
ENDBRANCH   8  11
ENDBRANCH   6   7
ENDBRANCH   5   6
ENDBRANCH   1   5
BRANCH   2  19
HETATM   19  C   UNL     1      23.959  48.774  49.108  1.00  0.00     0.032 A 
HETATM   20  C   UNL     1      22.587  48.495  49.180  1.00  0.00     0.029 A 
HETATM   21  C   UNL     1      21.645  49.388  48.648  1.00  0.00    -0.023 A 
HETATM   22  C   UNL     1      22.101  50.567  48.043  1.00  0.00     0.012 A 
HETATM   23  C   UNL     1      23.467  50.858  47.985  1.00  0.00     0.002 A 
HETATM   24  C   UNL     1      24.396  49.966  48.520  1.00  0.00     0.017 A 
BRANCH  21  25
HETATM   25  C   UNL     1      20.218  49.107  48.709  1.00  0.00    -0.002 A 
HETATM   26  C   UNL     1      19.630  48.227  49.596  1.00  0.00     0.153 A 
HETATM   27  O   UNL     1      18.284  48.189  49.420  1.00  0.00    -0.334 OA
HETATM   28  C   UNL     1      17.994  49.054  48.416  1.00  0.00     0.142 A 
HETATM   29  C   UNL     1      19.143  49.647  47.947  1.00  0.00     0.038 A 
ENDBRANCH  21  25
ENDBRANCH   2  19
TORSDOF 7
ENDMDL
