MODEL 1
REMARK VINA RESULT:      -9.0      0.000      0.000
REMARK  5 active torsions:
REMARK  status: ('A' for Active; 'I' for Inactive)
REMARK    1  A    between atoms: C_2  and  O_3 
REMARK    2  A    between atoms: C_2  and  C_4 
REMARK    3  A    between atoms: C_4  and  N_5 
REMARK       I    between atoms: N_5  and  C_6 
REMARK    4  A    between atoms: C_6  and  C_7 
REMARK    5  A    between atoms: C_15  and  C_16 
ROOT
HETATM    1  C   UNL     1      27.598  42.228  51.602  1.00  0.00     0.046 A 
HETATM    2  C   UNL     1      26.886  43.280  50.987  1.00  0.00     0.008 A 
HETATM    3  C   UNL     1      27.000  44.540  51.600  1.00  0.00     0.068 A 
HETATM    4  C   UNL     1      26.335  45.623  51.040  1.00  0.00     0.032 A 
HETATM    5  C   UNL     1      25.557  45.500  49.887  1.00  0.00     0.002 A 
HETATM    6  C   UNL     1      25.439  44.263  49.270  1.00  0.00     0.001 A 
HETATM    7  C   UNL     1      26.099  43.162  49.812  1.00  0.00     0.015 A 
HETATM    8  N   UNL     1      27.732  44.752  52.708  1.00  0.00    -0.248 NA
HETATM    9  C   UNL     1      28.387  43.724  53.299  1.00  0.00     0.068 A 
HETATM   10  C   UNL     1      28.343  42.447  52.765  1.00  0.00     0.050 A 
ENDROOT
BRANCH   1  11
HETATM   11  C   UNL     1      27.571  40.846  51.061  1.00  0.00     0.252 C 
HETATM   12  N   UNL     1      28.798  40.338  50.695  1.00  0.00    -0.354 N 
HETATM   13  H   UNL     1      29.611  40.941  50.684  1.00  0.00     0.162 HD
HETATM   14  O   UNL     1      26.519  40.231  50.957  1.00  0.00    -0.268 OA
BRANCH  12  15
HETATM   15  C   UNL     1      28.936  38.997  50.156  1.00  0.00     0.154 C 
BRANCH  15  16
HETATM   16  C   UNL     1      30.084  38.183  50.772  1.00  0.00     0.132 C 
HETATM   17  C   UNL     1      29.660  36.765  51.133  1.00  0.00     0.041 C 
BRANCH  16  18
HETATM   18  O   UNL     1      31.146  38.103  49.818  1.00  0.00    -0.394 OA
HETATM   19  H   UNL     1      31.513  37.203  49.873  1.00  0.00     0.210 HD
ENDBRANCH  16  18
ENDBRANCH  15  16
ENDBRANCH  12  15
ENDBRANCH   1  11
BRANCH   9  20
HETATM   20  C   UNL     1      29.148  44.067  54.520  1.00  0.00    -0.007 A 
HETATM   21  C   UNL     1      28.866  45.215  55.286  1.00  0.00     0.015 A 
HETATM   22  C   UNL     1      29.593  45.516  56.445  1.00  0.00     0.024 A 
HETATM   23  C   UNL     1      30.621  44.674  56.856  1.00  0.00     0.034 A 
HETATM   24 CL   UNL     1      31.512  45.044  58.280  1.00  0.00    -0.084 Cl
HETATM   25  C   UNL     1      30.933  43.540  56.118  1.00  0.00     0.024 A 
HETATM   26  C   UNL     1      30.203  43.243  54.961  1.00  0.00     0.015 A 
ENDBRANCH   9  20
TORSDOF 5
ENDMDL
MODEL 2
REMARK VINA RESULT:      -8.9      3.728      5.856
REMARK  5 active torsions:
REMARK  status: ('A' for Active; 'I' for Inactive)
REMARK    1  A    between atoms: C_2  and  O_3 
REMARK    2  A    between atoms: C_2  and  C_4 
REMARK    3  A    between atoms: C_4  and  N_5 
REMARK       I    between atoms: N_5  and  C_6 
REMARK    4  A    between atoms: C_6  and  C_7 
REMARK    5  A    between atoms: C_15  and  C_16 
ROOT
HETATM    1  C   UNL     1      25.978  45.611  51.382  1.00  0.00     0.046 A 
HETATM    2  C   UNL     1      25.522  44.423  50.770  1.00  0.00     0.008 A 
HETATM    3  C   UNL     1      26.112  43.231  51.226  1.00  0.00     0.068 A 
HETATM    4  C   UNL     1      25.700  42.024  50.674  1.00  0.00     0.032 A 
HETATM    5  C   UNL     1      24.720  41.958  49.683  1.00  0.00     0.002 A 
HETATM    6  C   UNL     1      24.127  43.126  49.227  1.00  0.00     0.001 A 
HETATM    7  C   UNL     1      24.521  44.350  49.766  1.00  0.00     0.015 A 
HETATM    8  N   UNL     1      27.057  43.200  52.181  1.00  0.00    -0.248 NA
HETATM    9  C   UNL     1      27.502  44.352  52.737  1.00  0.00     0.068 A 
HETATM   10  C   UNL     1      26.976  45.577  52.361  1.00  0.00     0.050 A 
ENDROOT
BRANCH   1  11
HETATM   11  C   UNL     1      25.441  46.941  51.002  1.00  0.00     0.252 C 
HETATM   12  N   UNL     1      25.727  47.340  49.715  1.00  0.00    -0.354 N 
HETATM   13  H   UNL     1      26.372  46.801  49.151  1.00  0.00     0.162 HD
HETATM   14  O   UNL     1      24.799  47.612  51.798  1.00  0.00    -0.268 OA
BRANCH  12  15
HETATM   15  C   UNL     1      25.264  48.614  49.193  1.00  0.00     0.154 C 
BRANCH  15  16
HETATM   16  C   UNL     1      26.391  49.588  48.813  1.00  0.00     0.132 C 
HETATM   17  C   UNL     1      27.773  48.987  49.031  1.00  0.00     0.041 C 
BRANCH  16  18
HETATM   18  O   UNL     1      26.258  49.916  47.428  1.00  0.00    -0.394 OA
HETATM   19  H   UNL     1      26.796  49.275  46.930  1.00  0.00     0.210 HD
ENDBRANCH  16  18
ENDBRANCH  15  16
ENDBRANCH  12  15
ENDBRANCH   1  11
BRANCH   9  20
HETATM   20  C   UNL     1      28.555  44.203  53.765  1.00  0.00    -0.007 A 
HETATM   21  C   UNL     1      28.706  45.115  54.827  1.00  0.00     0.015 A 
HETATM   22  C   UNL     1      29.704  44.949  55.796  1.00  0.00     0.024 A 
HETATM   23  C   UNL     1      30.575  43.867  55.716  1.00  0.00     0.034 A 
HETATM   24 CL   UNL     1      31.799  43.664  56.907  1.00  0.00    -0.084 Cl
HETATM   25  C   UNL     1      30.460  42.955  54.675  1.00  0.00     0.024 A 
HETATM   26  C   UNL     1      29.461  43.124  53.710  1.00  0.00     0.015 A 
ENDBRANCH   9  20
TORSDOF 5
ENDMDL
MODEL 3
REMARK VINA RESULT:      -8.7      2.449      5.437
REMARK  5 active torsions:
REMARK  status: ('A' for Active; 'I' for Inactive)
REMARK    1  A    between atoms: C_2  and  O_3 
REMARK    2  A    between atoms: C_2  and  C_4 
REMARK    3  A    between atoms: C_4  and  N_5 
REMARK       I    between atoms: N_5  and  C_6 
REMARK    4  A    between atoms: C_6  and  C_7 
REMARK    5  A    between atoms: C_15  and  C_16 
ROOT
HETATM    1  C   UNL     1      27.515  43.779  51.152  1.00  0.00     0.046 A 
HETATM    2  C   UNL     1      27.677  42.426  50.781  1.00  0.00     0.008 A 
HETATM    3  C   UNL     1      28.402  41.624  51.680  1.00  0.00     0.068 A 
HETATM    4  C   UNL     1      28.588  40.280  51.383  1.00  0.00     0.032 A 
HETATM    5  C   UNL     1      28.078  39.701  50.220  1.00  0.00     0.002 A 
HETATM    6  C   UNL     1      27.357  40.480  49.326  1.00  0.00     0.001 A 
HETATM    7  C   UNL     1      27.155  41.831  49.603  1.00  0.00     0.015 A 
HETATM    8  N   UNL     1      28.922  42.096  52.827  1.00  0.00    -0.248 NA
HETATM    9  C   UNL     1      28.780  43.404  53.153  1.00  0.00     0.068 A 
HETATM   10  C   UNL     1      28.074  44.271  52.336  1.00  0.00     0.050 A 
ENDROOT
BRANCH   1  11
HETATM   11  C   UNL     1      26.770  44.738  50.300  1.00  0.00     0.252 C 
HETATM   12  N   UNL     1      25.513  45.070  50.756  1.00  0.00    -0.354 N 
HETATM   13  H   UNL     1      25.113  44.572  51.540  1.00  0.00     0.162 HD
HETATM   14  O   UNL     1      27.263  45.181  49.271  1.00  0.00    -0.268 OA
BRANCH  12  15
HETATM   15  C   UNL     1      24.665  46.003  50.035  1.00  0.00     0.154 C 
BRANCH  15  16
HETATM   16  C   UNL     1      24.836  47.470  50.460  1.00  0.00     0.132 C 
HETATM   17  C   UNL     1      25.863  48.203  49.607  1.00  0.00     0.041 C 
BRANCH  16  18
HETATM   18  O   UNL     1      23.578  48.134  50.313  1.00  0.00    -0.394 OA
HETATM   19  H   UNL     1      23.272  48.368  51.207  1.00  0.00     0.210 HD
ENDBRANCH  16  18
ENDBRANCH  15  16
ENDBRANCH  12  15
ENDBRANCH   1  11
BRANCH   9  20
HETATM   20  C   UNL     1      29.406  43.818  54.427  1.00  0.00    -0.007 A 
HETATM   21  C   UNL     1      30.425  43.067  55.044  1.00  0.00     0.015 A 
HETATM   22  C   UNL     1      31.011  43.482  56.247  1.00  0.00     0.024 A 
HETATM   23  C   UNL     1      30.583  44.657  56.857  1.00  0.00     0.034 A 
HETATM   24 CL   UNL     1      31.304  45.166  58.333  1.00  0.00    -0.084 Cl
HETATM   25  C   UNL     1      29.572  45.415  56.281  1.00  0.00     0.024 A 
HETATM   26  C   UNL     1      28.989  44.996  55.079  1.00  0.00     0.015 A 
ENDBRANCH   9  20
TORSDOF 5
ENDMDL
MODEL 4
REMARK VINA RESULT:      -8.6      1.237      1.671
REMARK  5 active torsions:
REMARK  status: ('A' for Active; 'I' for Inactive)
REMARK    1  A    between atoms: C_2  and  O_3 
REMARK    2  A    between atoms: C_2  and  C_4 
REMARK    3  A    between atoms: C_4  and  N_5 
REMARK       I    between atoms: N_5  and  C_6 
REMARK    4  A    between atoms: C_6  and  C_7 
REMARK    5  A    between atoms: C_15  and  C_16 
ROOT
HETATM    1  C   UNL     1      27.374  43.172  50.990  1.00  0.00     0.046 A 
HETATM    2  C   UNL     1      26.422  44.208  50.864  1.00  0.00     0.008 A 
HETATM    3  C   UNL     1      26.428  45.174  51.885  1.00  0.00     0.068 A 
HETATM    4  C   UNL     1      25.526  46.228  51.818  1.00  0.00     0.032 A 
HETATM    5  C   UNL     1      24.615  46.358  50.768  1.00  0.00     0.002 A 
HETATM    6  C   UNL     1      24.602  45.414  49.752  1.00  0.00     0.001 A 
HETATM    7  C   UNL     1      25.499  44.348  49.796  1.00  0.00     0.015 A 
HETATM    8  N   UNL     1      27.274  45.132  52.929  1.00  0.00    -0.248 NA
HETATM    9  C   UNL     1      28.161  44.115  53.047  1.00  0.00     0.068 A 
HETATM   10  C   UNL     1      28.239  43.120  52.087  1.00  0.00     0.050 A 
ENDROOT
BRANCH   1  11
HETATM   11  C   UNL     1      27.483  42.086  49.984  1.00  0.00     0.252 C 
HETATM   12  N   UNL     1      27.773  40.841  50.497  1.00  0.00    -0.354 N 
HETATM   13  H   UNL     1      28.020  40.743  51.474  1.00  0.00     0.162 HD
HETATM   14  O   UNL     1      27.325  42.314  48.793  1.00  0.00    -0.268 OA
BRANCH  12  15
HETATM   15  C   UNL     1      27.904  39.677  49.640  1.00  0.00     0.154 C 
BRANCH  15  16
HETATM   16  C   UNL     1      28.835  38.586  50.193  1.00  0.00     0.132 C 
HETATM   17  C   UNL     1      29.935  38.210  49.209  1.00  0.00     0.041 C 
BRANCH  16  18
HETATM   18  O   UNL     1      29.451  39.079  51.386  1.00  0.00    -0.394 OA
HETATM   19  H   UNL     1      30.212  38.502  51.574  1.00  0.00     0.210 HD
ENDBRANCH  16  18
ENDBRANCH  15  16
ENDBRANCH  12  15
ENDBRANCH   1  11
BRANCH   9  20
HETATM   20  C   UNL     1      29.032  44.160  54.242  1.00  0.00    -0.007 A 
HETATM   21  C   UNL     1      29.947  43.134  54.545  1.00  0.00     0.015 A 
HETATM   22  C   UNL     1      30.770  43.200  55.678  1.00  0.00     0.024 A 
HETATM   23  C   UNL     1      30.686  44.295  56.532  1.00  0.00     0.034 A 
HETATM   24 CL   UNL     1      31.696  44.376  57.921  1.00  0.00    -0.084 Cl
HETATM   25  C   UNL     1      29.785  45.319  56.268  1.00  0.00     0.024 A 
HETATM   26  C   UNL     1      28.966  45.248  55.135  1.00  0.00     0.015 A 
ENDBRANCH   9  20
TORSDOF 5
ENDMDL
MODEL 5
REMARK VINA RESULT:      -8.3      3.790      7.498
REMARK  5 active torsions:
REMARK  status: ('A' for Active; 'I' for Inactive)
REMARK    1  A    between atoms: C_2  and  O_3 
REMARK    2  A    between atoms: C_2  and  C_4 
REMARK    3  A    between atoms: C_4  and  N_5 
REMARK       I    between atoms: N_5  and  C_6 
REMARK    4  A    between atoms: C_6  and  C_7 
REMARK    5  A    between atoms: C_15  and  C_16 
ROOT
HETATM    1  C   UNL     1      27.100  43.870  52.640  1.00  0.00     0.046 A 
HETATM    2  C   UNL     1      28.133  43.970  53.598  1.00  0.00     0.008 A 
HETATM    3  C   UNL     1      29.158  43.013  53.498  1.00  0.00     0.068 A 
HETATM    4  C   UNL     1      30.212  43.060  54.401  1.00  0.00     0.032 A 
HETATM    5  C   UNL     1      30.286  44.029  55.403  1.00  0.00     0.002 A 
HETATM    6  C   UNL     1      29.284  44.982  55.510  1.00  0.00     0.001 A 
HETATM    7  C   UNL     1      28.216  44.956  54.615  1.00  0.00     0.015 A 
HETATM    8  N   UNL     1      29.171  42.050  52.560  1.00  0.00    -0.248 NA
HETATM    9  C   UNL     1      28.157  41.953  51.667  1.00  0.00     0.068 A 
HETATM   10  C   UNL     1      27.107  42.855  51.678  1.00  0.00     0.050 A 
ENDROOT
BRANCH   1  11
HETATM   11  C   UNL     1      25.956  44.816  52.625  1.00  0.00     0.252 C 
HETATM   12  N   UNL     1      26.154  45.960  51.884  1.00  0.00    -0.354 N 
HETATM   13  H   UNL     1      27.071  46.165  51.509  1.00  0.00     0.162 HD
HETATM   14  O   UNL     1      24.927  44.569  53.238  1.00  0.00    -0.268 OA
BRANCH  12  15
HETATM   15  C   UNL     1      25.125  46.977  51.766  1.00  0.00     0.154 C 
BRANCH  15  16
HETATM   16  C   UNL     1      24.738  47.320  50.319  1.00  0.00     0.132 C 
HETATM   17  C   UNL     1      24.039  46.163  49.616  1.00  0.00     0.041 C 
BRANCH  16  18
HETATM   18  O   UNL     1      23.844  48.436  50.341  1.00  0.00    -0.394 OA
HETATM   19  H   UNL     1      24.158  49.067  49.670  1.00  0.00     0.210 HD
ENDBRANCH  16  18
ENDBRANCH  15  16
ENDBRANCH  12  15
ENDBRANCH   1  11
BRANCH   9  20
HETATM   20  C   UNL     1      28.266  40.847  50.691  1.00  0.00    -0.007 A 
HETATM   21  C   UNL     1      28.872  39.617  51.011  1.00  0.00     0.015 A 
HETATM   22  C   UNL     1      28.957  38.579  50.075  1.00  0.00     0.024 A 
HETATM   23  C   UNL     1      28.439  38.755  48.795  1.00  0.00     0.034 A 
HETATM   24 CL   UNL     1      28.542  37.479  47.647  1.00  0.00    -0.084 Cl
HETATM   25  C   UNL     1      27.845  39.960  48.443  1.00  0.00     0.024 A 
HETATM   26  C   UNL     1      27.762  40.995  49.383  1.00  0.00     0.015 A 
ENDBRANCH   9  20
TORSDOF 5
ENDMDL
MODEL 6
REMARK VINA RESULT:      -8.2      4.760      7.594
REMARK  5 active torsions:
REMARK  status: ('A' for Active; 'I' for Inactive)
REMARK    1  A    between atoms: C_2  and  O_3 
REMARK    2  A    between atoms: C_2  and  C_4 
REMARK    3  A    between atoms: C_4  and  N_5 
REMARK       I    between atoms: N_5  and  C_6 
REMARK    4  A    between atoms: C_6  and  C_7 
REMARK    5  A    between atoms: C_15  and  C_16 
ROOT
HETATM    1  C   UNL     1      24.548  46.818  50.429  1.00  0.00     0.046 A 
HETATM    2  C   UNL     1      24.055  45.539  50.088  1.00  0.00     0.008 A 
HETATM    3  C   UNL     1      24.459  44.483  50.925  1.00  0.00     0.068 A 
HETATM    4  C   UNL     1      24.001  43.200  50.654  1.00  0.00     0.032 A 
HETATM    5  C   UNL     1      23.154  42.926  49.579  1.00  0.00     0.002 A 
HETATM    6  C   UNL     1      22.746  43.959  48.748  1.00  0.00     0.001 A 
HETATM    7  C   UNL     1      23.189  45.256  49.000  1.00  0.00     0.015 A 
HETATM    8  N   UNL     1      25.266  44.656  51.985  1.00  0.00    -0.248 NA
HETATM    9  C   UNL     1      25.750  45.887  52.280  1.00  0.00     0.068 A 
HETATM   10  C   UNL     1      25.403  46.992  51.521  1.00  0.00     0.050 A 
ENDROOT
BRANCH   1  11
HETATM   11  C   UNL     1      24.201  48.024  49.636  1.00  0.00     0.252 C 
HETATM   12  N   UNL     1      22.870  48.376  49.660  1.00  0.00    -0.354 N 
HETATM   13  H   UNL     1      22.192  47.757  50.084  1.00  0.00     0.162 HD
HETATM   14  O   UNL     1      25.058  48.637  49.014  1.00  0.00    -0.268 OA
BRANCH  12  15
HETATM   15  C   UNL     1      22.377  49.537  48.940  1.00  0.00     0.154 C 
BRANCH  15  16
HETATM   16  C   UNL     1      21.351  50.375  49.719  1.00  0.00     0.132 C 
HETATM   17  C   UNL     1      20.641  51.390  48.833  1.00  0.00     0.041 C 
BRANCH  16  18
HETATM   18  O   UNL     1      20.367  49.494  50.266  1.00  0.00    -0.394 OA
HETATM   19  H   UNL     1      20.175  48.824  49.587  1.00  0.00     0.210 HD
ENDBRANCH  16  18
ENDBRANCH  15  16
ENDBRANCH  12  15
ENDBRANCH   1  11
BRANCH   9  20
HETATM   20  C   UNL     1      26.641  45.959  53.458  1.00  0.00    -0.007 A 
HETATM   21  C   UNL     1      26.799  47.138  54.212  1.00  0.00     0.015 A 
HETATM   22  C   UNL     1      27.642  47.183  55.330  1.00  0.00     0.024 A 
HETATM   23  C   UNL     1      28.347  46.046  55.712  1.00  0.00     0.034 A 
HETATM   24 CL   UNL     1      29.380  46.101  57.086  1.00  0.00    -0.084 Cl
HETATM   25  C   UNL     1      28.223  44.870  54.984  1.00  0.00     0.024 A 
HETATM   26  C   UNL     1      27.380  44.831  53.867  1.00  0.00     0.015 A 
ENDBRANCH   9  20
TORSDOF 5
ENDMDL
MODEL 7
REMARK VINA RESULT:      -8.2      4.257      7.538
REMARK  5 active torsions:
REMARK  status: ('A' for Active; 'I' for Inactive)
REMARK    1  A    between atoms: C_2  and  O_3 
REMARK    2  A    between atoms: C_2  and  C_4 
REMARK    3  A    between atoms: C_4  and  N_5 
REMARK       I    between atoms: N_5  and  C_6 
REMARK    4  A    between atoms: C_6  and  C_7 
REMARK    5  A    between atoms: C_15  and  C_16 
ROOT
HETATM    1  C   UNL     1      26.354  45.865  51.977  1.00  0.00     0.046 A 
HETATM    2  C   UNL     1      26.981  45.984  53.237  1.00  0.00     0.008 A 
HETATM    3  C   UNL     1      27.595  44.820  53.730  1.00  0.00     0.068 A 
HETATM    4  C   UNL     1      28.240  44.869  54.959  1.00  0.00     0.032 A 
HETATM    5  C   UNL     1      28.298  46.039  55.719  1.00  0.00     0.002 A 
HETATM    6  C   UNL     1      27.700  47.196  55.242  1.00  0.00     0.001 A 
HETATM    7  C   UNL     1      27.048  47.172  54.011  1.00  0.00     0.015 A 
HETATM    8  N   UNL     1      27.594  43.653  53.063  1.00  0.00    -0.248 NA
HETATM    9  C   UNL     1      26.965  43.551  51.867  1.00  0.00     0.068 A 
HETATM   10  C   UNL     1      26.339  44.645  51.294  1.00  0.00     0.050 A 
ENDROOT
BRANCH   1  11
HETATM   11  C   UNL     1      25.670  47.014  51.334  1.00  0.00     0.252 C 
HETATM   12  N   UNL     1      26.076  47.291  50.047  1.00  0.00    -0.354 N 
HETATM   13  H   UNL     1      26.877  46.811  49.657  1.00  0.00     0.162 HD
HETATM   14  O   UNL     1      24.813  47.652  51.931  1.00  0.00    -0.268 OA
BRANCH  12  15
HETATM   15  C   UNL     1      25.494  48.380  49.283  1.00  0.00     0.154 C 
BRANCH  15  16
HETATM   16  C   UNL     1      26.488  49.490  48.908  1.00  0.00     0.132 C 
HETATM   17  C   UNL     1      27.936  49.070  49.127  1.00  0.00     0.041 C 
BRANCH  16  18
HETATM   18  O   UNL     1      26.318  49.801  47.522  1.00  0.00    -0.394 OA
HETATM   19  H   UNL     1      27.205  49.950  47.151  1.00  0.00     0.210 HD
ENDBRANCH  16  18
ENDBRANCH  15  16
ENDBRANCH  12  15
ENDBRANCH   1  11
BRANCH   9  20
HETATM   20  C   UNL     1      27.013  42.217  51.230  1.00  0.00    -0.007 A 
HETATM   21  C   UNL     1      25.904  41.661  50.563  1.00  0.00     0.015 A 
HETATM   22  C   UNL     1      25.974  40.400  49.957  1.00  0.00     0.024 A 
HETATM   23  C   UNL     1      27.157  39.668  50.013  1.00  0.00     0.034 A 
HETATM   24 CL   UNL     1      27.242  38.121  49.268  1.00  0.00    -0.084 Cl
HETATM   25  C   UNL     1      28.265  40.183  50.673  1.00  0.00     0.024 A 
HETATM   26  C   UNL     1      28.190  41.444  51.276  1.00  0.00     0.015 A 
ENDBRANCH   9  20
TORSDOF 5
ENDMDL
MODEL 8
REMARK VINA RESULT:      -8.1      3.389      6.029
REMARK  5 active torsions:
REMARK  status: ('A' for Active; 'I' for Inactive)
REMARK    1  A    between atoms: C_2  and  O_3 
REMARK    2  A    between atoms: C_2  and  C_4 
REMARK    3  A    between atoms: C_4  and  N_5 
REMARK       I    between atoms: N_5  and  C_6 
REMARK    4  A    between atoms: C_6  and  C_7 
REMARK    5  A    between atoms: C_15  and  C_16 
ROOT
HETATM    1  C   UNL     1      26.221  45.113  50.531  1.00  0.00     0.046 A 
HETATM    2  C   UNL     1      25.729  43.883  50.042  1.00  0.00     0.008 A 
HETATM    3  C   UNL     1      26.210  42.730  50.686  1.00  0.00     0.068 A 
HETATM    4  C   UNL     1      25.759  41.486  50.263  1.00  0.00     0.032 A 
HETATM    5  C   UNL     1      24.842  41.346  49.220  1.00  0.00     0.002 A 
HETATM    6  C   UNL     1      24.356  42.476  48.578  1.00  0.00     0.001 A 
HETATM    7  C   UNL     1      24.793  43.735  48.986  1.00  0.00     0.015 A 
HETATM    8  N   UNL     1      27.088  42.771  51.703  1.00  0.00    -0.248 NA
HETATM    9  C   UNL     1      27.569  43.960  52.141  1.00  0.00     0.068 A 
HETATM   10  C   UNL     1      27.149  45.152  51.577  1.00  0.00     0.050 A 
ENDROOT
BRANCH   1  11
HETATM   11  C   UNL     1      25.797  46.411  49.948  1.00  0.00     0.252 C 
HETATM   12  N   UNL     1      24.502  46.784  50.235  1.00  0.00    -0.354 N 
HETATM   13  H   UNL     1      23.879  46.133  50.694  1.00  0.00     0.162 HD
HETATM   14  O   UNL     1      26.563  47.074  49.264  1.00  0.00    -0.268 OA
BRANCH  12  15
HETATM   15  C   UNL     1      23.944  48.031  49.742  1.00  0.00     0.154 C 
BRANCH  15  16
HETATM   16  C   UNL     1      22.715  47.858  48.835  1.00  0.00     0.132 C 
HETATM   17  C   UNL     1      22.509  46.410  48.409  1.00  0.00     0.041 C 
BRANCH  16  18
HETATM   18  O   UNL     1      21.556  48.281  49.557  1.00  0.00    -0.394 OA
HETATM   19  H   UNL     1      21.773  49.135  49.971  1.00  0.00     0.210 HD
ENDBRANCH  16  18
ENDBRANCH  15  16
ENDBRANCH  12  15
ENDBRANCH   1  11
BRANCH   9  20
HETATM   20  C   UNL     1      28.541  43.887  53.253  1.00  0.00    -0.007 A 
HETATM   21  C   UNL     1      29.555  42.910  53.305  1.00  0.00     0.015 A 
HETATM   22  C   UNL     1      30.471  42.865  54.364  1.00  0.00     0.024 A 
HETATM   23  C   UNL     1      30.386  43.795  55.395  1.00  0.00     0.034 A 
HETATM   24 CL   UNL     1      31.513  43.740  56.693  1.00  0.00    -0.084 Cl
HETATM   25  C   UNL     1      29.392  44.765  55.380  1.00  0.00     0.024 A 
HETATM   26  C   UNL     1      28.479  44.806  54.320  1.00  0.00     0.015 A 
ENDBRANCH   9  20
TORSDOF 5
ENDMDL
MODEL 9
REMARK VINA RESULT:      -8.0      6.356      9.803
REMARK  5 active torsions:
REMARK  status: ('A' for Active; 'I' for Inactive)
REMARK    1  A    between atoms: C_2  and  O_3 
REMARK    2  A    between atoms: C_2  and  C_4 
REMARK    3  A    between atoms: C_4  and  N_5 
REMARK       I    between atoms: N_5  and  C_6 
REMARK    4  A    between atoms: C_6  and  C_7 
REMARK    5  A    between atoms: C_15  and  C_16 
ROOT
HETATM    1  C   UNL     1      24.191  47.327  49.471  1.00  0.00     0.046 A 
HETATM    2  C   UNL     1      25.372  48.073  49.263  1.00  0.00     0.008 A 
HETATM    3  C   UNL     1      25.195  49.381  48.778  1.00  0.00     0.068 A 
HETATM    4  C   UNL     1      26.314  50.174  48.562  1.00  0.00     0.032 A 
HETATM    5  C   UNL     1      27.608  49.714  48.811  1.00  0.00     0.002 A 
HETATM    6  C   UNL     1      27.796  48.428  49.294  1.00  0.00     0.001 A 
HETATM    7  C   UNL     1      26.689  47.613  49.521  1.00  0.00     0.015 A 
HETATM    8  N   UNL     1      23.986  49.908  48.517  1.00  0.00    -0.248 NA
HETATM    9  C   UNL     1      22.866  49.168  48.698  1.00  0.00     0.068 A 
HETATM   10  C   UNL     1      22.936  47.872  49.180  1.00  0.00     0.050 A 
ENDROOT
BRANCH   1  11
HETATM   11  C   UNL     1      24.227  45.935  49.983  1.00  0.00     0.252 C 
HETATM   12  N   UNL     1      24.543  45.811  51.318  1.00  0.00    -0.354 N 
HETATM   13  H   UNL     1      24.854  46.621  51.840  1.00  0.00     0.162 HD
HETATM   14  O   UNL     1      23.992  44.987  49.246  1.00  0.00    -0.268 OA
BRANCH  12  15
HETATM   15  C   UNL     1      24.611  44.514  51.967  1.00  0.00     0.154 C 
BRANCH  15  16
HETATM   16  C   UNL     1      25.712  44.397  53.032  1.00  0.00     0.132 C 
HETATM   17  C   UNL     1      25.163  44.525  54.448  1.00  0.00     0.041 C 
BRANCH  16  18
HETATM   18  O   UNL     1      26.329  43.113  52.907  1.00  0.00    -0.394 OA
HETATM   19  H   UNL     1      25.682  42.526  52.478  1.00  0.00     0.210 HD
ENDBRANCH  16  18
ENDBRANCH  15  16
ENDBRANCH  12  15
ENDBRANCH   1  11
BRANCH   9  20
HETATM   20  C   UNL     1      21.592  49.841  48.364  1.00  0.00    -0.007 A 
HETATM   21  C   UNL     1      20.566  49.199  47.643  1.00  0.00     0.015 A 
HETATM   22  C   UNL     1      19.364  49.852  47.346  1.00  0.00     0.024 A 
HETATM   23  C   UNL     1      19.167  51.166  47.761  1.00  0.00     0.034 A 
HETATM   24 CL   UNL     1      17.689  51.967  47.396  1.00  0.00    -0.084 Cl
HETATM   25  C   UNL     1      20.163  51.832  48.463  1.00  0.00     0.024 A 
HETATM   26  C   UNL     1      21.363  51.175  48.759  1.00  0.00     0.015 A 
ENDBRANCH   9  20
TORSDOF 5
ENDMDL
MODEL 10
REMARK VINA RESULT:      -7.8      2.435      3.196
REMARK  5 active torsions:
REMARK  status: ('A' for Active; 'I' for Inactive)
REMARK    1  A    between atoms: C_2  and  O_3 
REMARK    2  A    between atoms: C_2  and  C_4 
REMARK    3  A    between atoms: C_4  and  N_5 
REMARK       I    between atoms: N_5  and  C_6 
REMARK    4  A    between atoms: C_6  and  C_7 
REMARK    5  A    between atoms: C_15  and  C_16 
ROOT
HETATM    1  C   UNL     1      26.984  43.529  50.902  1.00  0.00     0.046 A 
HETATM    2  C   UNL     1      26.155  44.672  50.858  1.00  0.00     0.008 A 
HETATM    3  C   UNL     1      26.326  45.596  51.904  1.00  0.00     0.068 A 
HETATM    4  C   UNL     1      25.551  46.748  51.915  1.00  0.00     0.032 A 
HETATM    5  C   UNL     1      24.609  47.018  50.921  1.00  0.00     0.002 A 
HETATM    6  C   UNL     1      24.433  46.117  49.882  1.00  0.00     0.001 A 
HETATM    7  C   UNL     1      25.200  44.954  49.846  1.00  0.00     0.015 A 
HETATM    8  N   UNL     1      27.214  45.421  52.898  1.00  0.00    -0.248 NA
HETATM    9  C   UNL     1      27.982  44.305  52.938  1.00  0.00     0.068 A 
HETATM   10  C   UNL     1      27.893  43.341  51.948  1.00  0.00     0.050 A 
ENDROOT
BRANCH   1  11
HETATM   11  C   UNL     1      26.914  42.473  49.861  1.00  0.00     0.252 C 
HETATM   12  N   UNL     1      25.945  41.515  50.066  1.00  0.00    -0.354 N 
HETATM   13  H   UNL     1      25.434  41.493  50.940  1.00  0.00     0.162 HD
HETATM   14  O   UNL     1      27.677  42.479  48.906  1.00  0.00    -0.268 OA
BRANCH  12  15
HETATM   15  C   UNL     1      25.747  40.422  49.132  1.00  0.00     0.154 C 
BRANCH  15  16
HETATM   16  C   UNL     1      24.901  40.786  47.902  1.00  0.00     0.132 C 
HETATM   17  C   UNL     1      25.679  40.643  46.600  1.00  0.00     0.041 C 
BRANCH  16  18
HETATM   18  O   UNL     1      23.776  39.905  47.849  1.00  0.00    -0.394 OA
HETATM   19  H   UNL     1      23.587  39.739  46.909  1.00  0.00     0.210 HD
ENDBRANCH  16  18
ENDBRANCH  15  16
ENDBRANCH  12  15
ENDBRANCH   1  11
BRANCH   9  20
HETATM   20  C   UNL     1      28.912  44.208  54.084  1.00  0.00    -0.007 A 
HETATM   21  C   UNL     1      29.710  43.070  54.312  1.00  0.00     0.015 A 
HETATM   22  C   UNL     1      30.592  43.003  55.398  1.00  0.00     0.024 A 
HETATM   23  C   UNL     1      30.686  44.074  56.282  1.00  0.00     0.034 A 
HETATM   24 CL   UNL     1      31.770  43.990  57.614  1.00  0.00    -0.084 Cl
HETATM   25  C   UNL     1      29.905  45.206  56.092  1.00  0.00     0.024 A 
HETATM   26  C   UNL     1      29.026  45.269  55.005  1.00  0.00     0.015 A 
ENDBRANCH   9  20
TORSDOF 5
ENDMDL
