MODEL 1
REMARK VINA RESULT:      -9.3      0.000      0.000
REMARK  7 active torsions:
REMARK  status: ('A' for Active; 'I' for Inactive)
REMARK    1  A    between atoms: C_6  and  N_7 
REMARK       I    between atoms: N_7  and  C_8 
REMARK       I    between atoms: C_8  and  N_9 
REMARK    2  A    between atoms: N_9  and  C_10 
REMARK    3  A    between atoms: C_10  and  C_11 
REMARK    4  A    between atoms: C_11  and  C_12 
REMARK    5  A    between atoms: C_12  and  C_13 
REMARK    6  A    between atoms: C_13  and  O_14 
REMARK    7  A    between atoms: O_14  and  C_15 
ROOT
HETATM    1  C   UNL     1      26.291  48.469  49.486  1.00  0.00     0.219 C 
ENDROOT
BRANCH   1   2
HETATM    2  N   UNL     1      25.068  49.151  49.161  1.00  0.00    -0.332 N 
HETATM    3  C   UNL     1      24.991  49.918  48.040  1.00  0.00     0.321 C 
HETATM    4  N   UNL     1      23.798  50.511  47.766  1.00  0.00    -0.309 N 
HETATM    5  O   UNL     1      25.953  50.134  47.304  1.00  0.00    -0.247 OA
HETATM    6  H   UNL     1      23.904  51.244  47.075  1.00  0.00     0.170 HD
HETATM    7  H   UNL     1      24.443  49.396  49.915  1.00  0.00     0.165 HD
BRANCH   4   8
HETATM    8  C   UNL     1      22.479  50.167  48.108  1.00  0.00     0.036 A 
HETATM    9  C   UNL     1      21.582  51.033  48.737  1.00  0.00     0.037 A 
HETATM   10  C   UNL     1      20.298  50.600  49.121  1.00  0.00    -0.054 A 
HETATM   11  C   UNL     1      19.901  49.277  48.846  1.00  0.00    -0.056 A 
HETATM   12  C   UNL     1      19.373  51.574  49.800  1.00  0.00     0.049 C 
HETATM   13  C   UNL     1      18.546  48.761  49.241  1.00  0.00     0.049 C 
HETATM   14  C   UNL     1      20.814  48.407  48.236  1.00  0.00     0.009 A 
HETATM   15  C   UNL     1      22.090  48.846  47.878  1.00  0.00     0.030 A 
ENDBRANCH   4   8
ENDBRANCH   1   2
BRANCH   1  16
HETATM   16  C   UNL     1      26.110  47.508  50.650  1.00  0.00    -0.085 C 
BRANCH  16  17
HETATM   17  C   UNL     1      25.955  46.682  51.648  1.00  0.00    -0.078 C 
BRANCH  17  18
HETATM   18  C   UNL     1      25.773  45.720  52.810  1.00  0.00     0.269 C 
BRANCH  18  19
HETATM   19  O   UNL     1      26.877  45.858  53.697  1.00  0.00    -0.337 OA
BRANCH  19  20
HETATM   20  C   UNL     1      27.710  44.770  53.857  1.00  0.00     0.099 A 
HETATM   21  C   UNL     1      28.835  44.663  54.704  1.00  0.00     0.100 A 
HETATM   22  C   UNL     1      29.539  43.434  54.688  1.00  0.00    -0.005 A 
HETATM   23  N   UNL     1      29.256  45.670  55.511  1.00  0.00    -0.257 NA
HETATM   24  C   UNL     1      30.666  43.285  55.512  1.00  0.00     0.015 A 
HETATM   25  C   UNL     1      29.132  42.372  53.867  1.00  0.00     0.014 A 
HETATM   26  C   UNL     1      31.077  44.328  56.327  1.00  0.00     0.020 A 
HETATM   27  C   UNL     1      30.344  45.491  56.292  1.00  0.00     0.117 A 
HETATM   28  C   UNL     1      28.021  42.501  53.044  1.00  0.00     0.004 A 
HETATM   29  C   UNL     1      27.316  43.695  53.041  1.00  0.00     0.039 A 
ENDBRANCH  19  20
ENDBRANCH  18  19
ENDBRANCH  17  18
ENDBRANCH  16  17
ENDBRANCH   1  16
TORSDOF 7
ENDMDL
MODEL 2
REMARK VINA RESULT:      -9.3      3.084      4.988
REMARK  7 active torsions:
REMARK  status: ('A' for Active; 'I' for Inactive)
REMARK    1  A    between atoms: C_6  and  N_7 
REMARK       I    between atoms: N_7  and  C_8 
REMARK       I    between atoms: C_8  and  N_9 
REMARK    2  A    between atoms: N_9  and  C_10 
REMARK    3  A    between atoms: C_10  and  C_11 
REMARK    4  A    between atoms: C_11  and  C_12 
REMARK    5  A    between atoms: C_12  and  C_13 
REMARK    6  A    between atoms: C_13  and  O_14 
REMARK    7  A    between atoms: O_14  and  C_15 
ROOT
HETATM    1  C   UNL     1      25.756  42.679  49.806  1.00  0.00     0.219 C 
ENDROOT
BRANCH   1   2
HETATM    2  N   UNL     1      25.291  44.038  49.863  1.00  0.00    -0.332 N 
HETATM    3  C   UNL     1      24.605  44.480  50.951  1.00  0.00     0.321 C 
HETATM    4  N   UNL     1      24.221  45.785  50.964  1.00  0.00    -0.309 N 
HETATM    5  O   UNL     1      24.279  43.749  51.885  1.00  0.00    -0.247 OA
HETATM    6  H   UNL     1      23.518  45.953  51.672  1.00  0.00     0.170 HD
HETATM    7  H   UNL     1      25.109  44.517  48.993  1.00  0.00     0.165 HD
BRANCH   4   8
HETATM    8  C   UNL     1      24.750  46.925  50.332  1.00  0.00     0.036 A 
HETATM    9  C   UNL     1      23.998  47.812  49.561  1.00  0.00     0.037 A 
HETATM   10  C   UNL     1      24.605  48.893  48.893  1.00  0.00    -0.054 A 
HETATM   11  C   UNL     1      25.992  49.098  49.022  1.00  0.00    -0.056 A 
HETATM   12  C   UNL     1      23.747  49.817  48.070  1.00  0.00     0.049 C 
HETATM   13  C   UNL     1      26.692  50.230  48.325  1.00  0.00     0.049 C 
HETATM   14  C   UNL     1      26.744  48.190  49.779  1.00  0.00     0.009 A 
HETATM   15  C   UNL     1      26.131  47.112  50.419  1.00  0.00     0.030 A 
ENDBRANCH   4   8
ENDBRANCH   1   2
BRANCH   1  16
HETATM   16  C   UNL     1      26.936  42.445  50.736  1.00  0.00    -0.085 C 
BRANCH  16  17
HETATM   17  C   UNL     1      27.949  42.245  51.532  1.00  0.00    -0.078 C 
BRANCH  17  18
HETATM   18  C   UNL     1      29.130  42.010  52.461  1.00  0.00     0.269 C 
BRANCH  18  19
HETATM   19  O   UNL     1      28.692  42.163  53.806  1.00  0.00    -0.337 OA
BRANCH  19  20
HETATM   20  C   UNL     1      29.048  43.321  54.467  1.00  0.00     0.099 A 
HETATM   21  C   UNL     1      28.345  44.545  54.500  1.00  0.00     0.100 A 
HETATM   22  C   UNL     1      28.920  45.599  55.250  1.00  0.00    -0.005 A 
HETATM   23  N   UNL     1      27.167  44.743  53.854  1.00  0.00    -0.257 NA
HETATM   24  C   UNL     1      28.257  46.834  55.307  1.00  0.00     0.015 A 
HETATM   25  C   UNL     1      30.136  45.430  55.931  1.00  0.00     0.014 A 
HETATM   26  C   UNL     1      27.056  47.013  54.640  1.00  0.00     0.020 A 
HETATM   27  C   UNL     1      26.555  45.946  53.932  1.00  0.00     0.117 A 
HETATM   28  C   UNL     1      30.808  44.216  55.884  1.00  0.00     0.004 A 
HETATM   29  C   UNL     1      30.264  43.168  55.155  1.00  0.00     0.039 A 
ENDBRANCH  19  20
ENDBRANCH  18  19
ENDBRANCH  17  18
ENDBRANCH  16  17
ENDBRANCH   1  16
TORSDOF 7
ENDMDL
MODEL 3
REMARK VINA RESULT:      -9.2      1.573      2.997
REMARK  7 active torsions:
REMARK  status: ('A' for Active; 'I' for Inactive)
REMARK    1  A    between atoms: C_6  and  N_7 
REMARK       I    between atoms: N_7  and  C_8 
REMARK       I    between atoms: C_8  and  N_9 
REMARK    2  A    between atoms: N_9  and  C_10 
REMARK    3  A    between atoms: C_10  and  C_11 
REMARK    4  A    between atoms: C_11  and  C_12 
REMARK    5  A    between atoms: C_12  and  C_13 
REMARK    6  A    between atoms: C_13  and  O_14 
REMARK    7  A    between atoms: O_14  and  C_15 
ROOT
HETATM    1  C   UNL     1      25.030  46.350  51.484  1.00  0.00     0.219 C 
ENDROOT
BRANCH   1   2
HETATM    2  N   UNL     1      24.617  47.463  50.673  1.00  0.00    -0.332 N 
HETATM    3  C   UNL     1      25.337  47.811  49.573  1.00  0.00     0.321 C 
HETATM    4  N   UNL     1      24.879  48.850  48.825  1.00  0.00    -0.309 N 
HETATM    5  O   UNL     1      26.395  47.267  49.260  1.00  0.00    -0.247 OA
HETATM    6  H   UNL     1      25.593  49.190  48.193  1.00  0.00     0.170 HD
HETATM    7  H   UNL     1      24.082  48.199  51.110  1.00  0.00     0.165 HD
BRANCH   4   8
HETATM    8  C   UNL     1      23.588  49.377  48.643  1.00  0.00     0.036 A 
HETATM    9  C   UNL     1      22.517  48.659  48.109  1.00  0.00     0.037 A 
HETATM   10  C   UNL     1      21.268  49.271  47.883  1.00  0.00    -0.054 A 
HETATM   11  C   UNL     1      21.089  50.625  48.222  1.00  0.00    -0.056 A 
HETATM   12  C   UNL     1      20.150  48.450  47.300  1.00  0.00     0.049 C 
HETATM   13  C   UNL     1      19.781  51.329  47.994  1.00  0.00     0.049 C 
HETATM   14  C   UNL     1      22.174  51.346  48.736  1.00  0.00     0.009 A 
HETATM   15  C   UNL     1      23.411  50.731  48.936  1.00  0.00     0.030 A 
ENDBRANCH   4   8
ENDBRANCH   1   2
BRANCH   1  16
HETATM   16  C   UNL     1      25.894  46.792  52.654  1.00  0.00    -0.085 C 
BRANCH  16  17
HETATM   17  C   UNL     1      26.635  47.170  53.658  1.00  0.00    -0.078 C 
BRANCH  17  18
HETATM   18  C   UNL     1      27.500  47.610  54.828  1.00  0.00     0.269 C 
BRANCH  18  19
HETATM   19  O   UNL     1      27.463  46.601  55.830  1.00  0.00    -0.337 OA
BRANCH  19  20
HETATM   20  C   UNL     1      28.584  45.811  55.984  1.00  0.00     0.099 A 
HETATM   21  C   UNL     1      29.056  44.806  55.111  1.00  0.00     0.100 A 
HETATM   22  C   UNL     1      30.237  44.123  55.492  1.00  0.00    -0.005 A 
HETATM   23  N   UNL     1      28.434  44.478  53.949  1.00  0.00    -0.257 NA
HETATM   24  C   UNL     1      30.739  43.115  54.656  1.00  0.00     0.015 A 
HETATM   25  C   UNL     1      30.906  44.436  56.685  1.00  0.00     0.014 A 
HETATM   26  C   UNL     1      30.087  42.797  53.475  1.00  0.00     0.020 A 
HETATM   27  C   UNL     1      28.946  43.502  53.168  1.00  0.00     0.117 A 
HETATM   28  C   UNL     1      30.423  45.429  57.526  1.00  0.00     0.004 A 
HETATM   29  C   UNL     1      29.267  46.112  57.175  1.00  0.00     0.039 A 
ENDBRANCH  19  20
ENDBRANCH  18  19
ENDBRANCH  17  18
ENDBRANCH  16  17
ENDBRANCH   1  16
TORSDOF 7
ENDMDL
MODEL 4
REMARK VINA RESULT:      -9.1      2.581     10.070
REMARK  7 active torsions:
REMARK  status: ('A' for Active; 'I' for Inactive)
REMARK    1  A    between atoms: C_6  and  N_7 
REMARK       I    between atoms: N_7  and  C_8 
REMARK       I    between atoms: C_8  and  N_9 
REMARK    2  A    between atoms: N_9  and  C_10 
REMARK    3  A    between atoms: C_10  and  C_11 
REMARK    4  A    between atoms: C_11  and  C_12 
REMARK    5  A    between atoms: C_12  and  C_13 
REMARK    6  A    between atoms: C_13  and  O_14 
REMARK    7  A    between atoms: O_14  and  C_15 
ROOT
HETATM    1  C   UNL     1      25.785  41.697  51.024  1.00  0.00     0.219 C 
ENDROOT
BRANCH   1   2
HETATM    2  N   UNL     1      26.914  41.931  51.883  1.00  0.00    -0.332 N 
HETATM    3  C   UNL     1      28.166  41.596  51.470  1.00  0.00     0.321 C 
HETATM    4  N   UNL     1      29.199  41.873  52.311  1.00  0.00    -0.309 N 
HETATM    5  O   UNL     1      28.394  41.018  50.409  1.00  0.00    -0.247 OA
HETATM    6  H   UNL     1      30.036  41.373  52.039  1.00  0.00     0.170 HD
HETATM    7  H   UNL     1      26.760  41.946  52.880  1.00  0.00     0.165 HD
BRANCH   4   8
HETATM    8  C   UNL     1      29.354  42.839  53.321  1.00  0.00     0.036 A 
HETATM    9  C   UNL     1      30.288  42.749  54.354  1.00  0.00     0.037 A 
HETATM   10  C   UNL     1      30.339  43.716  55.377  1.00  0.00    -0.054 A 
HETATM   11  C   UNL     1      29.448  44.805  55.348  1.00  0.00    -0.056 A 
HETATM   12  C   UNL     1      31.363  43.566  56.470  1.00  0.00     0.049 C 
HETATM   13  C   UNL     1      29.453  45.860  56.418  1.00  0.00     0.049 C 
HETATM   14  C   UNL     1      28.497  44.877  54.321  1.00  0.00     0.009 A 
HETATM   15  C   UNL     1      28.447  43.901  53.324  1.00  0.00     0.030 A 
ENDBRANCH   4   8
ENDBRANCH   1   2
BRANCH   1  16
HETATM   16  C   UNL     1      25.171  42.997  50.531  1.00  0.00    -0.085 C 
BRANCH  16  17
HETATM   17  C   UNL     1      24.644  44.112  50.108  1.00  0.00    -0.078 C 
BRANCH  17  18
HETATM   18  C   UNL     1      24.029  45.412  49.615  1.00  0.00     0.269 C 
BRANCH  18  19
HETATM   19  O   UNL     1      24.559  46.489  50.379  1.00  0.00    -0.337 OA
BRANCH  19  20
HETATM   20  C   UNL     1      24.884  47.650  49.709  1.00  0.00     0.099 A 
HETATM   21  C   UNL     1      24.000  48.602  49.155  1.00  0.00     0.100 A 
HETATM   22  C   UNL     1      24.579  49.719  48.505  1.00  0.00    -0.005 A 
HETATM   23  N   UNL     1      22.648  48.488  49.222  1.00  0.00    -0.257 NA
HETATM   24  C   UNL     1      23.738  50.688  47.937  1.00  0.00     0.015 A 
HETATM   25  C   UNL     1      25.972  49.869  48.418  1.00  0.00     0.014 A 
HETATM   26  C   UNL     1      22.361  50.550  48.017  1.00  0.00     0.020 A 
HETATM   27  C   UNL     1      21.868  49.441  48.665  1.00  0.00     0.117 A 
HETATM   28  C   UNL     1      26.821  48.920  48.972  1.00  0.00     0.004 A 
HETATM   29  C   UNL     1      26.277  47.817  49.613  1.00  0.00     0.039 A 
ENDBRANCH  19  20
ENDBRANCH  18  19
ENDBRANCH  17  18
ENDBRANCH  16  17
ENDBRANCH   1  16
TORSDOF 7
ENDMDL
MODEL 5
REMARK VINA RESULT:      -8.8      1.994     10.876
REMARK  7 active torsions:
REMARK  status: ('A' for Active; 'I' for Inactive)
REMARK    1  A    between atoms: C_6  and  N_7 
REMARK       I    between atoms: N_7  and  C_8 
REMARK       I    between atoms: C_8  and  N_9 
REMARK    2  A    between atoms: N_9  and  C_10 
REMARK    3  A    between atoms: C_10  and  C_11 
REMARK    4  A    between atoms: C_11  and  C_12 
REMARK    5  A    between atoms: C_12  and  C_13 
REMARK    6  A    between atoms: C_13  and  O_14 
REMARK    7  A    between atoms: O_14  and  C_15 
ROOT
HETATM    1  C   UNL     1      25.412  43.749  52.728  1.00  0.00     0.219 C 
ENDROOT
BRANCH   1   2
HETATM    2  N   UNL     1      26.717  43.649  53.323  1.00  0.00    -0.332 N 
HETATM    3  C   UNL     1      27.809  43.427  52.542  1.00  0.00     0.321 C 
HETATM    4  N   UNL     1      29.021  43.378  53.156  1.00  0.00    -0.309 N 
HETATM    5  O   UNL     1      27.741  43.222  51.331  1.00  0.00    -0.247 OA
HETATM    6  H   UNL     1      29.722  42.967  52.552  1.00  0.00     0.170 HD
HETATM    7  H   UNL     1      26.783  43.342  54.282  1.00  0.00     0.165 HD
BRANCH   4   8
HETATM    8  C   UNL     1      29.492  43.953  54.350  1.00  0.00     0.036 A 
HETATM    9  C   UNL     1      30.480  43.385  55.156  1.00  0.00     0.037 A 
HETATM   10  C   UNL     1      30.852  43.977  56.379  1.00  0.00    -0.054 A 
HETATM   11  C   UNL     1      30.234  45.173  56.787  1.00  0.00    -0.056 A 
HETATM   12  C   UNL     1      31.920  43.319  57.211  1.00  0.00     0.049 C 
HETATM   13  C   UNL     1      30.586  45.842  58.086  1.00  0.00     0.049 C 
HETATM   14  C   UNL     1      29.226  45.725  55.985  1.00  0.00     0.009 A 
HETATM   15  C   UNL     1      28.855  45.117  54.784  1.00  0.00     0.030 A 
ENDBRANCH   4   8
ENDBRANCH   1   2
BRANCH   1  16
HETATM   16  C   UNL     1      25.250  45.032  51.930  1.00  0.00    -0.085 C 
BRANCH  16  17
HETATM   17  C   UNL     1      25.112  46.134  51.245  1.00  0.00    -0.078 C 
BRANCH  17  18
HETATM   18  C   UNL     1      24.952  47.418  50.448  1.00  0.00     0.269 C 
BRANCH  18  19
HETATM   19  O   UNL     1      23.678  47.409  49.814  1.00  0.00    -0.337 OA
BRANCH  19  20
HETATM   20  C   UNL     1      23.298  48.542  49.126  1.00  0.00     0.099 A 
HETATM   21  C   UNL     1      21.985  48.967  48.825  1.00  0.00     0.100 A 
HETATM   22  C   UNL     1      21.849  50.173  48.095  1.00  0.00    -0.005 A 
HETATM   23  N   UNL     1      20.876  48.278  49.200  1.00  0.00    -0.257 NA
HETATM   24  C   UNL     1      20.563  50.631  47.771  1.00  0.00     0.015 A 
HETATM   25  C   UNL     1      22.973  50.911  47.692  1.00  0.00     0.014 A 
HETATM   26  C   UNL     1      19.446  49.911  48.165  1.00  0.00     0.020 A 
HETATM   27  C   UNL     1      19.653  48.749  48.871  1.00  0.00     0.117 A 
HETATM   28  C   UNL     1      24.253  50.473  48.001  1.00  0.00     0.004 A 
HETATM   29  C   UNL     1      24.412  49.293  48.715  1.00  0.00     0.039 A 
ENDBRANCH  19  20
ENDBRANCH  18  19
ENDBRANCH  17  18
ENDBRANCH  16  17
ENDBRANCH   1  16
TORSDOF 7
ENDMDL
MODEL 6
REMARK VINA RESULT:      -8.7      1.279      2.432
REMARK  7 active torsions:
REMARK  status: ('A' for Active; 'I' for Inactive)
REMARK    1  A    between atoms: C_6  and  N_7 
REMARK       I    between atoms: N_7  and  C_8 
REMARK       I    between atoms: C_8  and  N_9 
REMARK    2  A    between atoms: N_9  and  C_10 
REMARK    3  A    between atoms: C_10  and  C_11 
REMARK    4  A    between atoms: C_11  and  C_12 
REMARK    5  A    between atoms: C_12  and  C_13 
REMARK    6  A    between atoms: C_13  and  O_14 
REMARK    7  A    between atoms: O_14  and  C_15 
ROOT
HETATM    1  C   UNL     1      26.232  48.073  49.589  1.00  0.00     0.219 C 
ENDROOT
BRANCH   1   2
HETATM    2  N   UNL     1      25.101  48.884  49.231  1.00  0.00    -0.332 N 
HETATM    3  C   UNL     1      25.197  49.777  48.209  1.00  0.00     0.321 C 
HETATM    4  N   UNL     1      24.084  50.492  47.892  1.00  0.00    -0.309 N 
HETATM    5  O   UNL     1      26.244  49.996  47.602  1.00  0.00    -0.247 OA
HETATM    6  H   UNL     1      24.313  51.286  47.309  1.00  0.00     0.170 HD
HETATM    7  H   UNL     1      24.417  49.092  49.944  1.00  0.00     0.165 HD
BRANCH   4   8
HETATM    8  C   UNL     1      22.714  50.219  48.059  1.00  0.00     0.036 A 
HETATM    9  C   UNL     1      22.102  49.024  47.679  1.00  0.00     0.037 A 
HETATM   10  C   UNL     1      20.711  48.844  47.806  1.00  0.00    -0.054 A 
HETATM   11  C   UNL     1      19.925  49.879  48.346  1.00  0.00    -0.056 A 
HETATM   12  C   UNL     1      20.103  47.537  47.376  1.00  0.00     0.049 C 
HETATM   13  C   UNL     1      18.435  49.745  48.496  1.00  0.00     0.049 C 
HETATM   14  C   UNL     1      20.542  51.085  48.704  1.00  0.00     0.009 A 
HETATM   15  C   UNL     1      21.920  51.254  48.555  1.00  0.00     0.030 A 
ENDBRANCH   4   8
ENDBRANCH   1   2
BRANCH   1  16
HETATM   16  C   UNL     1      25.842  46.941  50.526  1.00  0.00    -0.085 C 
BRANCH  16  17
HETATM   17  C   UNL     1      25.507  45.970  51.329  1.00  0.00    -0.078 C 
BRANCH  17  18
HETATM   18  C   UNL     1      25.115  44.839  52.266  1.00  0.00     0.269 C 
BRANCH  18  19
HETATM   19  O   UNL     1      25.196  45.306  53.608  1.00  0.00    -0.337 OA
BRANCH  19  20
HETATM   20  C   UNL     1      26.450  45.555  54.124  1.00  0.00     0.099 A 
HETATM   21  C   UNL     1      27.509  44.636  54.296  1.00  0.00     0.100 A 
HETATM   22  C   UNL     1      28.710  45.134  54.857  1.00  0.00    -0.005 A 
HETATM   23  N   UNL     1      27.419  43.325  53.954  1.00  0.00    -0.257 NA
HETATM   24  C   UNL     1      29.787  44.256  55.050  1.00  0.00     0.015 A 
HETATM   25  C   UNL     1      28.839  46.484  55.222  1.00  0.00     0.014 A 
HETATM   26  C   UNL     1      29.672  42.922  54.692  1.00  0.00     0.020 A 
HETATM   27  C   UNL     1      28.477  42.508  54.152  1.00  0.00     0.117 A 
HETATM   28  C   UNL     1      27.784  47.368  55.041  1.00  0.00     0.004 A 
HETATM   29  C   UNL     1      26.596  46.903  54.495  1.00  0.00     0.039 A 
ENDBRANCH  19  20
ENDBRANCH  18  19
ENDBRANCH  17  18
ENDBRANCH  16  17
ENDBRANCH   1  16
TORSDOF 7
ENDMDL
MODEL 7
REMARK VINA RESULT:      -8.7      2.503     11.029
REMARK  7 active torsions:
REMARK  status: ('A' for Active; 'I' for Inactive)
REMARK    1  A    between atoms: C_6  and  N_7 
REMARK       I    between atoms: N_7  and  C_8 
REMARK       I    between atoms: C_8  and  N_9 
REMARK    2  A    between atoms: N_9  and  C_10 
REMARK    3  A    between atoms: C_10  and  C_11 
REMARK    4  A    between atoms: C_11  and  C_12 
REMARK    5  A    between atoms: C_12  and  C_13 
REMARK    6  A    between atoms: C_13  and  O_14 
REMARK    7  A    between atoms: O_14  and  C_15 
ROOT
HETATM    1  C   UNL     1      25.590  45.131  49.770  1.00  0.00     0.219 C 
ENDROOT
BRANCH   1   2
HETATM    2  N   UNL     1      25.930  44.848  51.138  1.00  0.00    -0.332 N 
HETATM    3  C   UNL     1      25.153  44.010  51.876  1.00  0.00     0.321 C 
HETATM    4  N   UNL     1      25.544  43.752  53.153  1.00  0.00    -0.309 N 
HETATM    5  O   UNL     1      24.103  43.524  51.460  1.00  0.00    -0.247 OA
HETATM    6  H   UNL     1      24.793  43.336  53.689  1.00  0.00     0.170 HD
HETATM    7  H   UNL     1      26.457  45.539  51.652  1.00  0.00     0.165 HD
BRANCH   4   8
HETATM    8  C   UNL     1      26.807  43.776  53.770  1.00  0.00     0.036 A 
HETATM    9  C   UNL     1      27.324  44.878  54.454  1.00  0.00     0.037 A 
HETATM   10  C   UNL     1      28.628  44.861  54.985  1.00  0.00    -0.054 A 
HETATM   11  C   UNL     1      29.419  43.705  54.844  1.00  0.00    -0.056 A 
HETATM   12  C   UNL     1      29.136  46.079  55.709  1.00  0.00     0.049 C 
HETATM   13  C   UNL     1      30.820  43.636  55.384  1.00  0.00     0.049 C 
HETATM   14  C   UNL     1      28.903  42.611  54.137  1.00  0.00     0.009 A 
HETATM   15  C   UNL     1      27.615  42.650  53.600  1.00  0.00     0.030 A 
ENDBRANCH   4   8
ENDBRANCH   1   2
BRANCH   1  16
HETATM   16  C   UNL     1      24.710  46.364  49.649  1.00  0.00    -0.085 C 
BRANCH  16  17
HETATM   17  C   UNL     1      23.956  47.423  49.546  1.00  0.00    -0.078 C 
BRANCH  17  18
HETATM   18  C   UNL     1      23.075  48.656  49.425  1.00  0.00     0.269 C 
BRANCH  18  19
HETATM   19  O   UNL     1      21.739  48.242  49.165  1.00  0.00    -0.337 OA
BRANCH  19  20
HETATM   20  C   UNL     1      20.801  49.224  48.920  1.00  0.00     0.099 A 
HETATM   21  C   UNL     1      19.408  49.061  48.752  1.00  0.00     0.100 A 
HETATM   22  C   UNL     1      18.648  50.230  48.503  1.00  0.00    -0.005 A 
HETATM   23  N   UNL     1      18.787  47.855  48.817  1.00  0.00    -0.257 NA
HETATM   24  C   UNL     1      17.261  50.115  48.326  1.00  0.00     0.015 A 
HETATM   25  C   UNL     1      19.257  51.492  48.430  1.00  0.00     0.014 A 
HETATM   26  C   UNL     1      16.649  48.873  48.397  1.00  0.00     0.020 A 
HETATM   27  C   UNL     1      17.449  47.781  48.642  1.00  0.00     0.117 A 
HETATM   28  C   UNL     1      20.628  51.627  48.601  1.00  0.00     0.004 A 
HETATM   29  C   UNL     1      21.394  50.496  48.845  1.00  0.00     0.039 A 
ENDBRANCH  19  20
ENDBRANCH  18  19
ENDBRANCH  17  18
ENDBRANCH  16  17
ENDBRANCH   1  16
TORSDOF 7
ENDMDL
MODEL 8
REMARK VINA RESULT:      -8.7      2.800      9.324
REMARK  7 active torsions:
REMARK  status: ('A' for Active; 'I' for Inactive)
REMARK    1  A    between atoms: C_6  and  N_7 
REMARK       I    between atoms: N_7  and  C_8 
REMARK       I    between atoms: C_8  and  N_9 
REMARK    2  A    between atoms: N_9  and  C_10 
REMARK    3  A    between atoms: C_10  and  C_11 
REMARK    4  A    between atoms: C_11  and  C_12 
REMARK    5  A    between atoms: C_12  and  C_13 
REMARK    6  A    between atoms: C_13  and  O_14 
REMARK    7  A    between atoms: O_14  and  C_15 
ROOT
HETATM    1  C   UNL     1      25.460  41.584  50.735  1.00  0.00     0.219 C 
ENDROOT
BRANCH   1   2
HETATM    2  N   UNL     1      26.585  41.869  51.584  1.00  0.00    -0.332 N 
HETATM    3  C   UNL     1      27.852  41.709  51.116  1.00  0.00     0.321 C 
HETATM    4  N   UNL     1      28.876  42.028  51.952  1.00  0.00    -0.309 N 
HETATM    5  O   UNL     1      28.106  41.248  50.004  1.00  0.00    -0.247 OA
HETATM    6  H   UNL     1      29.753  41.646  51.620  1.00  0.00     0.170 HD
HETATM    7  H   UNL     1      26.463  41.787  52.583  1.00  0.00     0.165 HD
BRANCH   4   8
HETATM    8  C   UNL     1      28.959  42.919  53.036  1.00  0.00     0.036 A 
HETATM    9  C   UNL     1      28.099  44.002  53.227  1.00  0.00     0.037 A 
HETATM   10  C   UNL     1      28.284  44.901  54.295  1.00  0.00    -0.054 A 
HETATM   11  C   UNL     1      29.342  44.694  55.200  1.00  0.00    -0.056 A 
HETATM   12  C   UNL     1      27.330  46.055  54.451  1.00  0.00     0.049 C 
HETATM   13  C   UNL     1      29.591  45.627  56.352  1.00  0.00     0.049 C 
HETATM   14  C   UNL     1      30.215  43.619  54.990  1.00  0.00     0.009 A 
HETATM   15  C   UNL     1      30.029  42.747  53.916  1.00  0.00     0.030 A 
ENDBRANCH   4   8
ENDBRANCH   1   2
BRANCH   1  16
HETATM   16  C   UNL     1      24.798  42.855  50.228  1.00  0.00    -0.085 C 
BRANCH  16  17
HETATM   17  C   UNL     1      24.230  43.945  49.793  1.00  0.00    -0.078 C 
BRANCH  17  18
HETATM   18  C   UNL     1      23.568  45.216  49.285  1.00  0.00     0.269 C 
BRANCH  18  19
HETATM   19  O   UNL     1      23.954  46.300  50.121  1.00  0.00    -0.337 OA
BRANCH  19  20
HETATM   20  C   UNL     1      24.118  47.536  49.531  1.00  0.00     0.099 A 
HETATM   21  C   UNL     1      25.329  48.223  49.294  1.00  0.00     0.100 A 
HETATM   22  C   UNL     1      25.239  49.493  48.673  1.00  0.00    -0.005 A 
HETATM   23  N   UNL     1      26.546  47.724  49.631  1.00  0.00    -0.257 NA
HETATM   24  C   UNL     1      26.417  50.213  48.421  1.00  0.00     0.015 A 
HETATM   25  C   UNL     1      23.998  50.040  48.309  1.00  0.00     0.014 A 
HETATM   26  C   UNL     1      27.648  49.683  48.775  1.00  0.00     0.020 A 
HETATM   27  C   UNL     1      27.660  48.444  49.373  1.00  0.00     0.117 A 
HETATM   28  C   UNL     1      22.821  49.344  48.552  1.00  0.00     0.004 A 
HETATM   29  C   UNL     1      22.884  48.098  49.160  1.00  0.00     0.039 A 
ENDBRANCH  19  20
ENDBRANCH  18  19
ENDBRANCH  17  18
ENDBRANCH  16  17
ENDBRANCH   1  16
TORSDOF 7
ENDMDL
MODEL 9
REMARK VINA RESULT:      -8.5      1.604      2.188
REMARK  7 active torsions:
REMARK  status: ('A' for Active; 'I' for Inactive)
REMARK    1  A    between atoms: C_6  and  N_7 
REMARK       I    between atoms: N_7  and  C_8 
REMARK       I    between atoms: C_8  and  N_9 
REMARK    2  A    between atoms: N_9  and  C_10 
REMARK    3  A    between atoms: C_10  and  C_11 
REMARK    4  A    between atoms: C_11  and  C_12 
REMARK    5  A    between atoms: C_12  and  C_13 
REMARK    6  A    between atoms: C_13  and  O_14 
REMARK    7  A    between atoms: O_14  and  C_15 
ROOT
HETATM    1  C   UNL     1      24.218  47.269  49.365  1.00  0.00     0.219 C 
ENDROOT
BRANCH   1   2
HETATM    2  N   UNL     1      22.906  47.844  49.486  1.00  0.00    -0.332 N 
HETATM    3  C   UNL     1      22.754  49.196  49.526  1.00  0.00     0.321 C 
HETATM    4  N   UNL     1      21.487  49.683  49.605  1.00  0.00    -0.309 N 
HETATM    5  O   UNL     1      23.702  49.980  49.544  1.00  0.00    -0.247 OA
HETATM    6  H   UNL     1      21.486  50.658  49.879  1.00  0.00     0.170 HD
HETATM    7  H   UNL     1      22.184  47.299  49.934  1.00  0.00     0.165 HD
BRANCH   4   8
HETATM    8  C   UNL     1      20.250  49.153  49.198  1.00  0.00     0.036 A 
HETATM    9  C   UNL     1      19.789  49.163  47.881  1.00  0.00     0.037 A 
HETATM   10  C   UNL     1      18.506  48.682  47.553  1.00  0.00    -0.054 A 
HETATM   11  C   UNL     1      17.682  48.160  48.567  1.00  0.00    -0.056 A 
HETATM   12  C   UNL     1      18.059  48.722  46.117  1.00  0.00     0.049 C 
HETATM   13  C   UNL     1      16.301  47.642  48.275  1.00  0.00     0.049 C 
HETATM   14  C   UNL     1      18.141  48.174  49.890  1.00  0.00     0.009 A 
HETATM   15  C   UNL     1      19.408  48.672  50.202  1.00  0.00     0.030 A 
ENDBRANCH   4   8
ENDBRANCH   1   2
BRANCH   1  16
HETATM   16  C   UNL     1      24.655  46.584  50.650  1.00  0.00    -0.085 C 
BRANCH  16  17
HETATM   17  C   UNL     1      25.031  45.998  51.752  1.00  0.00    -0.078 C 
BRANCH  17  18
HETATM   18  C   UNL     1      25.469  45.314  53.038  1.00  0.00     0.269 C 
BRANCH  18  19
HETATM   19  O   UNL     1      26.808  45.697  53.328  1.00  0.00    -0.337 OA
BRANCH  19  20
HETATM   20  C   UNL     1      27.739  44.692  53.493  1.00  0.00     0.099 A 
HETATM   21  C   UNL     1      28.775  44.627  54.451  1.00  0.00     0.100 A 
HETATM   22  C   UNL     1      29.613  43.486  54.417  1.00  0.00    -0.005 A 
HETATM   23  N   UNL     1      28.992  45.595  55.378  1.00  0.00    -0.257 NA
HETATM   24  C   UNL     1      30.658  43.381  55.347  1.00  0.00     0.015 A 
HETATM   25  C   UNL     1      29.418  42.467  53.472  1.00  0.00     0.014 A 
HETATM   26  C   UNL     1      30.860  44.382  56.285  1.00  0.00     0.020 A 
HETATM   27  C   UNL     1      30.007  45.461  56.260  1.00  0.00     0.117 A 
HETATM   28  C   UNL     1      28.391  42.553  52.542  1.00  0.00     0.004 A 
HETATM   29  C   UNL     1      27.557  43.662  52.555  1.00  0.00     0.039 A 
ENDBRANCH  19  20
ENDBRANCH  18  19
ENDBRANCH  17  18
ENDBRANCH  16  17
ENDBRANCH   1  16
TORSDOF 7
ENDMDL
MODEL 10
REMARK VINA RESULT:      -8.5      5.152      9.213
REMARK  7 active torsions:
REMARK  status: ('A' for Active; 'I' for Inactive)
REMARK    1  A    between atoms: C_6  and  N_7 
REMARK       I    between atoms: N_7  and  C_8 
REMARK       I    between atoms: C_8  and  N_9 
REMARK    2  A    between atoms: N_9  and  C_10 
REMARK    3  A    between atoms: C_10  and  C_11 
REMARK    4  A    between atoms: C_11  and  C_12 
REMARK    5  A    between atoms: C_12  and  C_13 
REMARK    6  A    between atoms: C_13  and  O_14 
REMARK    7  A    between atoms: O_14  and  C_15 
ROOT
HETATM    1  C   UNL     1      26.101  46.995  53.163  1.00  0.00     0.219 C 
ENDROOT
BRANCH   1   2
HETATM    2  N   UNL     1      27.132  46.855  54.155  1.00  0.00    -0.332 N 
HETATM    3  C   UNL     1      26.944  47.349  55.409  1.00  0.00     0.321 C 
HETATM    4  N   UNL     1      27.939  47.156  56.316  1.00  0.00    -0.309 N 
HETATM    5  O   UNL     1      25.950  47.996  55.736  1.00  0.00    -0.247 OA
HETATM    6  H   UNL     1      27.824  47.760  57.120  1.00  0.00     0.170 HD
HETATM    7  H   UNL     1      28.088  46.778  53.843  1.00  0.00     0.165 HD
BRANCH   4   8
HETATM    8  C   UNL     1      28.937  46.170  56.418  1.00  0.00     0.036 A 
HETATM    9  C   UNL     1      29.217  45.234  55.422  1.00  0.00     0.037 A 
HETATM   10  C   UNL     1      30.180  44.225  55.620  1.00  0.00    -0.054 A 
HETATM   11  C   UNL     1      30.889  44.172  56.834  1.00  0.00    -0.056 A 
HETATM   12  C   UNL     1      30.439  43.238  54.513  1.00  0.00     0.049 C 
HETATM   13  C   UNL     1      31.921  43.112  57.101  1.00  0.00     0.049 C 
HETATM   14  C   UNL     1      30.587  45.100  57.839  1.00  0.00     0.009 A 
HETATM   15  C   UNL     1      29.616  46.083  57.635  1.00  0.00     0.030 A 
ENDBRANCH   4   8
ENDBRANCH   1   2
BRANCH   1  16
HETATM   16  C   UNL     1      26.291  46.023  52.010  1.00  0.00    -0.085 C 
BRANCH  16  17
HETATM   17  C   UNL     1      26.454  45.189  51.021  1.00  0.00    -0.078 C 
BRANCH  17  18
HETATM   18  C   UNL     1      26.645  44.216  49.869  1.00  0.00     0.269 C 
BRANCH  18  19
HETATM   19  O   UNL     1      26.114  42.950  50.244  1.00  0.00    -0.337 OA
BRANCH  19  20
HETATM   20  C   UNL     1      27.009  41.950  50.563  1.00  0.00     0.099 A 
HETATM   21  C   UNL     1      27.523  40.950  49.709  1.00  0.00     0.100 A 
HETATM   22  C   UNL     1      28.433  40.023  50.275  1.00  0.00    -0.005 A 
HETATM   23  N   UNL     1      27.186  40.846  48.398  1.00  0.00    -0.257 NA
HETATM   24  C   UNL     1      28.966  39.010  49.464  1.00  0.00     0.015 A 
HETATM   25  C   UNL     1      28.805  40.101  51.627  1.00  0.00     0.014 A 
HETATM   26  C   UNL     1      28.606  38.924  48.128  1.00  0.00     0.020 A 
HETATM   27  C   UNL     1      27.720  39.858  47.646  1.00  0.00     0.117 A 
HETATM   28  C   UNL     1      28.286  41.095  52.446  1.00  0.00     0.004 A 
HETATM   29  C   UNL     1      27.393  42.014  51.914  1.00  0.00     0.039 A 
ENDBRANCH  19  20
ENDBRANCH  18  19
ENDBRANCH  17  18
ENDBRANCH  16  17
ENDBRANCH   1  16
TORSDOF 7
ENDMDL
