MODEL 1
REMARK VINA RESULT:      -7.5      0.000      0.000
REMARK  4 active torsions:
REMARK  status: ('A' for Active; 'I' for Inactive)
REMARK    1  A    between atoms: C_5  and  C_6 
REMARK       I    between atoms: C_6  and  N_7 
REMARK    2  A    between atoms: N_7  and  N_8 
REMARK       I    between atoms: N_8  and  C_9 
REMARK    3  A    between atoms: C_9  and  C_10 
REMARK    4  A    between atoms: C_13  and  C_14 
ROOT
HETATM    1  N   UNL     1      24.141  46.775  50.427  1.00  0.00    -0.263 N 
HETATM    2  C   UNL     1      24.364  47.987  49.807  1.00  0.00     0.270 C 
HETATM    3  O   UNL     1      25.485  48.484  49.705  1.00  0.00    -0.266 OA
HETATM    4  H   UNL     1      23.276  46.245  50.334  1.00  0.00     0.190 HD
ENDROOT
BRANCH   2   5
HETATM    5  C   UNL     1      23.174  48.668  49.232  1.00  0.00     0.033 A 
HETATM    6  C   UNL     1      22.068  47.962  48.755  1.00  0.00     0.017 A 
HETATM    7  C   UNL     1      20.970  48.655  48.232  1.00  0.00     0.010 A 
HETATM    8  C   UNL     1      20.931  50.066  48.185  1.00  0.00    -0.035 A 
HETATM    9  C   UNL     1      22.062  50.752  48.656  1.00  0.00     0.010 A 
HETATM   10  C   UNL     1      23.162  50.065  49.187  1.00  0.00     0.017 A 
BRANCH   8  11
HETATM   11  C   UNL     1      19.707  50.747  47.570  1.00  0.00     0.141 C 
HETATM   12  S   UNL     1      18.226  49.677  47.507  1.00  0.00    -0.149 SA
HETATM   13  C   UNL     1      17.772  49.671  49.260  1.00  0.00     0.076 C 
HETATM   14  C   UNL     1      17.382  51.058  49.745  1.00  0.00     0.020 C 
HETATM   15  C   UNL     1      18.548  52.032  49.790  1.00  0.00     0.076 C 
HETATM   16  S   UNL     1      19.263  52.413  48.162  1.00  0.00    -0.149 SA
ENDBRANCH   8  11
ENDBRANCH   2   5
BRANCH   1  17
HETATM   17  N   UNL     1      25.253  46.058  50.883  1.00  0.00    -0.262 N 
HETATM   18  C   UNL     1      25.060  44.830  51.479  1.00  0.00     0.286 C 
HETATM   19  O   UNL     1      23.931  44.367  51.653  1.00  0.00    -0.264 OA
HETATM   20  H   UNL     1      26.167  46.428  50.637  1.00  0.00     0.190 HD
BRANCH  18  21
HETATM   21  C   UNL     1      26.260  44.131  51.879  1.00  0.00     0.102 A 
HETATM   22  N   UNL     1      26.267  43.281  52.965  1.00  0.00    -0.361 N 
HETATM   23  C   UNL     1      27.517  42.753  53.148  1.00  0.00     0.088 A 
HETATM   24  H   UNL     1      25.452  43.093  53.536  1.00  0.00     0.165 HD
HETATM   25  C   UNL     1      28.336  43.260  52.168  1.00  0.00     0.019 A 
HETATM   26  C   UNL     1      27.550  44.127  51.369  1.00  0.00     0.036 A 
ENDBRANCH  18  21
ENDBRANCH   1  17
TORSDOF 4
ENDMDL
MODEL 2
REMARK VINA RESULT:      -7.4      1.586      2.024
REMARK  4 active torsions:
REMARK  status: ('A' for Active; 'I' for Inactive)
REMARK    1  A    between atoms: C_5  and  C_6 
REMARK       I    between atoms: C_6  and  N_7 
REMARK    2  A    between atoms: N_7  and  N_8 
REMARK       I    between atoms: N_8  and  C_9 
REMARK    3  A    between atoms: C_9  and  C_10 
REMARK    4  A    between atoms: C_13  and  C_14 
ROOT
HETATM    1  N   UNL     1      25.455  46.034  51.355  1.00  0.00    -0.263 N 
HETATM    2  C   UNL     1      25.274  46.042  49.987  1.00  0.00     0.270 C 
HETATM    3  O   UNL     1      26.007  45.424  49.217  1.00  0.00    -0.266 OA
HETATM    4  H   UNL     1      24.749  46.348  52.019  1.00  0.00     0.190 HD
ENDROOT
BRANCH   2   5
HETATM    5  C   UNL     1      24.116  46.821  49.474  1.00  0.00     0.033 A 
HETATM    6  C   UNL     1      23.038  46.216  48.827  1.00  0.00     0.017 A 
HETATM    7  C   UNL     1      21.968  46.997  48.372  1.00  0.00     0.010 A 
HETATM    8  C   UNL     1      21.931  48.396  48.564  1.00  0.00    -0.035 A 
HETATM    9  C   UNL     1      23.036  48.982  49.204  1.00  0.00     0.010 A 
HETATM   10  C   UNL     1      24.105  48.205  49.667  1.00  0.00     0.017 A 
BRANCH   8  11
HETATM   11  C   UNL     1      20.742  49.182  48.011  1.00  0.00     0.141 C 
HETATM   12  S   UNL     1      19.131  48.354  48.268  1.00  0.00    -0.149 SA
HETATM   13  C   UNL     1      18.924  48.623  50.046  1.00  0.00     0.076 C 
HETATM   14  C   UNL     1      18.800  50.101  50.382  1.00  0.00     0.020 C 
HETATM   15  C   UNL     1      20.086  50.881  50.157  1.00  0.00     0.076 C 
HETATM   16  S   UNL     1      20.617  50.954  48.420  1.00  0.00    -0.149 SA
ENDBRANCH   8  11
ENDBRANCH   2   5
BRANCH   1  17
HETATM   17  N   UNL     1      26.470  45.225  51.876  1.00  0.00    -0.262 N 
HETATM   18  C   UNL     1      26.139  44.225  52.765  1.00  0.00     0.286 C 
HETATM   19  O   UNL     1      24.979  44.052  53.141  1.00  0.00    -0.264 OA
HETATM   20  H   UNL     1      27.396  45.337  51.472  1.00  0.00     0.190 HD
BRANCH  18  21
HETATM   21  C   UNL     1      27.237  43.402  53.221  1.00  0.00     0.102 A 
HETATM   22  N   UNL     1      27.262  42.043  52.983  1.00  0.00    -0.361 N 
HETATM   23  C   UNL     1      28.391  41.487  53.520  1.00  0.00     0.088 A 
HETATM   24  H   UNL     1      26.533  41.548  52.484  1.00  0.00     0.165 HD
HETATM   25  C   UNL     1      29.116  42.493  54.112  1.00  0.00     0.019 A 
HETATM   26  C   UNL     1      28.393  43.698  53.927  1.00  0.00     0.036 A 
ENDBRANCH  18  21
ENDBRANCH   1  17
TORSDOF 4
ENDMDL
MODEL 3
REMARK VINA RESULT:      -7.3     12.885     14.074
REMARK  4 active torsions:
REMARK  status: ('A' for Active; 'I' for Inactive)
REMARK    1  A    between atoms: C_5  and  C_6 
REMARK       I    between atoms: C_6  and  N_7 
REMARK    2  A    between atoms: N_7  and  N_8 
REMARK       I    between atoms: N_8  and  C_9 
REMARK    3  A    between atoms: C_9  and  C_10 
REMARK    4  A    between atoms: C_13  and  C_14 
ROOT
HETATM    1  N   UNL     1      34.947  51.588  43.472  1.00  0.00    -0.263 N 
HETATM    2  C   UNL     1      33.596  51.606  43.755  1.00  0.00     0.270 C 
HETATM    3  O   UNL     1      33.145  52.045  44.811  1.00  0.00    -0.266 OA
HETATM    4  H   UNL     1      35.326  51.439  42.538  1.00  0.00     0.190 HD
ENDROOT
BRANCH   2   5
HETATM    5  C   UNL     1      32.690  51.088  42.697  1.00  0.00     0.033 A 
HETATM    6  C   UNL     1      32.574  51.701  41.448  1.00  0.00     0.017 A 
HETATM    7  C   UNL     1      31.711  51.165  40.484  1.00  0.00     0.010 A 
HETATM    8  C   UNL     1      30.953  49.997  40.727  1.00  0.00    -0.035 A 
HETATM    9  C   UNL     1      31.076  49.409  41.996  1.00  0.00     0.010 A 
HETATM   10  C   UNL     1      31.944  49.937  42.962  1.00  0.00     0.017 A 
BRANCH   8  11
HETATM   11  C   UNL     1      30.010  49.493  39.634  1.00  0.00     0.141 C 
HETATM   12  S   UNL     1      28.669  48.419  40.260  1.00  0.00    -0.149 SA
HETATM   13  C   UNL     1      27.627  49.662  41.066  1.00  0.00     0.076 C 
HETATM   14  C   UNL     1      27.062  50.657  40.066  1.00  0.00     0.020 C 
HETATM   15  C   UNL     1      28.118  51.568  39.459  1.00  0.00     0.076 C 
HETATM   16  S   UNL     1      29.351  50.703  38.441  1.00  0.00    -0.149 SA
ENDBRANCH   8  11
ENDBRANCH   2   5
BRANCH   1  17
HETATM   17  N   UNL     1      35.818  52.166  44.402  1.00  0.00    -0.262 N 
HETATM   18  C   UNL     1      36.654  53.183  43.994  1.00  0.00     0.286 C 
HETATM   19  O   UNL     1      36.680  53.568  42.824  1.00  0.00    -0.264 OA
HETATM   20  H   UNL     1      35.700  51.888  45.372  1.00  0.00     0.190 HD
BRANCH  18  21
HETATM   21  C   UNL     1      37.488  53.760  45.023  1.00  0.00     0.102 A 
HETATM   22  N   UNL     1      38.159  52.968  45.932  1.00  0.00    -0.361 N 
HETATM   23  C   UNL     1      38.867  53.744  46.809  1.00  0.00     0.088 A 
HETATM   24  H   UNL     1      38.113  51.956  45.935  1.00  0.00     0.165 HD
HETATM   25  C   UNL     1      38.662  55.060  46.468  1.00  0.00     0.019 A 
HETATM   26  C   UNL     1      37.795  55.074  45.347  1.00  0.00     0.036 A 
ENDBRANCH  18  21
ENDBRANCH   1  17
TORSDOF 4
ENDMDL
MODEL 4
REMARK VINA RESULT:      -7.2      2.847      4.084
REMARK  4 active torsions:
REMARK  status: ('A' for Active; 'I' for Inactive)
REMARK    1  A    between atoms: C_5  and  C_6 
REMARK       I    between atoms: C_6  and  N_7 
REMARK    2  A    between atoms: N_7  and  N_8 
REMARK       I    between atoms: N_8  and  C_9 
REMARK    3  A    between atoms: C_9  and  C_10 
REMARK    4  A    between atoms: C_13  and  C_14 
ROOT
HETATM    1  N   UNL     1      26.204  45.222  52.194  1.00  0.00    -0.263 N 
HETATM    2  C   UNL     1      25.701  46.475  51.908  1.00  0.00     0.270 C 
HETATM    3  O   UNL     1      26.035  47.483  52.528  1.00  0.00    -0.266 OA
HETATM    4  H   UNL     1      26.117  44.422  51.570  1.00  0.00     0.190 HD
ENDROOT
BRANCH   2   5
HETATM    5  C   UNL     1      24.740  46.561  50.776  1.00  0.00     0.033 A 
HETATM    6  C   UNL     1      24.343  47.781  50.226  1.00  0.00     0.017 A 
HETATM    7  C   UNL     1      23.442  47.804  49.155  1.00  0.00     0.010 A 
HETATM    8  C   UNL     1      22.925  46.617  48.588  1.00  0.00    -0.035 A 
HETATM    9  C   UNL     1      23.328  45.404  49.170  1.00  0.00     0.010 A 
HETATM   10  C   UNL     1      24.235  45.375  50.238  1.00  0.00     0.017 A 
BRANCH   8  11
HETATM   11  C   UNL     1      21.922  46.728  47.440  1.00  0.00     0.141 C 
HETATM   12  S   UNL     1      20.929  45.213  47.184  1.00  0.00    -0.149 SA
HETATM   13  C   UNL     1      19.826  45.319  48.616  1.00  0.00     0.076 C 
HETATM   14  C   UNL     1      18.924  46.540  48.542  1.00  0.00     0.020 C 
HETATM   15  C   UNL     1      19.673  47.854  48.704  1.00  0.00     0.076 C 
HETATM   16  S   UNL     1      20.856  48.204  47.368  1.00  0.00    -0.149 SA
ENDBRANCH   8  11
ENDBRANCH   2   5
BRANCH   1  17
HETATM   17  N   UNL     1      27.190  45.123  53.183  1.00  0.00    -0.262 N 
HETATM   18  C   UNL     1      27.999  44.008  53.212  1.00  0.00     0.286 C 
HETATM   19  O   UNL     1      27.851  43.081  52.414  1.00  0.00    -0.264 OA
HETATM   20  H   UNL     1      27.342  45.947  53.759  1.00  0.00     0.190 HD
BRANCH  18  21
HETATM   21  C   UNL     1      29.024  44.004  54.231  1.00  0.00     0.102 A 
HETATM   22  N   UNL     1      29.155  45.049  55.122  1.00  0.00    -0.361 N 
HETATM   23  C   UNL     1      30.199  44.819  55.976  1.00  0.00     0.088 A 
HETATM   24  H   UNL     1      28.554  45.864  55.122  1.00  0.00     0.165 HD
HETATM   25  C   UNL     1      30.757  43.607  55.643  1.00  0.00     0.019 A 
HETATM   26  C   UNL     1      30.021  43.093  54.546  1.00  0.00     0.036 A 
ENDBRANCH  18  21
ENDBRANCH   1  17
TORSDOF 4
ENDMDL
MODEL 5
REMARK VINA RESULT:      -7.0     13.384     14.573
REMARK  4 active torsions:
REMARK  status: ('A' for Active; 'I' for Inactive)
REMARK    1  A    between atoms: C_5  and  C_6 
REMARK       I    between atoms: C_6  and  N_7 
REMARK    2  A    between atoms: N_7  and  N_8 
REMARK       I    between atoms: N_8  and  C_9 
REMARK    3  A    between atoms: C_9  and  C_10 
REMARK    4  A    between atoms: C_13  and  C_14 
ROOT
HETATM    1  N   UNL     1      34.830  52.016  43.727  1.00  0.00    -0.263 N 
HETATM    2  C   UNL     1      34.677  51.108  42.700  1.00  0.00     0.270 C 
HETATM    3  O   UNL     1      35.601  50.407  42.290  1.00  0.00    -0.266 OA
HETATM    4  H   UNL     1      34.050  52.442  44.225  1.00  0.00     0.190 HD
ENDROOT
BRANCH   2   5
HETATM    5  C   UNL     1      33.315  50.991  42.116  1.00  0.00     0.033 A 
HETATM    6  C   UNL     1      33.047  50.191  41.003  1.00  0.00     0.017 A 
HETATM    7  C   UNL     1      31.743  50.110  40.499  1.00  0.00     0.010 A 
HETATM    8  C   UNL     1      30.667  50.804  41.096  1.00  0.00    -0.035 A 
HETATM    9  C   UNL     1      30.966  51.613  42.204  1.00  0.00     0.010 A 
HETATM   10  C   UNL     1      32.268  51.693  42.717  1.00  0.00     0.017 A 
BRANCH   8  11
HETATM   11  C   UNL     1      29.278  50.687  40.468  1.00  0.00     0.141 C 
HETATM   12  S   UNL     1      28.202  52.129  40.793  1.00  0.00    -0.149 SA
HETATM   13  C   UNL     1      28.974  53.347  39.697  1.00  0.00     0.076 C 
HETATM   14  C   UNL     1      28.860  52.941  38.237  1.00  0.00     0.020 C 
HETATM   15  C   UNL     1      29.692  51.719  37.882  1.00  0.00     0.076 C 
HETATM   16  S   UNL     1      29.165  50.193  38.717  1.00  0.00    -0.149 SA
ENDBRANCH   8  11
ENDBRANCH   2   5
BRANCH   1  17
HETATM   17  N   UNL     1      36.073  52.075  44.369  1.00  0.00    -0.262 N 
HETATM   18  C   UNL     1      36.991  53.020  43.966  1.00  0.00     0.286 C 
HETATM   19  O   UNL     1      36.760  53.787  43.031  1.00  0.00    -0.264 OA
HETATM   20  H   UNL     1      36.187  51.491  45.194  1.00  0.00     0.190 HD
BRANCH  18  21
HETATM   21  C   UNL     1      38.230  53.048  44.711  1.00  0.00     0.102 A 
HETATM   22  N   UNL     1      38.239  53.011  46.090  1.00  0.00    -0.361 N 
HETATM   23  C   UNL     1      39.524  53.061  46.559  1.00  0.00     0.088 A 
HETATM   24  H   UNL     1      37.400  52.960  46.656  1.00  0.00     0.165 HD
HETATM   25  C   UNL     1      40.366  53.127  45.475  1.00  0.00     0.019 A 
HETATM   26  C   UNL     1      39.556  53.119  44.312  1.00  0.00     0.036 A 
ENDBRANCH  18  21
ENDBRANCH   1  17
TORSDOF 4
ENDMDL
MODEL 6
REMARK VINA RESULT:      -7.0      7.773     12.212
REMARK  4 active torsions:
REMARK  status: ('A' for Active; 'I' for Inactive)
REMARK    1  A    between atoms: C_5  and  C_6 
REMARK       I    between atoms: C_6  and  N_7 
REMARK    2  A    between atoms: N_7  and  N_8 
REMARK       I    between atoms: N_8  and  C_9 
REMARK    3  A    between atoms: C_9  and  C_10 
REMARK    4  A    between atoms: C_13  and  C_14 
ROOT
HETATM    1  N   UNL     1      15.243  54.564  51.725  1.00  0.00    -0.263 N 
HETATM    2  C   UNL     1      14.702  53.594  50.906  1.00  0.00     0.270 C 
HETATM    3  O   UNL     1      13.494  53.371  50.850  1.00  0.00    -0.266 OA
HETATM    4  H   UNL     1      16.195  54.915  51.631  1.00  0.00     0.190 HD
ENDROOT
BRANCH   2   5
HETATM    5  C   UNL     1      15.657  52.835  50.056  1.00  0.00     0.033 A 
HETATM    6  C   UNL     1      15.261  51.743  49.282  1.00  0.00     0.017 A 
HETATM    7  C   UNL     1      16.200  51.069  48.491  1.00  0.00     0.010 A 
HETATM    8  C   UNL     1      17.553  51.472  48.433  1.00  0.00    -0.035 A 
HETATM    9  C   UNL     1      17.929  52.564  49.234  1.00  0.00     0.010 A 
HETATM   10  C   UNL     1      16.992  53.246  50.021  1.00  0.00     0.017 A 
BRANCH   8  11
HETATM   11  C   UNL     1      18.523  50.666  47.570  1.00  0.00     0.141 C 
HETATM   12  S   UNL     1      20.263  50.773  48.125  1.00  0.00    -0.149 SA
HETATM   13  C   UNL     1      20.179  49.737  49.608  1.00  0.00     0.076 C 
HETATM   14  C   UNL     1      19.837  48.295  49.269  1.00  0.00     0.020 C 
HETATM   15  C   UNL     1      18.417  48.116  48.756  1.00  0.00     0.076 C 
HETATM   16  S   UNL     1      18.089  48.941  47.170  1.00  0.00    -0.149 SA
ENDBRANCH   8  11
ENDBRANCH   2   5
BRANCH   1  17
HETATM   17  N   UNL     1      14.363  55.368  52.458  1.00  0.00    -0.262 N 
HETATM   18  C   UNL     1      14.872  56.216  53.418  1.00  0.00     0.286 C 
HETATM   19  O   UNL     1      16.077  56.256  53.672  1.00  0.00    -0.264 OA
HETATM   20  H   UNL     1      13.393  55.376  52.155  1.00  0.00     0.190 HD
BRANCH  18  21
HETATM   21  C   UNL     1      13.904  57.048  54.096  1.00  0.00     0.102 A 
HETATM   22  N   UNL     1      13.982  57.278  55.454  1.00  0.00    -0.361 N 
HETATM   23  C   UNL     1      12.951  58.081  55.861  1.00  0.00     0.088 A 
HETATM   24  H   UNL     1      14.706  56.891  56.048  1.00  0.00     0.165 HD
HETATM   25  C   UNL     1      12.191  58.384  54.756  1.00  0.00     0.019 A 
HETATM   26  C   UNL     1      12.787  57.736  53.645  1.00  0.00     0.036 A 
ENDBRANCH  18  21
ENDBRANCH   1  17
TORSDOF 4
ENDMDL
MODEL 7
REMARK VINA RESULT:      -6.7      7.127     10.794
REMARK  4 active torsions:
REMARK  status: ('A' for Active; 'I' for Inactive)
REMARK    1  A    between atoms: C_5  and  C_6 
REMARK       I    between atoms: C_6  and  N_7 
REMARK    2  A    between atoms: N_7  and  N_8 
REMARK       I    between atoms: N_8  and  C_9 
REMARK    3  A    between atoms: C_9  and  C_10 
REMARK    4  A    between atoms: C_13  and  C_14 
ROOT
HETATM    1  N   UNL     1      16.089  52.239  49.967  1.00  0.00    -0.263 N 
HETATM    2  C   UNL     1      17.344  51.719  49.730  1.00  0.00     0.270 C 
HETATM    3  O   UNL     1      18.378  52.331  49.993  1.00  0.00    -0.266 OA
HETATM    4  H   UNL     1      15.237  51.681  49.966  1.00  0.00     0.190 HD
ENDROOT
BRANCH   2   5
HETATM    5  C   UNL     1      17.397  50.348  49.156  1.00  0.00     0.033 A 
HETATM    6  C   UNL     1      18.247  49.361  49.658  1.00  0.00     0.017 A 
HETATM    7  C   UNL     1      18.249  48.083  49.086  1.00  0.00     0.010 A 
HETATM    8  C   UNL     1      17.395  47.745  48.012  1.00  0.00    -0.035 A 
HETATM    9  C   UNL     1      16.561  48.760  47.516  1.00  0.00     0.010 A 
HETATM   10  C   UNL     1      16.549  50.038  48.089  1.00  0.00     0.017 A 
BRANCH   8  11
HETATM   11  C   UNL     1      17.479  46.336  47.423  1.00  0.00     0.141 C 
HETATM   12  S   UNL     1      17.155  46.274  45.624  1.00  0.00    -0.149 SA
HETATM   13  C   UNL     1      18.696  46.998  45.006  1.00  0.00     0.076 C 
HETATM   14  C   UNL     1      19.899  46.132  45.340  1.00  0.00     0.020 C 
HETATM   15  C   UNL     1      20.219  46.090  46.826  1.00  0.00     0.076 C 
HETATM   16  S   UNL     1      18.928  45.313  47.843  1.00  0.00    -0.149 SA
ENDBRANCH   8  11
ENDBRANCH   2   5
BRANCH   1  17
HETATM   17  N   UNL     1      16.006  53.483  50.605  1.00  0.00    -0.262 N 
HETATM   18  C   UNL     1      14.803  53.876  51.151  1.00  0.00     0.286 C 
HETATM   19  O   UNL     1      13.792  53.178  51.058  1.00  0.00    -0.264 OA
HETATM   20  H   UNL     1      16.879  53.984  50.743  1.00  0.00     0.190 HD
BRANCH  18  21
HETATM   21  C   UNL     1      14.811  55.150  51.834  1.00  0.00     0.102 A 
HETATM   22  N   UNL     1      14.868  55.226  53.211  1.00  0.00    -0.361 N 
HETATM   23  C   UNL     1      14.851  56.533  53.617  1.00  0.00     0.088 A 
HETATM   24  H   UNL     1      14.909  54.414  53.816  1.00  0.00     0.165 HD
HETATM   25  C   UNL     1      14.787  57.322  52.493  1.00  0.00     0.019 A 
HETATM   26  C   UNL     1      14.762  56.456  51.371  1.00  0.00     0.036 A 
ENDBRANCH  18  21
ENDBRANCH   1  17
TORSDOF 4
ENDMDL
MODEL 8
REMARK VINA RESULT:      -6.7     12.091     13.354
REMARK  4 active torsions:
REMARK  status: ('A' for Active; 'I' for Inactive)
REMARK    1  A    between atoms: C_5  and  C_6 
REMARK       I    between atoms: C_6  and  N_7 
REMARK    2  A    between atoms: N_7  and  N_8 
REMARK       I    between atoms: N_8  and  C_9 
REMARK    3  A    between atoms: C_9  and  C_10 
REMARK    4  A    between atoms: C_13  and  C_14 
ROOT
HETATM    1  N   UNL     1      32.633  51.108  43.313  1.00  0.00    -0.263 N 
HETATM    2  C   UNL     1      31.683  51.638  42.465  1.00  0.00     0.270 C 
HETATM    3  O   UNL     1      31.757  52.781  42.016  1.00  0.00    -0.266 OA
HETATM    4  H   UNL     1      32.714  50.114  43.520  1.00  0.00     0.190 HD
ENDROOT
BRANCH   2   5
HETATM    5  C   UNL     1      30.559  50.742  42.085  1.00  0.00     0.033 A 
HETATM    6  C   UNL     1      30.603  49.362  42.290  1.00  0.00     0.017 A 
HETATM    7  C   UNL     1      29.511  48.566  41.922  1.00  0.00     0.010 A 
HETATM    8  C   UNL     1      28.340  49.120  41.357  1.00  0.00    -0.035 A 
HETATM    9  C   UNL     1      28.328  50.509  41.146  1.00  0.00     0.010 A 
HETATM   10  C   UNL     1      29.415  51.311  41.519  1.00  0.00     0.017 A 
BRANCH   8  11
HETATM   11  C   UNL     1      27.204  48.180  40.953  1.00  0.00     0.141 C 
HETATM   12  S   UNL     1      26.139  48.845  39.623  1.00  0.00    -0.149 SA
HETATM   13  C   UNL     1      27.256  48.661  38.210  1.00  0.00     0.076 C 
HETATM   14  C   UNL     1      27.574  47.202  37.930  1.00  0.00     0.020 C 
HETATM   15  C   UNL     1      28.424  46.551  39.009  1.00  0.00     0.076 C 
HETATM   16  S   UNL     1      27.608  46.433  40.629  1.00  0.00    -0.149 SA
ENDBRANCH   8  11
ENDBRANCH   2   5
BRANCH   1  17
HETATM   17  N   UNL     1      33.759  51.887  43.605  1.00  0.00    -0.262 N 
HETATM   18  C   UNL     1      34.974  51.541  43.054  1.00  0.00     0.286 C 
HETATM   19  O   UNL     1      35.100  50.542  42.343  1.00  0.00    -0.264 OA
HETATM   20  H   UNL     1      33.596  52.751  44.114  1.00  0.00     0.190 HD
BRANCH  18  21
HETATM   21  C   UNL     1      36.077  52.423  43.363  1.00  0.00     0.102 A 
HETATM   22  N   UNL     1      36.570  53.310  42.429  1.00  0.00    -0.361 N 
HETATM   23  C   UNL     1      37.615  54.021  42.953  1.00  0.00     0.088 A 
HETATM   24  H   UNL     1      36.199  53.401  41.490  1.00  0.00     0.165 HD
HETATM   25  C   UNL     1      37.806  53.598  44.247  1.00  0.00     0.019 A 
HETATM   26  C   UNL     1      36.841  52.593  44.507  1.00  0.00     0.036 A 
ENDBRANCH  18  21
ENDBRANCH   1  17
TORSDOF 4
ENDMDL
MODEL 9
REMARK VINA RESULT:      -6.7     14.065     15.404
REMARK  4 active torsions:
REMARK  status: ('A' for Active; 'I' for Inactive)
REMARK    1  A    between atoms: C_5  and  C_6 
REMARK       I    between atoms: C_6  and  N_7 
REMARK    2  A    between atoms: N_7  and  N_8 
REMARK       I    between atoms: N_8  and  C_9 
REMARK    3  A    between atoms: C_9  and  C_10 
REMARK    4  A    between atoms: C_13  and  C_14 
ROOT
HETATM    1  N   UNL     1      36.109  52.154  44.440  1.00  0.00    -0.263 N 
HETATM    2  C   UNL     1      35.698  52.160  43.123  1.00  0.00     0.270 C 
HETATM    3  O   UNL     1      36.262  52.823  42.254  1.00  0.00    -0.266 OA
HETATM    4  H   UNL     1      35.808  51.460  45.122  1.00  0.00     0.190 HD
ENDROOT
BRANCH   2   5
HETATM    5  C   UNL     1      34.540  51.291  42.786  1.00  0.00     0.033 A 
HETATM    6  C   UNL     1      33.307  51.408  43.430  1.00  0.00     0.017 A 
HETATM    7  C   UNL     1      32.246  50.570  43.066  1.00  0.00     0.010 A 
HETATM    8  C   UNL     1      32.373  49.606  42.042  1.00  0.00    -0.035 A 
HETATM    9  C   UNL     1      33.628  49.498  41.420  1.00  0.00     0.010 A 
HETATM   10  C   UNL     1      34.692  50.339  41.775  1.00  0.00     0.017 A 
BRANCH   8  11
HETATM   11  C   UNL     1      31.177  48.708  41.724  1.00  0.00     0.141 C 
HETATM   12  S   UNL     1      29.566  49.568  41.826  1.00  0.00    -0.149 SA
HETATM   13  C   UNL     1      29.654  50.570  40.320  1.00  0.00     0.076 C 
HETATM   14  C   UNL     1      29.695  49.705  39.071  1.00  0.00     0.020 C 
HETATM   15  C   UNL     1      30.987  48.917  38.924  1.00  0.00     0.076 C 
HETATM   16  S   UNL     1      31.252  47.675  40.224  1.00  0.00    -0.149 SA
ENDBRANCH   8  11
ENDBRANCH   2   5
BRANCH   1  17
HETATM   17  N   UNL     1      37.262  52.877  44.769  1.00  0.00    -0.262 N 
HETATM   18  C   UNL     1      38.464  52.210  44.873  1.00  0.00     0.286 C 
HETATM   19  O   UNL     1      38.541  50.990  44.722  1.00  0.00    -0.264 OA
HETATM   20  H   UNL     1      37.174  53.889  44.793  1.00  0.00     0.190 HD
BRANCH  18  21
HETATM   21  C   UNL     1      39.614  53.034  45.168  1.00  0.00     0.102 A 
HETATM   22  N   UNL     1      39.943  54.116  44.379  1.00  0.00    -0.361 N 
HETATM   23  C   UNL     1      41.074  54.725  44.852  1.00  0.00     0.088 A 
HETATM   24  H   UNL     1      39.411  54.398  43.564  1.00  0.00     0.165 HD
HETATM   25  C   UNL     1      41.488  54.036  45.968  1.00  0.00     0.019 A 
HETATM   26  C   UNL     1      40.573  52.972  46.168  1.00  0.00     0.036 A 
ENDBRANCH  18  21
ENDBRANCH   1  17
TORSDOF 4
ENDMDL
MODEL 10
REMARK VINA RESULT:      -6.6      3.854      5.466
REMARK  4 active torsions:
REMARK  status: ('A' for Active; 'I' for Inactive)
REMARK    1  A    between atoms: C_5  and  C_6 
REMARK       I    between atoms: C_6  and  N_7 
REMARK    2  A    between atoms: N_7  and  N_8 
REMARK       I    between atoms: N_8  and  C_9 
REMARK    3  A    between atoms: C_9  and  C_10 
REMARK    4  A    between atoms: C_13  and  C_14 
ROOT
HETATM    1  N   UNL     1      22.052  50.302  47.745  1.00  0.00    -0.263 N 
HETATM    2  C   UNL     1      21.160  50.795  48.675  1.00  0.00     0.270 C 
HETATM    3  O   UNL     1      21.496  51.111  49.815  1.00  0.00    -0.266 OA
HETATM    4  H   UNL     1      21.852  50.241  46.748  1.00  0.00     0.190 HD
ENDROOT
BRANCH   2   5
HETATM    5  C   UNL     1      19.752  50.956  48.224  1.00  0.00     0.033 A 
HETATM    6  C   UNL     1      19.018  52.117  48.474  1.00  0.00     0.017 A 
HETATM    7  C   UNL     1      17.698  52.220  48.018  1.00  0.00     0.010 A 
HETATM    8  C   UNL     1      17.077  51.182  47.287  1.00  0.00    -0.035 A 
HETATM    9  C   UNL     1      17.832  50.019  47.063  1.00  0.00     0.010 A 
HETATM   10  C   UNL     1      19.156  49.913  47.511  1.00  0.00     0.017 A 
BRANCH   8  11
HETATM   11  C   UNL     1      15.622  51.359  46.851  1.00  0.00     0.141 C 
HETATM   12  S   UNL     1      15.203  53.073  46.370  1.00  0.00    -0.149 SA
HETATM   13  C   UNL     1      16.055  53.164  44.774  1.00  0.00     0.076 C 
HETATM   14  C   UNL     1      15.466  52.191  43.766  1.00  0.00     0.020 C 
HETATM   15  C   UNL     1      15.730  50.733  44.109  1.00  0.00     0.076 C 
HETATM   16  S   UNL     1      14.936  50.176  45.646  1.00  0.00    -0.149 SA
ENDBRANCH   8  11
ENDBRANCH   2   5
BRANCH   1  17
HETATM   17  N   UNL     1      23.403  50.238  48.104  1.00  0.00    -0.262 N 
HETATM   18  C   UNL     1      23.933  49.032  48.507  1.00  0.00     0.286 C 
HETATM   19  O   UNL     1      23.238  48.018  48.596  1.00  0.00    -0.264 OA
HETATM   20  H   UNL     1      23.961  51.069  47.927  1.00  0.00     0.190 HD
BRANCH  18  21
HETATM   21  C   UNL     1      25.346  49.038  48.813  1.00  0.00     0.102 A 
HETATM   22  N   UNL     1      26.190  49.993  48.286  1.00  0.00    -0.361 N 
HETATM   23  C   UNL     1      27.473  49.781  48.711  1.00  0.00     0.088 A 
HETATM   24  H   UNL     1      25.882  50.734  47.667  1.00  0.00     0.165 HD
HETATM   25  C   UNL     1      27.469  48.677  49.530  1.00  0.00     0.019 A 
HETATM   26  C   UNL     1      26.133  48.207  49.596  1.00  0.00     0.036 A 
ENDBRANCH  18  21
ENDBRANCH   1  17
TORSDOF 4
ENDMDL
