MODEL 1
REMARK VINA RESULT:      -9.7      0.000      0.000
REMARK  5 active torsions:
REMARK  status: ('A' for Active; 'I' for Inactive)
REMARK    1  A    between atoms: C_5  and  O_6 
REMARK    2  A    between atoms: O_6  and  C_7 
REMARK    3  A    between atoms: C_7  and  C_8 
REMARK       I    between atoms: C_8  and  N_9 
REMARK    4  A    between atoms: N_9  and  N_10 
REMARK    5  A    between atoms: C_11  and  C_12 
ROOT
HETATM    1  C   UNL     1      26.053  46.596  53.801  1.00  0.00     0.261 C 
HETATM    2  N   UNL     1      26.089  46.463  52.420  1.00  0.00    -0.246 N 
HETATM    3  O   UNL     1      25.717  47.612  54.408  1.00  0.00    -0.269 OA
HETATM    4  H   UNL     1      26.327  45.564  52.011  1.00  0.00     0.192 HD
ENDROOT
BRANCH   2   5
HETATM    5  N   UNL     1      25.722  47.514  51.633  1.00  0.00    -0.184 NA
HETATM    6  C   UNL     1      25.770  47.326  50.355  1.00  0.00     0.153 C 
BRANCH   6   7
HETATM    7  C   UNL     1      25.396  48.402  49.455  1.00  0.00     0.018 A 
HETATM    8  C   UNL     1      24.084  48.792  49.019  1.00  0.00     0.004 A 
HETATM    9  C   UNL     1      24.234  49.880  48.159  1.00  0.00     0.043 A 
HETATM   10  C   UNL     1      22.776  48.321  49.269  1.00  0.00     0.014 A 
HETATM   11  C   UNL     1      23.151  50.518  47.540  1.00  0.00     0.030 A 
HETATM   12  N   UNL     1      25.578  50.148  48.077  1.00  0.00    -0.358 N 
HETATM   13  C   UNL     1      21.869  50.028  47.806  1.00  0.00     0.002 A 
HETATM   14  C   UNL     1      21.682  48.944  48.659  1.00  0.00     0.001 A 
HETATM   15  H   UNL     1      25.971  50.897  47.523  1.00  0.00     0.166 HD
HETATM   16  C   UNL     1      26.298  49.270  48.850  1.00  0.00     0.018 A 
HETATM   17  C   UNL     1      27.778  49.366  48.943  1.00  0.00     0.069 C 
ENDBRANCH   6   7
ENDBRANCH   2   5
BRANCH   1  18
HETATM   18  C   UNL     1      26.590  45.374  54.537  1.00  0.00     0.280 C 
BRANCH  18  19
HETATM   19  O   UNL     1      27.660  44.760  53.812  1.00  0.00    -0.342 OA
BRANCH  19  20
HETATM   20  C   UNL     1      28.721  44.487  54.636  1.00  0.00     0.069 A 
HETATM   21  C   UNL     1      29.379  43.273  54.459  1.00  0.00     0.037 A 
HETATM   22  C   UNL     1      30.467  42.944  55.273  1.00  0.00     0.009 A 
HETATM   23  C   UNL     1      30.917  43.840  56.251  1.00  0.00    -0.062 A 
HETATM   24  C   UNL     1      32.068  43.491  57.149  1.00  0.00     0.048 C 
HETATM   25  C   UNL     1      30.261  45.069  56.402  1.00  0.00     0.009 A 
HETATM   26  C   UNL     1      29.173  45.397  55.592  1.00  0.00     0.037 A 
ENDBRANCH  19  20
ENDBRANCH  18  19
ENDBRANCH   1  18
TORSDOF 5
ENDMDL
MODEL 2
REMARK VINA RESULT:      -9.1      2.213      9.744
REMARK  5 active torsions:
REMARK  status: ('A' for Active; 'I' for Inactive)
REMARK    1  A    between atoms: C_5  and  O_6 
REMARK    2  A    between atoms: O_6  and  C_7 
REMARK    3  A    between atoms: C_7  and  C_8 
REMARK       I    between atoms: C_8  and  N_9 
REMARK    4  A    between atoms: N_9  and  N_10 
REMARK    5  A    between atoms: C_11  and  C_12 
ROOT
HETATM    1  C   UNL     1      25.026  47.428  50.371  1.00  0.00     0.261 C 
HETATM    2  N   UNL     1      25.091  46.575  51.464  1.00  0.00    -0.246 N 
HETATM    3  O   UNL     1      25.866  48.280  50.084  1.00  0.00    -0.269 OA
HETATM    4  H   UNL     1      24.375  45.865  51.587  1.00  0.00     0.192 HD
ENDROOT
BRANCH   2   5
HETATM    5  N   UNL     1      26.160  46.643  52.308  1.00  0.00    -0.184 NA
HETATM    6  C   UNL     1      26.157  45.831  53.313  1.00  0.00     0.153 C 
BRANCH   6   7
HETATM    7  C   UNL     1      27.261  45.849  54.256  1.00  0.00     0.018 A 
HETATM    8  C   UNL     1      28.323  44.895  54.413  1.00  0.00     0.004 A 
HETATM    9  C   UNL     1      29.142  45.345  55.448  1.00  0.00     0.043 A 
HETATM   10  C   UNL     1      28.668  43.683  53.775  1.00  0.00     0.014 A 
HETATM   11  C   UNL     1      30.281  44.651  55.876  1.00  0.00     0.030 A 
HETATM   12  N   UNL     1      28.609  46.526  55.901  1.00  0.00    -0.358 N 
HETATM   13  C   UNL     1      30.595  43.453  55.227  1.00  0.00     0.002 A 
HETATM   14  C   UNL     1      29.801  42.974  54.190  1.00  0.00     0.001 A 
HETATM   15  H   UNL     1      29.009  47.076  56.649  1.00  0.00     0.166 HD
HETATM   16  C   UNL     1      27.474  46.850  55.197  1.00  0.00     0.018 A 
HETATM   17  C   UNL     1      26.722  48.098  55.489  1.00  0.00     0.069 C 
ENDBRANCH   6   7
ENDBRANCH   2   5
BRANCH   1  18
HETATM   18  C   UNL     1      23.726  47.302  49.586  1.00  0.00     0.280 C 
BRANCH  18  19
HETATM   19  O   UNL     1      23.758  48.096  48.397  1.00  0.00    -0.342 OA
BRANCH  19  20
HETATM   20  C   UNL     1      22.755  49.030  48.400  1.00  0.00     0.069 A 
HETATM   21  C   UNL     1      23.065  50.308  48.859  1.00  0.00     0.037 A 
HETATM   22  C   UNL     1      22.079  51.299  48.885  1.00  0.00     0.009 A 
HETATM   23  C   UNL     1      20.784  51.022  48.428  1.00  0.00    -0.062 A 
HETATM   24  C   UNL     1      19.709  52.067  48.473  1.00  0.00     0.048 C 
HETATM   25  C   UNL     1      20.492  49.739  47.947  1.00  0.00     0.009 A 
HETATM   26  C   UNL     1      21.475  48.749  47.923  1.00  0.00     0.037 A 
ENDBRANCH  19  20
ENDBRANCH  18  19
ENDBRANCH   1  18
TORSDOF 5
ENDMDL
MODEL 3
REMARK VINA RESULT:      -8.9      1.539      2.124
REMARK  5 active torsions:
REMARK  status: ('A' for Active; 'I' for Inactive)
REMARK    1  A    between atoms: C_5  and  O_6 
REMARK    2  A    between atoms: O_6  and  C_7 
REMARK    3  A    between atoms: C_7  and  C_8 
REMARK       I    between atoms: C_8  and  N_9 
REMARK    4  A    between atoms: N_9  and  N_10 
REMARK    5  A    between atoms: C_11  and  C_12 
ROOT
HETATM    1  C   UNL     1      26.832  44.380  50.745  1.00  0.00     0.261 C 
HETATM    2  N   UNL     1      25.635  45.072  50.869  1.00  0.00    -0.246 N 
HETATM    3  O   UNL     1      27.681  44.580  49.877  1.00  0.00    -0.269 OA
HETATM    4  H   UNL     1      25.022  44.872  51.654  1.00  0.00     0.192 HD
ENDROOT
BRANCH   2   5
HETATM    5  N   UNL     1      25.339  46.068  49.987  1.00  0.00    -0.184 NA
HETATM    6  C   UNL     1      25.622  47.273  50.357  1.00  0.00     0.153 C 
BRANCH   6   7
HETATM    7  C   UNL     1      25.331  48.386  49.469  1.00  0.00     0.018 A 
HETATM    8  C   UNL     1      24.054  48.869  49.025  1.00  0.00     0.004 A 
HETATM    9  C   UNL     1      24.286  49.956  48.184  1.00  0.00     0.043 A 
HETATM   10  C   UNL     1      22.715  48.483  49.253  1.00  0.00     0.014 A 
HETATM   11  C   UNL     1      23.256  50.675  47.563  1.00  0.00     0.030 A 
HETATM   12  N   UNL     1      25.646  50.135  48.121  1.00  0.00    -0.358 N 
HETATM   13  C   UNL     1      21.941  50.267  47.807  1.00  0.00     0.002 A 
HETATM   14  C   UNL     1      21.671  49.187  48.641  1.00  0.00     0.001 A 
HETATM   15  H   UNL     1      26.095  50.864  47.583  1.00  0.00     0.166 HD
HETATM   16  C   UNL     1      26.297  49.199  48.888  1.00  0.00     0.018 A 
HETATM   17  C   UNL     1      27.778  49.195  48.999  1.00  0.00     0.069 C 
ENDBRANCH   6   7
ENDBRANCH   2   5
BRANCH   1  18
HETATM   18  C   UNL     1      26.969  43.232  51.737  1.00  0.00     0.280 C 
BRANCH  18  19
HETATM   19  O   UNL     1      26.649  43.653  53.066  1.00  0.00    -0.342 OA
BRANCH  19  20
HETATM   20  C   UNL     1      27.780  43.773  53.831  1.00  0.00     0.069 A 
HETATM   21  C   UNL     1      27.919  44.925  54.601  1.00  0.00     0.037 A 
HETATM   22  C   UNL     1      29.054  45.098  55.399  1.00  0.00     0.009 A 
HETATM   23  C   UNL     1      30.043  44.107  55.449  1.00  0.00    -0.062 A 
HETATM   24  C   UNL     1      31.279  44.290  56.281  1.00  0.00     0.048 C 
HETATM   25  C   UNL     1      29.879  42.942  54.688  1.00  0.00     0.009 A 
HETATM   26  C   UNL     1      28.748  42.770  53.890  1.00  0.00     0.037 A 
ENDBRANCH  19  20
ENDBRANCH  18  19
ENDBRANCH   1  18
TORSDOF 5
ENDMDL
MODEL 4
REMARK VINA RESULT:      -8.8      2.326      9.807
REMARK  5 active torsions:
REMARK  status: ('A' for Active; 'I' for Inactive)
REMARK    1  A    between atoms: C_5  and  O_6 
REMARK    2  A    between atoms: O_6  and  C_7 
REMARK    3  A    between atoms: C_7  and  C_8 
REMARK       I    between atoms: C_8  and  N_9 
REMARK    4  A    between atoms: N_9  and  N_10 
REMARK    5  A    between atoms: C_11  and  C_12 
ROOT
HETATM    1  C   UNL     1      25.732  46.426  50.109  1.00  0.00     0.261 C 
HETATM    2  N   UNL     1      25.618  45.599  51.218  1.00  0.00    -0.246 N 
HETATM    3  O   UNL     1      26.770  46.633  49.481  1.00  0.00    -0.269 OA
HETATM    4  H   UNL     1      24.704  45.448  51.636  1.00  0.00     0.192 HD
ENDROOT
BRANCH   2   5
HETATM    5  N   UNL     1      26.716  44.934  51.678  1.00  0.00    -0.184 NA
HETATM    6  C   UNL     1      26.669  44.511  52.897  1.00  0.00     0.153 C 
BRANCH   6   7
HETATM    7  C   UNL     1      27.804  43.797  53.456  1.00  0.00     0.018 A 
HETATM    8  C   UNL     1      28.746  44.243  54.445  1.00  0.00     0.004 A 
HETATM    9  C   UNL     1      29.654  43.206  54.656  1.00  0.00     0.043 A 
HETATM   10  C   UNL     1      28.918  45.435  55.182  1.00  0.00     0.014 A 
HETATM   11  C   UNL     1      30.719  43.297  55.561  1.00  0.00     0.030 A 
HETATM   12  N   UNL     1      29.281  42.169  53.837  1.00  0.00    -0.358 N 
HETATM   13  C   UNL     1      30.865  44.491  56.274  1.00  0.00     0.002 A 
HETATM   14  C   UNL     1      29.978  45.547  56.089  1.00  0.00     0.001 A 
HETATM   15  H   UNL     1      29.765  41.283  53.793  1.00  0.00     0.166 HD
HETATM   16  C   UNL     1      28.168  42.503  53.103  1.00  0.00     0.018 A 
HETATM   17  C   UNL     1      27.557  41.536  52.154  1.00  0.00     0.069 C 
ENDBRANCH   6   7
ENDBRANCH   2   5
BRANCH   1  18
HETATM   18  C   UNL     1      24.447  47.177  49.784  1.00  0.00     0.280 C 
BRANCH  18  19
HETATM   19  O   UNL     1      24.715  48.365  49.035  1.00  0.00    -0.342 OA
BRANCH  19  20
HETATM   20  C   UNL     1      23.592  49.143  48.925  1.00  0.00     0.069 A 
HETATM   21  C   UNL     1      23.759  50.464  48.518  1.00  0.00     0.037 A 
HETATM   22  C   UNL     1      22.647  51.302  48.391  1.00  0.00     0.009 A 
HETATM   23  C   UNL     1      21.360  50.814  48.646  1.00  0.00    -0.062 A 
HETATM   24  C   UNL     1      20.158  51.707  48.538  1.00  0.00     0.048 C 
HETATM   25  C   UNL     1      21.202  49.476  49.032  1.00  0.00     0.009 A 
HETATM   26  C   UNL     1      22.313  48.640  49.162  1.00  0.00     0.037 A 
ENDBRANCH  19  20
ENDBRANCH  18  19
ENDBRANCH   1  18
TORSDOF 5
ENDMDL
MODEL 5
REMARK VINA RESULT:      -8.6      1.772      2.586
REMARK  5 active torsions:
REMARK  status: ('A' for Active; 'I' for Inactive)
REMARK    1  A    between atoms: C_5  and  O_6 
REMARK    2  A    between atoms: O_6  and  C_7 
REMARK    3  A    between atoms: C_7  and  C_8 
REMARK       I    between atoms: C_8  and  N_9 
REMARK    4  A    between atoms: N_9  and  N_10 
REMARK    5  A    between atoms: C_11  and  C_12 
ROOT
HETATM    1  C   UNL     1      25.816  44.945  52.606  1.00  0.00     0.261 C 
HETATM    2  N   UNL     1      26.022  45.980  51.704  1.00  0.00    -0.246 N 
HETATM    3  O   UNL     1      24.717  44.502  52.939  1.00  0.00    -0.269 OA
HETATM    4  H   UNL     1      26.971  46.239  51.450  1.00  0.00     0.192 HD
ENDROOT
BRANCH   2   5
HETATM    5  N   UNL     1      24.951  46.577  51.109  1.00  0.00    -0.184 NA
HETATM    6  C   UNL     1      24.667  46.193  49.908  1.00  0.00     0.153 C 
BRANCH   6   7
HETATM    7  C   UNL     1      23.541  46.788  49.210  1.00  0.00     0.018 A 
HETATM    8  C   UNL     1      23.353  48.154  48.810  1.00  0.00     0.004 A 
HETATM    9  C   UNL     1      22.117  48.239  48.171  1.00  0.00     0.043 A 
HETATM   10  C   UNL     1      24.117  49.336  48.934  1.00  0.00     0.014 A 
HETATM   11  C   UNL     1      21.607  49.435  47.651  1.00  0.00     0.030 A 
HETATM   12  N   UNL     1      21.574  46.978  48.173  1.00  0.00    -0.358 N 
HETATM   13  C   UNL     1      22.385  50.589  47.791  1.00  0.00     0.002 A 
HETATM   14  C   UNL     1      23.623  50.542  48.423  1.00  0.00     0.001 A 
HETATM   15  H   UNL     1      20.678  46.748  47.765  1.00  0.00     0.166 HD
HETATM   16  C   UNL     1      22.415  46.086  48.796  1.00  0.00     0.018 A 
HETATM   17  C   UNL     1      22.058  44.648  48.909  1.00  0.00     0.069 C 
ENDBRANCH   6   7
ENDBRANCH   2   5
BRANCH   1  18
HETATM   18  C   UNL     1      27.100  44.454  53.263  1.00  0.00     0.280 C 
BRANCH  18  19
HETATM   19  O   UNL     1      27.761  45.511  53.965  1.00  0.00    -0.342 OA
BRANCH  19  20
HETATM   20  C   UNL     1      28.781  45.025  54.741  1.00  0.00     0.069 A 
HETATM   21  C   UNL     1      29.281  43.763  54.432  1.00  0.00     0.037 A 
HETATM   22  C   UNL     1      30.321  43.219  55.192  1.00  0.00     0.009 A 
HETATM   23  C   UNL     1      30.882  43.947  56.249  1.00  0.00    -0.062 A 
HETATM   24  C   UNL     1      31.982  43.366  57.089  1.00  0.00     0.048 C 
HETATM   25  C   UNL     1      30.386  45.226  56.534  1.00  0.00     0.009 A 
HETATM   26  C   UNL     1      29.346  45.768  55.777  1.00  0.00     0.037 A 
ENDBRANCH  19  20
ENDBRANCH  18  19
ENDBRANCH   1  18
TORSDOF 5
ENDMDL
MODEL 6
REMARK VINA RESULT:      -8.5      2.912      9.659
REMARK  5 active torsions:
REMARK  status: ('A' for Active; 'I' for Inactive)
REMARK    1  A    between atoms: C_5  and  O_6 
REMARK    2  A    between atoms: O_6  and  C_7 
REMARK    3  A    between atoms: C_7  and  C_8 
REMARK       I    between atoms: C_8  and  N_9 
REMARK    4  A    between atoms: N_9  and  N_10 
REMARK    5  A    between atoms: C_11  and  C_12 
ROOT
HETATM    1  C   UNL     1      24.233  48.671  49.176  1.00  0.00     0.261 C 
HETATM    2  N   UNL     1      23.950  47.873  50.276  1.00  0.00    -0.246 N 
HETATM    3  O   UNL     1      25.357  49.041  48.837  1.00  0.00    -0.269 OA
HETATM    4  H   UNL     1      22.994  47.574  50.442  1.00  0.00     0.192 HD
ENDROOT
BRANCH   2   5
HETATM    5  N   UNL     1      24.969  47.431  51.067  1.00  0.00    -0.184 NA
HETATM    6  C   UNL     1      24.931  46.189  51.420  1.00  0.00     0.153 C 
BRANCH   6   7
HETATM    7  C   UNL     1      25.982  45.649  52.264  1.00  0.00     0.018 A 
HETATM    8  C   UNL     1      26.564  46.219  53.447  1.00  0.00     0.004 A 
HETATM    9  C   UNL     1      27.535  45.330  53.908  1.00  0.00     0.043 A 
HETATM   10  C   UNL     1      26.362  47.413  54.174  1.00  0.00     0.014 A 
HETATM   11  C   UNL     1      28.310  45.571  55.050  1.00  0.00     0.030 A 
HETATM   12  N   UNL     1      27.543  44.260  53.048  1.00  0.00    -0.358 N 
HETATM   13  C   UNL     1      28.088  46.763  55.746  1.00  0.00     0.002 A 
HETATM   14  C   UNL     1      27.127  47.673  55.317  1.00  0.00     0.001 A 
HETATM   15  H   UNL     1      28.151  43.459  53.150  1.00  0.00     0.166 HD
HETATM   16  C   UNL     1      26.615  44.430  52.048  1.00  0.00     0.018 A 
HETATM   17  C   UNL     1      26.419  43.395  51.001  1.00  0.00     0.069 C 
ENDBRANCH   6   7
ENDBRANCH   2   5
BRANCH   1  18
HETATM   18  C   UNL     1      22.985  49.168  48.456  1.00  0.00     0.280 C 
BRANCH  18  19
HETATM   19  O   UNL     1      21.801  48.588  49.010  1.00  0.00    -0.342 OA
BRANCH  19  20
HETATM   20  C   UNL     1      20.822  49.533  49.181  1.00  0.00     0.069 A 
HETATM   21  C   UNL     1      20.985  50.753  48.529  1.00  0.00     0.037 A 
HETATM   22  C   UNL     1      20.017  51.753  48.669  1.00  0.00     0.009 A 
HETATM   23  C   UNL     1      18.871  51.527  49.442  1.00  0.00    -0.062 A 
HETATM   24  C   UNL     1      17.836  52.599  49.622  1.00  0.00     0.048 C 
HETATM   25  C   UNL     1      18.709  50.286  50.073  1.00  0.00     0.009 A 
HETATM   26  C   UNL     1      19.675  49.289  49.935  1.00  0.00     0.037 A 
ENDBRANCH  19  20
ENDBRANCH  18  19
ENDBRANCH   1  18
TORSDOF 5
ENDMDL
MODEL 7
REMARK VINA RESULT:      -8.1      3.018      9.733
REMARK  5 active torsions:
REMARK  status: ('A' for Active; 'I' for Inactive)
REMARK    1  A    between atoms: C_5  and  O_6 
REMARK    2  A    between atoms: O_6  and  C_7 
REMARK    3  A    between atoms: C_7  and  C_8 
REMARK       I    between atoms: C_8  and  N_9 
REMARK    4  A    between atoms: N_9  and  N_10 
REMARK    5  A    between atoms: C_11  and  C_12 
ROOT
HETATM    1  C   UNL     1      24.209  47.457  50.025  1.00  0.00     0.261 C 
HETATM    2  N   UNL     1      23.920  46.100  50.055  1.00  0.00    -0.246 N 
HETATM    3  O   UNL     1      25.143  47.998  50.615  1.00  0.00    -0.269 OA
HETATM    4  H   UNL     1      23.158  45.739  49.489  1.00  0.00     0.192 HD
ENDROOT
BRANCH   2   5
HETATM    5  N   UNL     1      24.715  45.259  50.776  1.00  0.00    -0.184 NA
HETATM    6  C   UNL     1      25.829  44.903  50.228  1.00  0.00     0.153 C 
BRANCH   6   7
HETATM    7  C   UNL     1      26.725  44.006  50.937  1.00  0.00     0.018 A 
HETATM    8  C   UNL     1      27.319  44.171  52.234  1.00  0.00     0.004 A 
HETATM    9  C   UNL     1      28.103  43.045  52.483  1.00  0.00     0.043 A 
HETATM   10  C   UNL     1      27.270  45.176  53.225  1.00  0.00     0.014 A 
HETATM   11  C   UNL     1      28.836  42.872  53.665  1.00  0.00     0.030 A 
HETATM   12  N   UNL     1      27.989  42.224  51.389  1.00  0.00    -0.358 N 
HETATM   13  C   UNL     1      28.768  43.885  54.626  1.00  0.00     0.002 A 
HETATM   14  C   UNL     1      27.996  45.022  54.412  1.00  0.00     0.001 A 
HETATM   15  H   UNL     1      28.452  41.329  51.305  1.00  0.00     0.166 HD
HETATM   16  C   UNL     1      27.164  42.782  50.443  1.00  0.00     0.018 A 
HETATM   17  C   UNL     1      26.866  42.074  49.172  1.00  0.00     0.069 C 
ENDBRANCH   6   7
ENDBRANCH   2   5
BRANCH   1  18
HETATM   18  C   UNL     1      23.172  48.276  49.265  1.00  0.00     0.280 C 
BRANCH  18  19
HETATM   19  O   UNL     1      23.109  49.618  49.757  1.00  0.00    -0.342 OA
BRANCH  19  20
HETATM   20  C   UNL     1      21.963  50.243  49.337  1.00  0.00     0.069 A 
HETATM   21  C   UNL     1      21.629  50.139  47.989  1.00  0.00     0.037 A 
HETATM   22  C   UNL     1      20.471  50.758  47.508  1.00  0.00     0.009 A 
HETATM   23  C   UNL     1      19.630  51.463  48.378  1.00  0.00    -0.062 A 
HETATM   24  C   UNL     1      18.397  52.153  47.872  1.00  0.00     0.048 C 
HETATM   25  C   UNL     1      19.966  51.540  49.737  1.00  0.00     0.009 A 
HETATM   26  C   UNL     1      21.122  50.924  50.217  1.00  0.00     0.037 A 
ENDBRANCH  19  20
ENDBRANCH  18  19
ENDBRANCH   1  18
TORSDOF 5
ENDMDL
MODEL 8
REMARK VINA RESULT:      -8.1      2.529      8.978
REMARK  5 active torsions:
REMARK  status: ('A' for Active; 'I' for Inactive)
REMARK    1  A    between atoms: C_5  and  O_6 
REMARK    2  A    between atoms: O_6  and  C_7 
REMARK    3  A    between atoms: C_7  and  C_8 
REMARK       I    between atoms: C_8  and  N_9 
REMARK    4  A    between atoms: N_9  and  N_10 
REMARK    5  A    between atoms: C_11  and  C_12 
ROOT
HETATM    1  C   UNL     1      24.727  44.167  51.054  1.00  0.00     0.261 C 
HETATM    2  N   UNL     1      24.610  44.929  52.208  1.00  0.00    -0.246 N 
HETATM    3  O   UNL     1      25.659  43.406  50.796  1.00  0.00    -0.269 OA
HETATM    4  H   UNL     1      23.773  45.486  52.356  1.00  0.00     0.192 HD
ENDROOT
BRANCH   2   5
HETATM    5  N   UNL     1      25.578  44.853  53.165  1.00  0.00    -0.184 NA
HETATM    6  C   UNL     1      26.369  45.869  53.271  1.00  0.00     0.153 C 
BRANCH   6   7
HETATM    7  C   UNL     1      27.426  45.857  54.267  1.00  0.00     0.018 A 
HETATM    8  C   UNL     1      28.480  44.899  54.445  1.00  0.00     0.004 A 
HETATM    9  C   UNL     1      29.247  45.315  55.533  1.00  0.00     0.043 A 
HETATM   10  C   UNL     1      28.857  43.708  53.786  1.00  0.00     0.014 A 
HETATM   11  C   UNL     1      30.365  44.608  55.994  1.00  0.00     0.030 A 
HETATM   12  N   UNL     1      28.690  46.481  55.997  1.00  0.00    -0.358 N 
HETATM   13  C   UNL     1      30.712  43.432  55.323  1.00  0.00     0.002 A 
HETATM   14  C   UNL     1      29.970  42.986  54.233  1.00  0.00     0.001 A 
HETATM   15  H   UNL     1      29.052  47.006  56.781  1.00  0.00     0.166 HD
HETATM   16  C   UNL     1      27.590  46.827  55.250  1.00  0.00     0.018 A 
HETATM   17  C   UNL     1      26.822  48.065  55.544  1.00  0.00     0.069 C 
ENDBRANCH   6   7
ENDBRANCH   2   5
BRANCH   1  18
HETATM   18  C   UNL     1      23.624  44.440  50.039  1.00  0.00     0.280 C 
BRANCH  18  19
HETATM   19  O   UNL     1      24.111  45.211  48.937  1.00  0.00    -0.342 OA
BRANCH  19  20
HETATM   20  C   UNL     1      23.544  46.459  48.919  1.00  0.00     0.069 A 
HETATM   21  C   UNL     1      22.329  46.605  48.253  1.00  0.00     0.037 A 
HETATM   22  C   UNL     1      21.707  47.856  48.204  1.00  0.00     0.009 A 
HETATM   23  C   UNL     1      22.285  48.961  48.843  1.00  0.00    -0.062 A 
HETATM   24  C   UNL     1      21.642  50.315  48.778  1.00  0.00     0.048 C 
HETATM   25  C   UNL     1      23.495  48.795  49.529  1.00  0.00     0.009 A 
HETATM   26  C   UNL     1      24.118  47.546  49.577  1.00  0.00     0.037 A 
ENDBRANCH  19  20
ENDBRANCH  18  19
ENDBRANCH   1  18
TORSDOF 5
ENDMDL
MODEL 9
REMARK VINA RESULT:      -8.0      2.850      9.843
REMARK  5 active torsions:
REMARK  status: ('A' for Active; 'I' for Inactive)
REMARK    1  A    between atoms: C_5  and  O_6 
REMARK    2  A    between atoms: O_6  and  C_7 
REMARK    3  A    between atoms: C_7  and  C_8 
REMARK       I    between atoms: C_8  and  N_9 
REMARK    4  A    between atoms: N_9  and  N_10 
REMARK    5  A    between atoms: C_11  and  C_12 
ROOT
HETATM    1  C   UNL     1      23.563  47.117  49.249  1.00  0.00     0.261 C 
HETATM    2  N   UNL     1      24.495  47.642  50.134  1.00  0.00    -0.246 N 
HETATM    3  O   UNL     1      23.487  45.935  48.916  1.00  0.00    -0.269 OA
HETATM    4  H   UNL     1      24.442  48.624  50.390  1.00  0.00     0.192 HD
ENDROOT
BRANCH   2   5
HETATM    5  N   UNL     1      25.414  46.817  50.711  1.00  0.00    -0.184 NA
HETATM    6  C   UNL     1      25.125  46.358  51.883  1.00  0.00     0.153 C 
BRANCH   6   7
HETATM    7  C   UNL     1      26.059  45.475  52.560  1.00  0.00     0.018 A 
HETATM    8  C   UNL     1      26.980  45.784  53.618  1.00  0.00     0.004 A 
HETATM    9  C   UNL     1      27.662  44.611  53.937  1.00  0.00     0.043 A 
HETATM   10  C   UNL     1      27.306  46.956  54.336  1.00  0.00     0.014 A 
HETATM   11  C   UNL     1      28.646  44.546  54.932  1.00  0.00     0.030 A 
HETATM   12  N   UNL     1      27.175  43.624  53.116  1.00  0.00    -0.358 N 
HETATM   13  C   UNL     1      28.948  45.723  55.624  1.00  0.00     0.002 A 
HETATM   14  C   UNL     1      28.288  46.913  55.333  1.00  0.00     0.001 A 
HETATM   15  H   UNL     1      27.491  42.664  53.138  1.00  0.00     0.166 HD
HETATM   16  C   UNL     1      26.208  44.122  52.276  1.00  0.00     0.018 A 
HETATM   17  C   UNL     1      25.513  43.243  51.301  1.00  0.00     0.069 C 
ENDBRANCH   6   7
ENDBRANCH   2   5
BRANCH   1  18
HETATM   18  C   UNL     1      22.675  48.179  48.611  1.00  0.00     0.280 C 
BRANCH  18  19
HETATM   19  O   UNL     1      22.732  49.409  49.338  1.00  0.00    -0.342 OA
BRANCH  19  20
HETATM   20  C   UNL     1      21.606  50.161  49.125  1.00  0.00     0.069 A 
HETATM   21  C   UNL     1      21.006  50.753  50.233  1.00  0.00     0.037 A 
HETATM   22  C   UNL     1      19.854  51.529  50.072  1.00  0.00     0.009 A 
HETATM   23  C   UNL     1      19.312  51.737  48.798  1.00  0.00    -0.062 A 
HETATM   24  C   UNL     1      18.063  52.547  48.611  1.00  0.00     0.048 C 
HETATM   25  C   UNL     1      19.939  51.155  47.688  1.00  0.00     0.009 A 
HETATM   26  C   UNL     1      21.088  50.378  47.848  1.00  0.00     0.037 A 
ENDBRANCH  19  20
ENDBRANCH  18  19
ENDBRANCH   1  18
TORSDOF 5
ENDMDL
MODEL 10
REMARK VINA RESULT:      -7.9      3.055      5.064
REMARK  5 active torsions:
REMARK  status: ('A' for Active; 'I' for Inactive)
REMARK    1  A    between atoms: C_5  and  O_6 
REMARK    2  A    between atoms: O_6  and  C_7 
REMARK    3  A    between atoms: C_7  and  C_8 
REMARK       I    between atoms: C_8  and  N_9 
REMARK    4  A    between atoms: N_9  and  N_10 
REMARK    5  A    between atoms: C_11  and  C_12 
ROOT
HETATM    1  C   UNL     1      24.221  47.798  49.903  1.00  0.00     0.261 C 
HETATM    2  N   UNL     1      23.060  47.210  49.419  1.00  0.00    -0.246 N 
HETATM    3  O   UNL     1      24.642  48.909  49.582  1.00  0.00    -0.269 OA
HETATM    4  H   UNL     1      22.765  46.311  49.787  1.00  0.00     0.192 HD
ENDROOT
BRANCH   2   5
HETATM    5  N   UNL     1      22.287  47.886  48.522  1.00  0.00    -0.184 NA
HETATM    6  C   UNL     1      21.020  47.931  48.767  1.00  0.00     0.153 C 
BRANCH   6   7
HETATM    7  C   UNL     1      20.135  48.631  47.853  1.00  0.00     0.018 A 
HETATM    8  C   UNL     1      19.663  49.986  47.922  1.00  0.00     0.004 A 
HETATM    9  C   UNL     1      18.836  50.200  46.819  1.00  0.00     0.043 A 
HETATM   10  C   UNL     1      19.855  51.057  48.822  1.00  0.00     0.014 A 
HETATM   11  C   UNL     1      18.197  51.421  46.570  1.00  0.00     0.030 A 
HETATM   12  N   UNL     1      18.809  49.029  46.103  1.00  0.00    -0.358 N 
HETATM   13  C   UNL     1      18.405  52.461  47.480  1.00  0.00     0.002 A 
HETATM   14  C   UNL     1      19.223  52.284  48.592  1.00  0.00     0.001 A 
HETATM   15  H   UNL     1      18.288  48.904  45.245  1.00  0.00     0.166 HD
HETATM   16  C   UNL     1      19.583  48.068  46.707  1.00  0.00     0.018 A 
HETATM   17  C   UNL     1      19.730  46.715  46.111  1.00  0.00     0.069 C 
ENDBRANCH   6   7
ENDBRANCH   2   5
BRANCH   1  18
HETATM   18  C   UNL     1      25.026  46.878  50.813  1.00  0.00     0.280 C 
BRANCH  18  19
HETATM   19  O   UNL     1      25.158  47.433  52.125  1.00  0.00    -0.342 OA
BRANCH  19  20
HETATM   20  C   UNL     1      26.099  46.753  52.855  1.00  0.00     0.069 A 
HETATM   21  C   UNL     1      26.634  47.392  53.971  1.00  0.00     0.037 A 
HETATM   22  C   UNL     1      27.597  46.744  54.750  1.00  0.00     0.009 A 
HETATM   23  C   UNL     1      28.012  45.446  54.430  1.00  0.00    -0.062 A 
HETATM   24  C   UNL     1      29.064  44.747  55.242  1.00  0.00     0.048 C 
HETATM   25  C   UNL     1      27.449  44.805  53.318  1.00  0.00     0.009 A 
HETATM   26  C   UNL     1      26.489  45.452  52.538  1.00  0.00     0.037 A 
ENDBRANCH  19  20
ENDBRANCH  18  19
ENDBRANCH   1  18
TORSDOF 5
ENDMDL
