MODEL 1
REMARK VINA RESULT:     -10.0      0.000      0.000
REMARK  8 active torsions:
REMARK  status: ('A' for Active; 'I' for Inactive)
REMARK    1  A    between atoms: C_2  and  C_3 
REMARK    2  A    between atoms: C_3  and  N_4 
REMARK    3  A    between atoms: C_12  and  C_13 
REMARK    4  A    between atoms: C_13  and  N_14 
REMARK    5  A    between atoms: C_22  and  C_23 
REMARK    6  A    between atoms: C_23  and  C_24 
REMARK    7  A    between atoms: C_24  and  N_25 
REMARK       I    between atoms: N_25  and  C_26 
REMARK    8  A    between atoms: C_26  and  C_27 
ROOT
HETATM    1  N   UNL     1      25.348  46.255  50.548  1.00  0.00    -0.065 N 
HETATM    2  H   UNL     1      25.885  45.463  50.165  1.00  0.00     0.280 HD
HETATM    3  C   UNL     1      24.238  46.525  49.534  1.00  0.00     0.255 C 
HETATM    4  C   UNL     1      23.704  47.950  49.595  1.00  0.00     0.159 C 
HETATM    5  N   UNL     1      24.507  48.874  48.825  1.00  0.00    -0.319 N 
HETATM    6  C   UNL     1      25.881  48.907  48.764  1.00  0.00     0.131 A 
HETATM    7  C   UNL     1      26.835  47.960  49.406  1.00  0.00     0.108 C 
HETATM    8  C   UNL     1      26.356  47.390  50.733  1.00  0.00     0.243 C 
HETATM    9  C   UNL     1      24.064  49.879  47.999  1.00  0.00     0.131 A 
HETATM   10  N   UNL     1      25.114  50.511  47.518  1.00  0.00    -0.135 NA
HETATM   11  N   UNL     1      26.242  49.899  47.985  1.00  0.00    -0.135 NA
ENDROOT
BRANCH   1  12
HETATM   12  C   UNL     1      24.844  45.762  51.895  1.00  0.00     0.280 C 
BRANCH  12  13
HETATM   13  C   UNL     1      25.929  45.422  52.880  1.00  0.00     0.009 A 
HETATM   14  S   UNL     1      27.304  44.512  52.406  1.00  0.00    -0.096 SA
HETATM   15  C   UNL     1      28.033  44.644  53.957  1.00  0.00     0.009 A 
HETATM   16  C   UNL     1      27.227  45.358  54.822  1.00  0.00     0.017 A 
HETATM   17  C   UNL     1      26.015  45.796  54.207  1.00  0.00     0.017 A 
BRANCH  15  18
HETATM   18  C   UNL     1      29.401  44.064  54.200  1.00  0.00     0.280 C 
BRANCH  18  19
HETATM   19  N   UNL     1      29.835  44.099  55.652  1.00  0.00    -0.067 N 
HETATM   20  H   UNL     1      29.048  43.740  56.205  1.00  0.00     0.280 HD
HETATM   21  C   UNL     1      31.034  43.221  55.929  1.00  0.00     0.235 C 
HETATM   22  C   UNL     1      31.326  43.216  57.423  1.00  0.00     0.028 C 
HETATM   23  C   UNL     1      31.541  44.626  57.958  1.00  0.00     0.003 C 
HETATM   24  C   UNL     1      30.367  45.532  57.607  1.00  0.00     0.028 C 
HETATM   25  C   UNL     1      30.074  45.524  56.114  1.00  0.00     0.235 C 
ENDBRANCH  18  19
ENDBRANCH  15  18
ENDBRANCH  12  13
ENDBRANCH   1  12
BRANCH   9  26
HETATM   26  C   UNL     1      22.644  50.202  47.680  1.00  0.00     0.100 C 
BRANCH  26  27
HETATM   27  C   UNL     1      22.082  51.333  48.546  1.00  0.00     0.130 C 
BRANCH  27  28
HETATM   28  N   UNL     1      20.881  51.063  49.329  1.00  0.00    -0.360 N 
HETATM   29  C   UNL     1      19.640  51.624  49.144  1.00  0.00     0.222 C 
HETATM   30  O   UNL     1      19.418  52.567  48.387  1.00  0.00    -0.273 OA
HETATM   31  H   UNL     1      20.941  50.248  49.930  1.00  0.00     0.162 HD
BRANCH  29  32
HETATM   32  C   UNL     1      18.557  50.995  50.028  1.00  0.00     0.082 C 
HETATM   33  C   UNL     1      17.234  50.851  49.270  1.00  0.00     0.040 C 
HETATM   34  C   UNL     1      17.317  49.737  48.236  1.00  0.00     0.168 C 
HETATM   35  O   UNL     1      17.697  48.495  48.830  1.00  0.00    -0.391 OA
HETATM   36  C   UNL     1      18.944  48.546  49.513  1.00  0.00     0.168 C 
HETATM   37  C   UNL     1      18.983  49.632  50.580  1.00  0.00     0.040 C 
ENDBRANCH  29  32
ENDBRANCH  27  28
ENDBRANCH  26  27
ENDBRANCH   9  26
TORSDOF 8
ENDMDL
MODEL 2
REMARK VINA RESULT:      -9.6      1.643      2.172
REMARK  8 active torsions:
REMARK  status: ('A' for Active; 'I' for Inactive)
REMARK    1  A    between atoms: C_2  and  C_3 
REMARK    2  A    between atoms: C_3  and  N_4 
REMARK    3  A    between atoms: C_12  and  C_13 
REMARK    4  A    between atoms: C_13  and  N_14 
REMARK    5  A    between atoms: C_22  and  C_23 
REMARK    6  A    between atoms: C_23  and  C_24 
REMARK    7  A    between atoms: C_24  and  N_25 
REMARK       I    between atoms: N_25  and  C_26 
REMARK    8  A    between atoms: C_26  and  C_27 
ROOT
HETATM    1  N   UNL     1      25.561  45.078  50.350  1.00  0.00    -0.065 N 
HETATM    2  H   UNL     1      26.537  44.995  50.029  1.00  0.00     0.280 HD
HETATM    3  C   UNL     1      24.710  45.051  49.083  1.00  0.00     0.255 C 
HETATM    4  C   UNL     1      23.349  45.714  49.260  1.00  0.00     0.159 C 
HETATM    5  N   UNL     1      23.406  47.148  49.082  1.00  0.00    -0.319 N 
HETATM    6  C   UNL     1      24.387  47.991  49.553  1.00  0.00     0.131 A 
HETATM    7  C   UNL     1      25.633  47.610  50.274  1.00  0.00     0.108 C 
HETATM    8  C   UNL     1      25.498  46.377  51.155  1.00  0.00     0.243 C 
HETATM    9  C   UNL     1      22.516  47.943  48.402  1.00  0.00     0.131 A 
HETATM   10  N   UNL     1      22.911  49.193  48.511  1.00  0.00    -0.135 NA
HETATM   11  N   UNL     1      24.080  49.221  49.216  1.00  0.00    -0.135 NA
ENDROOT
BRANCH   1  12
HETATM   12  C   UNL     1      25.352  43.876  51.256  1.00  0.00     0.280 C 
BRANCH  12  13
HETATM   13  C   UNL     1      26.303  43.798  52.419  1.00  0.00     0.009 A 
HETATM   14  S   UNL     1      28.000  43.724  52.174  1.00  0.00    -0.096 SA
HETATM   15  C   UNL     1      28.332  43.757  53.859  1.00  0.00     0.009 A 
HETATM   16  C   UNL     1      27.163  43.808  54.592  1.00  0.00     0.017 A 
HETATM   17  C   UNL     1      25.998  43.821  53.765  1.00  0.00     0.017 A 
BRANCH  15  18
HETATM   18  C   UNL     1      29.756  43.784  54.347  1.00  0.00     0.280 C 
BRANCH  18  19
HETATM   19  N   UNL     1      29.901  44.187  55.802  1.00  0.00    -0.067 N 
HETATM   20  H   UNL     1      29.168  43.690  56.321  1.00  0.00     0.280 HD
HETATM   21  C   UNL     1      31.236  43.792  56.392  1.00  0.00     0.235 C 
HETATM   22  C   UNL     1      31.251  44.119  57.878  1.00  0.00     0.028 C 
HETATM   23  C   UNL     1      30.949  45.591  58.133  1.00  0.00     0.003 C 
HETATM   24  C   UNL     1      29.643  46.008  57.467  1.00  0.00     0.028 C 
HETATM   25  C   UNL     1      29.631  45.668  55.984  1.00  0.00     0.235 C 
ENDBRANCH  18  19
ENDBRANCH  15  18
ENDBRANCH  12  13
ENDBRANCH   1  12
BRANCH   9  26
HETATM   26  C   UNL     1      21.311  47.482  47.654  1.00  0.00     0.100 C 
BRANCH  26  27
HETATM   27  C   UNL     1      19.999  47.910  48.316  1.00  0.00     0.130 C 
BRANCH  27  28
HETATM   28  N   UNL     1      19.652  49.327  48.294  1.00  0.00    -0.360 N 
HETATM   29  C   UNL     1      19.227  50.082  49.361  1.00  0.00     0.222 C 
HETATM   30  O   UNL     1      18.921  49.615  50.455  1.00  0.00    -0.273 OA
HETATM   31  H   UNL     1      19.940  49.821  47.456  1.00  0.00     0.162 HD
BRANCH  29  32
HETATM   32  C   UNL     1      19.112  51.576  49.033  1.00  0.00     0.082 C 
HETATM   33  C   UNL     1      18.660  51.795  47.586  1.00  0.00     0.040 C 
HETATM   34  C   UNL     1      17.189  51.440  47.415  1.00  0.00     0.168 C 
HETATM   35  O   UNL     1      16.363  52.175  48.320  1.00  0.00    -0.391 OA
HETATM   36  C   UNL     1      16.700  51.979  49.688  1.00  0.00     0.168 C 
HETATM   37  C   UNL     1      18.158  52.303  49.984  1.00  0.00     0.040 C 
ENDBRANCH  29  32
ENDBRANCH  27  28
ENDBRANCH  26  27
ENDBRANCH   9  26
TORSDOF 8
ENDMDL
MODEL 3
REMARK VINA RESULT:      -9.2      4.945     11.345
REMARK  8 active torsions:
REMARK  status: ('A' for Active; 'I' for Inactive)
REMARK    1  A    between atoms: C_2  and  C_3 
REMARK    2  A    between atoms: C_3  and  N_4 
REMARK    3  A    between atoms: C_12  and  C_13 
REMARK    4  A    between atoms: C_13  and  N_14 
REMARK    5  A    between atoms: C_22  and  C_23 
REMARK    6  A    between atoms: C_23  and  C_24 
REMARK    7  A    between atoms: C_24  and  N_25 
REMARK       I    between atoms: N_25  and  C_26 
REMARK    8  A    between atoms: C_26  and  C_27 
ROOT
HETATM    1  N   UNL     1      25.422  45.570  51.338  1.00  0.00    -0.065 N 
HETATM    2  H   UNL     1      24.438  45.482  51.632  1.00  0.00     0.280 HD
HETATM    3  C   UNL     1      26.001  44.159  51.417  1.00  0.00     0.255 C 
HETATM    4  C   UNL     1      27.515  44.141  51.581  1.00  0.00     0.159 C 
HETATM    5  N   UNL     1      27.922  44.286  52.962  1.00  0.00    -0.319 N 
HETATM    6  C   UNL     1      27.374  45.145  53.888  1.00  0.00     0.131 A 
HETATM    7  C   UNL     1      26.204  46.046  53.700  1.00  0.00     0.108 C 
HETATM    8  C   UNL     1      26.051  46.590  52.288  1.00  0.00     0.243 C 
HETATM    9  C   UNL     1      28.910  43.595  53.620  1.00  0.00     0.131 A 
HETATM   10  N   UNL     1      28.986  44.055  54.851  1.00  0.00    -0.135 NA
HETATM   11  N   UNL     1      28.024  45.009  55.020  1.00  0.00    -0.135 NA
ENDROOT
BRANCH   1  12
HETATM   12  C   UNL     1      25.351  46.128  49.925  1.00  0.00     0.280 C 
BRANCH  12  13
HETATM   13  C   UNL     1      23.959  46.225  49.362  1.00  0.00     0.009 A 
HETATM   14  S   UNL     1      23.225  47.747  49.070  1.00  0.00    -0.096 SA
HETATM   15  C   UNL     1      21.815  47.035  48.395  1.00  0.00     0.009 A 
HETATM   16  C   UNL     1      21.902  45.656  48.411  1.00  0.00     0.017 A 
HETATM   17  C   UNL     1      23.129  45.192  48.975  1.00  0.00     0.017 A 
BRANCH  15  18
HETATM   18  C   UNL     1      20.720  47.907  47.839  1.00  0.00     0.280 C 
BRANCH  18  19
HETATM   19  N   UNL     1      20.522  49.205  48.597  1.00  0.00    -0.067 N 
HETATM   20  H   UNL     1      21.368  49.352  49.160  1.00  0.00     0.280 HD
HETATM   21  C   UNL     1      20.360  50.400  47.686  1.00  0.00     0.235 C 
HETATM   22  C   UNL     1      20.291  51.670  48.520  1.00  0.00     0.028 C 
HETATM   23  C   UNL     1      19.170  51.607  49.551  1.00  0.00     0.003 C 
HETATM   24  C   UNL     1      19.289  50.358  50.416  1.00  0.00     0.028 C 
HETATM   25  C   UNL     1      19.367  49.093  49.575  1.00  0.00     0.235 C 
ENDBRANCH  18  19
ENDBRANCH  15  18
ENDBRANCH  12  13
ENDBRANCH   1  12
BRANCH   9  26
HETATM   26  C   UNL     1      29.751  42.500  53.055  1.00  0.00     0.100 C 
BRANCH  26  27
HETATM   27  C   UNL     1      28.964  41.212  52.806  1.00  0.00     0.130 C 
BRANCH  27  28
HETATM   28  N   UNL     1      29.087  40.576  51.498  1.00  0.00    -0.360 N 
HETATM   29  C   UNL     1      28.103  40.467  50.546  1.00  0.00     0.222 C 
HETATM   30  O   UNL     1      26.923  40.748  50.741  1.00  0.00    -0.273 OA
HETATM   31  H   UNL     1      30.040  40.378  51.212  1.00  0.00     0.162 HD
BRANCH  29  32
HETATM   32  C   UNL     1      28.613  39.895  49.217  1.00  0.00     0.082 C 
HETATM   33  C   UNL     1      29.397  38.597  49.434  1.00  0.00     0.040 C 
HETATM   34  C   UNL     1      28.463  37.451  49.798  1.00  0.00     0.168 C 
HETATM   35  O   UNL     1      27.446  37.268  48.813  1.00  0.00    -0.391 OA
HETATM   36  C   UNL     1      26.647  38.425  48.595  1.00  0.00     0.168 C 
HETATM   37  C   UNL     1      27.475  39.647  48.223  1.00  0.00     0.040 C 
ENDBRANCH  29  32
ENDBRANCH  27  28
ENDBRANCH  26  27
ENDBRANCH   9  26
TORSDOF 8
ENDMDL
MODEL 4
REMARK VINA RESULT:      -9.1      4.390     10.768
REMARK  8 active torsions:
REMARK  status: ('A' for Active; 'I' for Inactive)
REMARK    1  A    between atoms: C_2  and  C_3 
REMARK    2  A    between atoms: C_3  and  N_4 
REMARK    3  A    between atoms: C_12  and  C_13 
REMARK    4  A    between atoms: C_13  and  N_14 
REMARK    5  A    between atoms: C_22  and  C_23 
REMARK    6  A    between atoms: C_23  and  C_24 
REMARK    7  A    between atoms: C_24  and  N_25 
REMARK       I    between atoms: N_25  and  C_26 
REMARK    8  A    between atoms: C_26  and  C_27 
ROOT
HETATM    1  N   UNL     1      25.331  46.225  51.552  1.00  0.00    -0.065 N 
HETATM    2  H   UNL     1      24.346  46.272  51.851  1.00  0.00     0.280 HD
HETATM    3  C   UNL     1      25.704  44.745  51.598  1.00  0.00     0.255 C 
HETATM    4  C   UNL     1      27.201  44.508  51.753  1.00  0.00     0.159 C 
HETATM    5  N   UNL     1      27.630  44.566  53.133  1.00  0.00    -0.319 N 
HETATM    6  C   UNL     1      27.214  45.474  54.080  1.00  0.00     0.131 A 
HETATM    7  C   UNL     1      26.183  46.536  53.918  1.00  0.00     0.108 C 
HETATM    8  C   UNL     1      26.103  47.126  52.518  1.00  0.00     0.243 C 
HETATM    9  C   UNL     1      28.512  43.728  53.770  1.00  0.00     0.131 A 
HETATM   10  N   UNL     1      28.658  44.147  55.010  1.00  0.00    -0.135 NA
HETATM   11  N   UNL     1      27.842  45.224  55.204  1.00  0.00    -0.135 NA
ENDROOT
BRANCH   1  12
HETATM   12  C   UNL     1      25.335  46.816  50.151  1.00  0.00     0.280 C 
BRANCH  12  13
HETATM   13  C   UNL     1      23.986  46.852  49.486  1.00  0.00     0.009 A 
HETATM   14  S   UNL     1      23.211  48.341  49.133  1.00  0.00    -0.096 SA
HETATM   15  C   UNL     1      21.886  47.568  48.359  1.00  0.00     0.009 A 
HETATM   16  C   UNL     1      22.031  46.194  48.388  1.00  0.00     0.017 A 
HETATM   17  C   UNL     1      23.231  45.784  49.044  1.00  0.00     0.017 A 
BRANCH  15  18
HETATM   18  C   UNL     1      20.800  48.391  47.719  1.00  0.00     0.280 C 
BRANCH  18  19
HETATM   19  N   UNL     1      20.387  49.603  48.531  1.00  0.00    -0.067 N 
HETATM   20  H   UNL     1      21.192  49.857  49.115  1.00  0.00     0.280 HD
HETATM   21  C   UNL     1      20.043  50.798  47.671  1.00  0.00     0.235 C 
HETATM   22  C   UNL     1      19.762  52.001  48.561  1.00  0.00     0.028 C 
HETATM   23  C   UNL     1      18.655  51.709  49.567  1.00  0.00     0.003 C 
HETATM   24  C   UNL     1      18.965  50.457  50.378  1.00  0.00     0.028 C 
HETATM   25  C   UNL     1      19.255  49.261  49.482  1.00  0.00     0.235 C 
ENDBRANCH  18  19
ENDBRANCH  15  18
ENDBRANCH  12  13
ENDBRANCH   1  12
BRANCH   9  26
HETATM   26  C   UNL     1      29.187  42.537  53.179  1.00  0.00     0.100 C 
BRANCH  26  27
HETATM   27  C   UNL     1      28.386  41.246  53.362  1.00  0.00     0.130 C 
BRANCH  27  28
HETATM   28  N   UNL     1      27.342  40.944  52.388  1.00  0.00    -0.360 N 
HETATM   29  C   UNL     1      27.527  40.588  51.074  1.00  0.00     0.222 C 
HETATM   30  O   UNL     1      28.609  40.640  50.493  1.00  0.00    -0.273 OA
HETATM   31  H   UNL     1      26.420  40.802  52.786  1.00  0.00     0.162 HD
BRANCH  29  32
HETATM   32  C   UNL     1      26.227  40.172  50.374  1.00  0.00     0.082 C 
HETATM   33  C   UNL     1      25.364  41.391  50.033  1.00  0.00     0.040 C 
HETATM   34  C   UNL     1      25.968  42.180  48.878  1.00  0.00     0.168 C 
HETATM   35  O   UNL     1      26.162  41.358  47.726  1.00  0.00    -0.391 OA
HETATM   36  C   UNL     1      26.996  40.230  47.962  1.00  0.00     0.168 C 
HETATM   37  C   UNL     1      26.491  39.359  49.105  1.00  0.00     0.040 C 
ENDBRANCH  29  32
ENDBRANCH  27  28
ENDBRANCH  26  27
ENDBRANCH   9  26
TORSDOF 8
ENDMDL
MODEL 5
REMARK VINA RESULT:      -9.0     12.297     14.422
REMARK  8 active torsions:
REMARK  status: ('A' for Active; 'I' for Inactive)
REMARK    1  A    between atoms: C_2  and  C_3 
REMARK    2  A    between atoms: C_3  and  N_4 
REMARK    3  A    between atoms: C_12  and  C_13 
REMARK    4  A    between atoms: C_13  and  N_14 
REMARK    5  A    between atoms: C_22  and  C_23 
REMARK    6  A    between atoms: C_23  and  C_24 
REMARK    7  A    between atoms: C_24  and  N_25 
REMARK       I    between atoms: N_25  and  C_26 
REMARK    8  A    between atoms: C_26  and  C_27 
ROOT
HETATM    1  N   UNL     1      35.020  52.162  41.546  1.00  0.00    -0.065 N 
HETATM    2  H   UNL     1      34.749  53.156  41.545  1.00  0.00     0.280 HD
HETATM    3  C   UNL     1      34.124  51.493  40.505  1.00  0.00     0.255 C 
HETATM    4  C   UNL     1      33.947  49.998  40.738  1.00  0.00     0.159 C 
HETATM    5  N   UNL     1      32.899  49.708  41.692  1.00  0.00    -0.319 N 
HETATM    6  C   UNL     1      32.655  50.383  42.867  1.00  0.00     0.131 A 
HETATM    7  C   UNL     1      33.356  51.596  43.372  1.00  0.00     0.108 C 
HETATM    8  C   UNL     1      34.825  51.680  42.984  1.00  0.00     0.243 C 
HETATM    9  C   UNL     1      31.941  48.727  41.610  1.00  0.00     0.131 A 
HETATM   10  N   UNL     1      31.204  48.777  42.700  1.00  0.00    -0.135 NA
HETATM   11  N   UNL     1      31.641  49.814  43.474  1.00  0.00    -0.135 NA
ENDROOT
BRANCH   1  12
HETATM   12  C   UNL     1      36.495  52.164  41.177  1.00  0.00     0.280 C 
BRANCH  12  13
HETATM   13  C   UNL     1      37.384  52.858  42.172  1.00  0.00     0.009 A 
HETATM   14  S   UNL     1      38.547  51.986  43.082  1.00  0.00    -0.096 SA
HETATM   15  C   UNL     1      39.153  53.407  43.834  1.00  0.00     0.009 A 
HETATM   16  C   UNL     1      38.463  54.524  43.405  1.00  0.00     0.017 A 
HETATM   17  C   UNL     1      37.442  54.208  42.459  1.00  0.00     0.017 A 
BRANCH  15  18
HETATM   18  C   UNL     1      40.325  53.323  44.776  1.00  0.00     0.280 C 
BRANCH  18  19
HETATM   19  N   UNL     1      40.025  53.816  46.178  1.00  0.00    -0.067 N 
HETATM   20  H   UNL     1      39.866  54.828  46.108  1.00  0.00     0.280 HD
HETATM   21  C   UNL     1      38.781  53.193  46.768  1.00  0.00     0.235 C 
HETATM   22  C   UNL     1      38.483  53.830  48.117  1.00  0.00     0.028 C 
HETATM   23  C   UNL     1      39.666  53.708  49.070  1.00  0.00     0.003 C 
HETATM   24  C   UNL     1      40.939  54.263  48.441  1.00  0.00     0.028 C 
HETATM   25  C   UNL     1      41.224  53.629  47.088  1.00  0.00     0.235 C 
ENDBRANCH  18  19
ENDBRANCH  15  18
ENDBRANCH  12  13
ENDBRANCH   1  12
BRANCH   9  26
HETATM   26  C   UNL     1      31.748  47.771  40.482  1.00  0.00     0.100 C 
BRANCH  26  27
HETATM   27  C   UNL     1      30.278  47.602  40.090  1.00  0.00     0.130 C 
BRANCH  27  28
HETATM   28  N   UNL     1      29.401  48.763  40.205  1.00  0.00    -0.360 N 
HETATM   29  C   UNL     1      29.224  49.750  39.266  1.00  0.00     0.222 C 
HETATM   30  O   UNL     1      29.919  49.875  38.259  1.00  0.00    -0.273 OA
HETATM   31  H   UNL     1      28.731  48.715  40.965  1.00  0.00     0.162 HD
BRANCH  29  32
HETATM   32  C   UNL     1      28.103  50.732  39.629  1.00  0.00     0.082 C 
HETATM   33  C   UNL     1      28.047  50.980  41.139  1.00  0.00     0.040 C 
HETATM   34  C   UNL     1      29.219  51.839  41.594  1.00  0.00     0.168 C 
HETATM   35  O   UNL     1      29.273  53.076  40.881  1.00  0.00    -0.391 OA
HETATM   36  C   UNL     1      29.374  52.917  39.470  1.00  0.00     0.168 C 
HETATM   37  C   UNL     1      28.248  52.068  38.895  1.00  0.00     0.040 C 
ENDBRANCH  29  32
ENDBRANCH  27  28
ENDBRANCH  26  27
ENDBRANCH   9  26
TORSDOF 8
ENDMDL
MODEL 6
REMARK VINA RESULT:      -8.9      5.426     11.638
REMARK  8 active torsions:
REMARK  status: ('A' for Active; 'I' for Inactive)
REMARK    1  A    between atoms: C_2  and  C_3 
REMARK    2  A    between atoms: C_3  and  N_4 
REMARK    3  A    between atoms: C_12  and  C_13 
REMARK    4  A    between atoms: C_13  and  N_14 
REMARK    5  A    between atoms: C_22  and  C_23 
REMARK    6  A    between atoms: C_23  and  C_24 
REMARK    7  A    between atoms: C_24  and  N_25 
REMARK       I    between atoms: N_25  and  C_26 
REMARK    8  A    between atoms: C_26  and  C_27 
ROOT
HETATM    1  N   UNL     1      25.676  46.877  50.987  1.00  0.00    -0.065 N 
HETATM    2  H   UNL     1      24.687  47.156  51.069  1.00  0.00     0.280 HD
HETATM    3  C   UNL     1      25.654  45.429  50.503  1.00  0.00     0.255 C 
HETATM    4  C   UNL     1      26.922  44.661  50.853  1.00  0.00     0.159 C 
HETATM    5  N   UNL     1      26.886  44.117  52.193  1.00  0.00    -0.319 N 
HETATM    6  C   UNL     1      26.413  44.752  53.319  1.00  0.00     0.131 A 
HETATM    7  C   UNL     1      25.770  46.093  53.395  1.00  0.00     0.108 C 
HETATM    8  C   UNL     1      26.285  47.096  52.373  1.00  0.00     0.243 C 
HETATM    9  C   UNL     1      27.292  42.870  52.601  1.00  0.00     0.131 A 
HETATM   10  N   UNL     1      27.127  42.788  53.904  1.00  0.00    -0.135 NA
HETATM   11  N   UNL     1      26.570  43.953  54.347  1.00  0.00    -0.135 NA
ENDROOT
BRANCH   1  12
HETATM   12  C   UNL     1      26.268  47.853  49.982  1.00  0.00     0.280 C 
BRANCH  12  13
HETATM   13  C   UNL     1      25.250  48.608  49.172  1.00  0.00     0.009 A 
HETATM   14  S   UNL     1      23.625  48.069  49.065  1.00  0.00    -0.096 SA
HETATM   15  C   UNL     1      23.146  49.424  48.123  1.00  0.00     0.009 A 
HETATM   16  C   UNL     1      24.218  50.262  47.884  1.00  0.00     0.017 A 
HETATM   17  C   UNL     1      25.427  49.789  48.478  1.00  0.00     0.017 A 
BRANCH  15  18
HETATM   18  C   UNL     1      21.705  49.594  47.722  1.00  0.00     0.280 C 
BRANCH  18  19
HETATM   19  N   UNL     1      20.795  50.019  48.858  1.00  0.00    -0.067 N 
HETATM   20  H   UNL     1      21.396  50.175  49.676  1.00  0.00     0.280 HD
HETATM   21  C   UNL     1      20.059  51.308  48.571  1.00  0.00     0.235 C 
HETATM   22  C   UNL     1      19.269  51.727  49.802  1.00  0.00     0.028 C 
HETATM   23  C   UNL     1      18.309  50.632  50.253  1.00  0.00     0.003 C 
HETATM   24  C   UNL     1      19.040  49.312  50.463  1.00  0.00     0.028 C 
HETATM   25  C   UNL     1      19.836  48.905  49.232  1.00  0.00     0.235 C 
ENDBRANCH  18  19
ENDBRANCH  15  18
ENDBRANCH  12  13
ENDBRANCH   1  12
BRANCH   9  26
HETATM   26  C   UNL     1      27.822  41.782  51.729  1.00  0.00     0.100 C 
BRANCH  26  27
HETATM   27  C   UNL     1      26.717  40.904  51.136  1.00  0.00     0.130 C 
BRANCH  27  28
HETATM   28  N   UNL     1      27.098  39.613  50.572  1.00  0.00    -0.360 N 
HETATM   29  C   UNL     1      27.544  39.378  49.294  1.00  0.00     0.222 C 
HETATM   30  O   UNL     1      27.521  40.213  48.393  1.00  0.00    -0.273 OA
HETATM   31  H   UNL     1      27.220  38.873  51.255  1.00  0.00     0.162 HD
BRANCH  29  32
HETATM   32  C   UNL     1      28.021  37.936  49.079  1.00  0.00     0.082 C 
HETATM   33  C   UNL     1      29.245  37.887  48.159  1.00  0.00     0.040 C 
HETATM   34  C   UNL     1      30.486  38.402  48.875  1.00  0.00     0.168 C 
HETATM   35  O   UNL     1      30.733  37.682  50.084  1.00  0.00    -0.391 OA
HETATM   36  C   UNL     1      29.650  37.727  51.006  1.00  0.00     0.168 C 
HETATM   37  C   UNL     1      28.344  37.233  50.400  1.00  0.00     0.040 C 
ENDBRANCH  29  32
ENDBRANCH  27  28
ENDBRANCH  26  27
ENDBRANCH   9  26
TORSDOF 8
ENDMDL
MODEL 7
REMARK VINA RESULT:      -8.9      1.713      2.704
REMARK  8 active torsions:
REMARK  status: ('A' for Active; 'I' for Inactive)
REMARK    1  A    between atoms: C_2  and  C_3 
REMARK    2  A    between atoms: C_3  and  N_4 
REMARK    3  A    between atoms: C_12  and  C_13 
REMARK    4  A    between atoms: C_13  and  N_14 
REMARK    5  A    between atoms: C_22  and  C_23 
REMARK    6  A    between atoms: C_23  and  C_24 
REMARK    7  A    between atoms: C_24  and  N_25 
REMARK       I    between atoms: N_25  and  C_26 
REMARK    8  A    between atoms: C_26  and  C_27 
ROOT
HETATM    1  N   UNL     1      25.199  45.605  50.438  1.00  0.00    -0.065 N 
HETATM    2  H   UNL     1      26.185  45.561  50.144  1.00  0.00     0.280 HD
HETATM    3  C   UNL     1      24.396  45.051  49.262  1.00  0.00     0.255 C 
HETATM    4  C   UNL     1      22.953  45.537  49.239  1.00  0.00     0.159 C 
HETATM    5  N   UNL     1      22.816  46.830  48.605  1.00  0.00    -0.319 N 
HETATM    6  C   UNL     1      23.657  47.909  48.760  1.00  0.00     0.131 A 
HETATM    7  C   UNL     1      24.922  47.960  49.543  1.00  0.00     0.108 C 
HETATM    8  C   UNL     1      24.932  47.072  50.779  1.00  0.00     0.243 C 
HETATM    9  C   UNL     1      21.844  47.228  47.719  1.00  0.00     0.131 A 
HETATM   10  N   UNL     1      22.060  48.489  47.409  1.00  0.00    -0.135 NA
HETATM   11  N   UNL     1      23.192  48.907  48.047  1.00  0.00    -0.135 NA
ENDROOT
BRANCH   1  12
HETATM   12  C   UNL     1      25.131  44.744  51.689  1.00  0.00     0.280 C 
BRANCH  12  13
HETATM   13  C   UNL     1      26.357  44.811  52.558  1.00  0.00     0.009 A 
HETATM   14  S   UNL     1      26.544  46.046  53.734  1.00  0.00    -0.096 SA
HETATM   15  C   UNL     1      28.028  45.397  54.306  1.00  0.00     0.009 A 
HETATM   16  C   UNL     1      28.378  44.265  53.595  1.00  0.00     0.017 A 
HETATM   17  C   UNL     1      27.424  43.935  52.586  1.00  0.00     0.017 A 
BRANCH  15  18
HETATM   18  C   UNL     1      28.731  46.035  55.474  1.00  0.00     0.280 C 
BRANCH  18  19
HETATM   19  N   UNL     1      29.546  45.065  56.307  1.00  0.00    -0.067 N 
HETATM   20  H   UNL     1      28.882  44.399  56.720  1.00  0.00     0.280 HD
HETATM   21  C   UNL     1      30.541  44.276  55.487  1.00  0.00     0.235 C 
HETATM   22  C   UNL     1      31.226  43.245  56.372  1.00  0.00     0.028 C 
HETATM   23  C   UNL     1      31.895  43.893  57.577  1.00  0.00     0.003 C 
HETATM   24  C   UNL     1      30.909  44.754  58.358  1.00  0.00     0.028 C 
HETATM   25  C   UNL     1      30.222  45.776  57.464  1.00  0.00     0.235 C 
ENDBRANCH  18  19
ENDBRANCH  15  18
ENDBRANCH  12  13
ENDBRANCH   1  12
BRANCH   9  26
HETATM   26  C   UNL     1      20.737  46.386  47.182  1.00  0.00     0.100 C 
BRANCH  26  27
HETATM   27  C   UNL     1      19.496  46.393  48.077  1.00  0.00     0.130 C 
BRANCH  27  28
HETATM   28  N   UNL     1      19.161  47.630  48.775  1.00  0.00    -0.360 N 
HETATM   29  C   UNL     1      18.459  48.694  48.262  1.00  0.00     0.222 C 
HETATM   30  O   UNL     1      18.160  48.814  47.076  1.00  0.00    -0.273 OA
HETATM   31  H   UNL     1      19.300  47.601  49.779  1.00  0.00     0.162 HD
BRANCH  29  32
HETATM   32  C   UNL     1      18.134  49.763  49.313  1.00  0.00     0.082 C 
HETATM   33  C   UNL     1      19.366  50.110  50.155  1.00  0.00     0.040 C 
HETATM   34  C   UNL     1      20.366  50.925  49.346  1.00  0.00     0.168 C 
HETATM   35  O   UNL     1      19.771  52.107  48.810  1.00  0.00    -0.391 OA
HETATM   36  C   UNL     1      18.645  51.853  47.978  1.00  0.00     0.168 C 
HETATM   37  C   UNL     1      17.569  51.038  48.681  1.00  0.00     0.040 C 
ENDBRANCH  29  32
ENDBRANCH  27  28
ENDBRANCH  26  27
ENDBRANCH   9  26
TORSDOF 8
ENDMDL
MODEL 8
REMARK VINA RESULT:      -8.6      4.392     12.341
REMARK  8 active torsions:
REMARK  status: ('A' for Active; 'I' for Inactive)
REMARK    1  A    between atoms: C_2  and  C_3 
REMARK    2  A    between atoms: C_3  and  N_4 
REMARK    3  A    between atoms: C_12  and  C_13 
REMARK    4  A    between atoms: C_13  and  N_14 
REMARK    5  A    between atoms: C_22  and  C_23 
REMARK    6  A    between atoms: C_23  and  C_24 
REMARK    7  A    between atoms: C_24  and  N_25 
REMARK       I    between atoms: N_25  and  C_26 
REMARK    8  A    between atoms: C_26  and  C_27 
ROOT
HETATM    1  N   UNL     1      22.320  50.066  48.468  1.00  0.00    -0.065 N 
HETATM    2  H   UNL     1      22.127  51.039  48.747  1.00  0.00     0.280 HD
HETATM    3  C   UNL     1      22.711  49.340  49.753  1.00  0.00     0.255 C 
HETATM    4  C   UNL     1      23.561  48.100  49.507  1.00  0.00     0.159 C 
HETATM    5  N   UNL     1      24.966  48.413  49.363  1.00  0.00    -0.319 N 
HETATM    6  C   UNL     1      25.499  49.474  48.668  1.00  0.00     0.131 A 
HETATM    7  C   UNL     1      24.756  50.568  47.984  1.00  0.00     0.108 C 
HETATM    8  C   UNL     1      23.414  50.148  47.403  1.00  0.00     0.243 C 
HETATM    9  C   UNL     1      26.033  47.733  49.899  1.00  0.00     0.131 A 
HETATM   10  N   UNL     1      27.140  48.322  49.499  1.00  0.00    -0.135 NA
HETATM   11  N   UNL     1      26.807  49.410  48.744  1.00  0.00    -0.135 NA
ENDROOT
BRANCH   1  12
HETATM   12  C   UNL     1      21.016  49.576  47.858  1.00  0.00     0.280 C 
BRANCH  12  13
HETATM   13  C   UNL     1      19.895  50.579  47.895  1.00  0.00     0.009 A 
HETATM   14  S   UNL     1      18.342  50.197  47.275  1.00  0.00    -0.096 SA
HETATM   15  C   UNL     1      17.684  51.710  47.752  1.00  0.00     0.009 A 
HETATM   16  C   UNL     1      18.644  52.496  48.360  1.00  0.00     0.017 A 
HETATM   17  C   UNL     1      19.915  51.851  48.433  1.00  0.00     0.017 A 
BRANCH  15  18
HETATM   18  C   UNL     1      16.223  52.001  47.535  1.00  0.00     0.280 C 
BRANCH  18  19
HETATM   19  N   UNL     1      15.956  53.055  46.478  1.00  0.00    -0.067 N 
HETATM   20  H   UNL     1      16.531  53.871  46.721  1.00  0.00     0.280 HD
HETATM   21  C   UNL     1      16.349  52.609  45.088  1.00  0.00     0.235 C 
HETATM   22  C   UNL     1      16.166  53.763  44.113  1.00  0.00     0.028 C 
HETATM   23  C   UNL     1      14.739  54.298  44.137  1.00  0.00     0.003 C 
HETATM   24  C   UNL     1      14.315  54.672  45.552  1.00  0.00     0.028 C 
HETATM   25  C   UNL     1      14.511  53.516  46.523  1.00  0.00     0.235 C 
ENDBRANCH  18  19
ENDBRANCH  15  18
ENDBRANCH  12  13
ENDBRANCH   1  12
BRANCH   9  26
HETATM   26  C   UNL     1      25.965  46.541  50.792  1.00  0.00     0.100 C 
BRANCH  26  27
HETATM   27  C   UNL     1      25.443  46.874  52.192  1.00  0.00     0.130 C 
BRANCH  27  28
HETATM   28  N   UNL     1      25.899  46.050  53.306  1.00  0.00    -0.360 N 
HETATM   29  C   UNL     1      25.646  44.713  53.493  1.00  0.00     0.222 C 
HETATM   30  O   UNL     1      24.849  44.063  52.820  1.00  0.00    -0.273 OA
HETATM   31  H   UNL     1      26.623  46.473  53.877  1.00  0.00     0.162 HD
BRANCH  29  32
HETATM   32  C   UNL     1      26.416  44.113  54.676  1.00  0.00     0.082 C 
HETATM   33  C   UNL     1      27.113  42.807  54.283  1.00  0.00     0.040 C 
HETATM   34  C   UNL     1      28.312  43.080  53.383  1.00  0.00     0.168 C 
HETATM   35  O   UNL     1      29.235  43.981  53.996  1.00  0.00    -0.391 OA
HETATM   36  C   UNL     1      28.662  45.236  54.345  1.00  0.00     0.168 C 
HETATM   37  C   UNL     1      27.445  45.092  55.249  1.00  0.00     0.040 C 
ENDBRANCH  29  32
ENDBRANCH  27  28
ENDBRANCH  26  27
ENDBRANCH   9  26
TORSDOF 8
ENDMDL
MODEL 9
REMARK VINA RESULT:      -8.5      4.550     12.347
REMARK  8 active torsions:
REMARK  status: ('A' for Active; 'I' for Inactive)
REMARK    1  A    between atoms: C_2  and  C_3 
REMARK    2  A    between atoms: C_3  and  N_4 
REMARK    3  A    between atoms: C_12  and  C_13 
REMARK    4  A    between atoms: C_13  and  N_14 
REMARK    5  A    between atoms: C_22  and  C_23 
REMARK    6  A    between atoms: C_23  and  C_24 
REMARK    7  A    between atoms: C_24  and  N_25 
REMARK       I    between atoms: N_25  and  C_26 
REMARK    8  A    between atoms: C_26  and  C_27 
ROOT
HETATM    1  N   UNL     1      21.792  50.098  48.512  1.00  0.00    -0.065 N 
HETATM    2  H   UNL     1      21.586  51.017  48.930  1.00  0.00     0.280 HD
HETATM    3  C   UNL     1      22.171  49.191  49.680  1.00  0.00     0.255 C 
HETATM    4  C   UNL     1      23.036  48.008  49.265  1.00  0.00     0.159 C 
HETATM    5  N   UNL     1      24.440  48.348  49.192  1.00  0.00    -0.319 N 
HETATM    6  C   UNL     1      24.973  49.505  48.672  1.00  0.00     0.131 A 
HETATM    7  C   UNL     1      24.230  50.684  48.147  1.00  0.00     0.108 C 
HETATM    8  C   UNL     1      22.901  50.347  47.488  1.00  0.00     0.243 C 
HETATM    9  C   UNL     1      25.505  47.604  49.637  1.00  0.00     0.131 A 
HETATM   10  N   UNL     1      26.613  48.253  49.347  1.00  0.00    -0.135 NA
HETATM   11  N   UNL     1      26.281  49.439  48.758  1.00  0.00    -0.135 NA
ENDROOT
BRANCH   1  12
HETATM   12  C   UNL     1      20.501  49.696  47.815  1.00  0.00     0.280 C 
BRANCH  12  13
HETATM   13  C   UNL     1      19.353  50.642  48.037  1.00  0.00     0.009 A 
HETATM   14  S   UNL     1      17.741  50.181  47.672  1.00  0.00    -0.096 SA
HETATM   15  C   UNL     1      17.094  51.661  48.258  1.00  0.00     0.009 A 
HETATM   16  C   UNL     1      18.098  52.496  48.708  1.00  0.00     0.017 A 
HETATM   17  C   UNL     1      19.395  51.915  48.572  1.00  0.00     0.017 A 
BRANCH  15  18
HETATM   18  C   UNL     1      15.604  51.877  48.279  1.00  0.00     0.280 C 
BRANCH  18  19
HETATM   19  N   UNL     1      15.174  53.128  49.021  1.00  0.00    -0.067 N 
HETATM   20  H   UNL     1      16.033  53.617  49.301  1.00  0.00     0.280 HD
HETATM   21  C   UNL     1      14.363  54.072  48.163  1.00  0.00     0.235 C 
HETATM   22  C   UNL     1      14.080  55.350  48.940  1.00  0.00     0.028 C 
HETATM   23  C   UNL     1      13.374  55.061  50.259  1.00  0.00     0.003 C 
HETATM   24  C   UNL     1      14.152  54.046  51.088  1.00  0.00     0.028 C 
HETATM   25  C   UNL     1      14.441  52.776  50.301  1.00  0.00     0.235 C 
ENDBRANCH  18  19
ENDBRANCH  15  18
ENDBRANCH  12  13
ENDBRANCH   1  12
BRANCH   9  26
HETATM   26  C   UNL     1      25.435  46.291  50.341  1.00  0.00     0.100 C 
BRANCH  26  27
HETATM   27  C   UNL     1      26.087  46.322  51.725  1.00  0.00     0.130 C 
BRANCH  27  28
HETATM   28  N   UNL     1      26.545  45.058  52.294  1.00  0.00    -0.360 N 
HETATM   29  C   UNL     1      27.234  44.893  53.472  1.00  0.00     0.222 C 
HETATM   30  O   UNL     1      27.707  45.819  54.127  1.00  0.00    -0.273 OA
HETATM   31  H   UNL     1      26.143  44.231  51.868  1.00  0.00     0.162 HD
BRANCH  29  32
HETATM   32  C   UNL     1      27.412  43.421  53.864  1.00  0.00     0.082 C 
HETATM   33  C   UNL     1      27.557  42.529  52.627  1.00  0.00     0.040 C 
HETATM   34  C   UNL     1      28.916  42.726  51.969  1.00  0.00     0.168 C 
HETATM   35  O   UNL     1      29.984  42.492  52.889  1.00  0.00    -0.391 OA
HETATM   36  C   UNL     1      29.937  43.323  54.043  1.00  0.00     0.168 C 
HETATM   37  C   UNL     1      28.614  43.214  54.789  1.00  0.00     0.040 C 
ENDBRANCH  29  32
ENDBRANCH  27  28
ENDBRANCH  26  27
ENDBRANCH   9  26
TORSDOF 8
ENDMDL
MODEL 10
REMARK VINA RESULT:      -8.5      2.955      4.041
REMARK  8 active torsions:
REMARK  status: ('A' for Active; 'I' for Inactive)
REMARK    1  A    between atoms: C_2  and  C_3 
REMARK    2  A    between atoms: C_3  and  N_4 
REMARK    3  A    between atoms: C_12  and  C_13 
REMARK    4  A    between atoms: C_13  and  N_14 
REMARK    5  A    between atoms: C_22  and  C_23 
REMARK    6  A    between atoms: C_23  and  C_24 
REMARK    7  A    between atoms: C_24  and  N_25 
REMARK       I    between atoms: N_25  and  C_26 
REMARK    8  A    between atoms: C_26  and  C_27 
ROOT
HETATM    1  N   UNL     1      22.980  46.061  49.526  1.00  0.00    -0.065 N 
HETATM    2  H   UNL     1      22.705  45.990  50.517  1.00  0.00     0.280 HD
HETATM    3  C   UNL     1      22.042  47.099  48.915  1.00  0.00     0.255 C 
HETATM    4  C   UNL     1      21.882  46.949  47.407  1.00  0.00     0.159 C 
HETATM    5  N   UNL     1      20.880  45.969  47.052  1.00  0.00    -0.319 N 
HETATM    6  C   UNL     1      20.686  44.746  47.654  1.00  0.00     0.131 A 
HETATM    7  C   UNL     1      21.403  44.200  48.839  1.00  0.00     0.108 C 
HETATM    8  C   UNL     1      22.852  44.647  48.957  1.00  0.00     0.243 C 
HETATM    9  C   UNL     1      19.924  46.067  46.071  1.00  0.00     0.131 A 
HETATM   10  N   UNL     1      19.237  44.945  46.049  1.00  0.00    -0.135 NA
HETATM   11  N   UNL     1      19.703  44.129  47.041  1.00  0.00    -0.135 NA
ENDROOT
BRANCH   1  12
HETATM   12  C   UNL     1      24.437  46.494  49.562  1.00  0.00     0.280 C 
BRANCH  12  13
HETATM   13  C   UNL     1      25.105  46.324  50.899  1.00  0.00     0.009 A 
HETATM   14  S   UNL     1      25.163  44.795  51.674  1.00  0.00    -0.096 SA
HETATM   15  C   UNL     1      26.102  45.395  52.981  1.00  0.00     0.009 A 
HETATM   16  C   UNL     1      26.350  46.746  52.831  1.00  0.00     0.017 A 
HETATM   17  C   UNL     1      25.769  47.281  51.641  1.00  0.00     0.017 A 
BRANCH  15  18
HETATM   18  C   UNL     1      26.581  44.460  54.059  1.00  0.00     0.280 C 
BRANCH  18  19
HETATM   19  N   UNL     1      28.063  44.575  54.360  1.00  0.00    -0.067 N 
HETATM   20  H   UNL     1      28.494  45.041  53.553  1.00  0.00     0.280 HD
HETATM   21  C   UNL     1      28.351  45.412  55.585  1.00  0.00     0.235 C 
HETATM   22  C   UNL     1      29.855  45.580  55.745  1.00  0.00     0.028 C 
HETATM   23  C   UNL     1      30.567  44.234  55.816  1.00  0.00     0.003 C 
HETATM   24  C   UNL     1      30.211  43.359  54.620  1.00  0.00     0.028 C 
HETATM   25  C   UNL     1      28.705  43.205  54.462  1.00  0.00     0.235 C 
ENDBRANCH  18  19
ENDBRANCH  15  18
ENDBRANCH  12  13
ENDBRANCH   1  12
BRANCH   9  26
HETATM   26  C   UNL     1      19.684  47.241  45.183  1.00  0.00     0.100 C 
BRANCH  26  27
HETATM   27  C   UNL     1      18.766  48.289  45.816  1.00  0.00     0.130 C 
BRANCH  27  28
HETATM   28  N   UNL     1      19.357  49.242  46.750  1.00  0.00    -0.360 N 
HETATM   29  C   UNL     1      19.027  50.568  46.885  1.00  0.00     0.222 C 
HETATM   30  O   UNL     1      18.295  51.177  46.108  1.00  0.00    -0.273 OA
HETATM   31  H   UNL     1      19.919  48.822  47.484  1.00  0.00     0.162 HD
BRANCH  29  32
HETATM   32  C   UNL     1      19.717  51.243  48.077  1.00  0.00     0.082 C 
HETATM   33  C   UNL     1      18.996  52.533  48.480  1.00  0.00     0.040 C 
HETATM   34  C   UNL     1      17.672  52.225  49.166  1.00  0.00     0.168 C 
HETATM   35  O   UNL     1      17.851  51.372  50.297  1.00  0.00    -0.391 OA
HETATM   36  C   UNL     1      18.474  50.132  49.983  1.00  0.00     0.168 C 
HETATM   37  C   UNL     1      19.817  50.311  49.288  1.00  0.00     0.040 C 
ENDBRANCH  29  32
ENDBRANCH  27  28
ENDBRANCH  26  27
ENDBRANCH   9  26
TORSDOF 8
ENDMDL
