MODEL 1
REMARK VINA RESULT:      -8.5      0.000      0.000
REMARK  3 active torsions:
REMARK  status: ('A' for Active; 'I' for Inactive)
REMARK    1  A    between atoms: C_3  and  N_4 
REMARK       I    between atoms: N_4  and  C_5 
REMARK    2  A    between atoms: C_5  and  C_6 
REMARK    3  A    between atoms: C_6  and  C_7 
ROOT
HETATM    1  C   UNL     1      27.589  43.575  53.095  1.00  0.00     0.286 C 
HETATM    2  N   UNL     1      26.447  44.281  53.819  1.00  0.00    -0.056 N 
HETATM    3  H   UNL     1      25.925  43.521  54.305  1.00  0.00     0.278 HD
HETATM    4  H   UNL     1      26.797  44.902  54.556  1.00  0.00     0.278 HD
HETATM    5  C   UNL     1      25.473  44.989  52.920  1.00  0.00     0.209 C 
HETATM    6  C   UNL     1      24.954  44.001  51.848  1.00  0.00     0.115 C 
HETATM    7  N   UNL     1      26.031  43.270  51.179  1.00  0.00    -0.353 N 
HETATM    8  C   UNL     1      27.134  42.792  51.846  1.00  0.00     0.249 C 
HETATM    9  O   UNL     1      27.772  41.852  51.385  1.00  0.00    -0.271 OA
HETATM   10  C   UNL     1      26.122  46.241  52.324  1.00  0.00     0.035 C 
HETATM   11  C   UNL     1      25.181  46.928  51.339  1.00  0.00     0.002 C 
HETATM   12  C   UNL     1      24.719  45.968  50.247  1.00  0.00     0.002 C 
HETATM   13  C   UNL     1      24.060  44.719  50.832  1.00  0.00     0.027 C 
HETATM   14  H   UNL     1      25.776  42.677  50.391  1.00  0.00     0.163 HD
ENDROOT
BRANCH   1  15
HETATM   15  C   UNL     1      28.384  42.683  54.062  1.00  0.00     0.146 C 
BRANCH  15  16
HETATM   16  C   UNL     1      29.862  42.947  53.941  1.00  0.00     0.224 C 
HETATM   17  N   UNL     1      30.513  43.836  54.729  1.00  0.00    -0.326 N 
HETATM   18  H   UNL     1      31.482  43.972  54.437  1.00  0.00     0.169 HD
HETATM   19  O   UNL     1      30.509  42.286  53.116  1.00  0.00    -0.273 OA
BRANCH  17  20
HETATM   20  C   UNL     1      30.161  44.612  55.860  1.00  0.00     0.056 A 
HETATM   21  C   UNL     1      29.126  45.551  55.892  1.00  0.00     0.031 A 
HETATM   22  C   UNL     1      28.831  46.248  57.073  1.00  0.00     0.002 A 
HETATM   23  C   UNL     1      29.559  46.015  58.236  1.00  0.00     0.002 A 
HETATM   24  C   UNL     1      30.586  45.079  58.229  1.00  0.00     0.026 A 
HETATM   25  C   UNL     1      30.880  44.382  57.055  1.00  0.00     0.060 A 
HETATM   26 CL   UNL     1      32.162  43.217  57.106  1.00  0.00    -0.082 Cl
ENDBRANCH  17  20
ENDBRANCH  15  16
ENDBRANCH   1  15
TORSDOF 3
ENDMDL
MODEL 2
REMARK VINA RESULT:      -8.4      2.482      3.577
REMARK  3 active torsions:
REMARK  status: ('A' for Active; 'I' for Inactive)
REMARK    1  A    between atoms: C_3  and  N_4 
REMARK       I    between atoms: N_4  and  C_5 
REMARK    2  A    between atoms: C_5  and  C_6 
REMARK    3  A    between atoms: C_6  and  C_7 
ROOT
HETATM    1  C   UNL     1      27.317  42.806  52.767  1.00  0.00     0.286 C 
HETATM    2  N   UNL     1      25.986  42.844  52.022  1.00  0.00    -0.056 N 
HETATM    3  H   UNL     1      25.296  42.422  52.681  1.00  0.00     0.278 HD
HETATM    4  H   UNL     1      25.673  43.808  51.863  1.00  0.00     0.278 HD
HETATM    5  C   UNL     1      25.949  42.037  50.756  1.00  0.00     0.209 C 
HETATM    6  C   UNL     1      26.399  40.588  51.059  1.00  0.00     0.115 C 
HETATM    7  N   UNL     1      27.646  40.528  51.822  1.00  0.00    -0.353 N 
HETATM    8  C   UNL     1      27.934  41.394  52.850  1.00  0.00     0.249 C 
HETATM    9  O   UNL     1      28.734  41.072  53.721  1.00  0.00    -0.271 OA
HETATM   10  C   UNL     1      26.791  42.718  49.673  1.00  0.00     0.035 C 
HETATM   11  C   UNL     1      26.840  41.871  48.405  1.00  0.00     0.002 C 
HETATM   12  C   UNL     1      27.343  40.460  48.696  1.00  0.00     0.002 C 
HETATM   13  C   UNL     1      26.501  39.768  49.768  1.00  0.00     0.027 C 
HETATM   14  H   UNL     1      28.060  39.609  51.972  1.00  0.00     0.163 HD
ENDROOT
BRANCH   1  15
HETATM   15  C   UNL     1      27.187  43.448  54.158  1.00  0.00     0.146 C 
BRANCH  15  16
HETATM   16  C   UNL     1      27.609  44.893  54.122  1.00  0.00     0.224 C 
HETATM   17  N   UNL     1      28.640  45.373  54.860  1.00  0.00    -0.326 N 
HETATM   18  H   UNL     1      28.714  46.390  54.801  1.00  0.00     0.169 HD
HETATM   19  O   UNL     1      27.015  45.657  53.348  1.00  0.00    -0.273 OA
BRANCH  17  20
HETATM   20  C   UNL     1      29.631  44.792  55.687  1.00  0.00     0.056 A 
HETATM   21  C   UNL     1      30.536  43.810  55.277  1.00  0.00     0.031 A 
HETATM   22  C   UNL     1      31.507  43.318  56.162  1.00  0.00     0.002 A 
HETATM   23  C   UNL     1      31.590  43.802  57.464  1.00  0.00     0.002 A 
HETATM   24  C   UNL     1      30.705  44.786  57.890  1.00  0.00     0.026 A 
HETATM   25  C   UNL     1      29.739  45.278  57.009  1.00  0.00     0.060 A 
HETATM   26 CL   UNL     1      28.671  46.513  57.590  1.00  0.00    -0.082 Cl
ENDBRANCH  17  20
ENDBRANCH  15  16
ENDBRANCH   1  15
TORSDOF 3
ENDMDL
MODEL 3
REMARK VINA RESULT:      -8.3      3.897      7.387
REMARK  3 active torsions:
REMARK  status: ('A' for Active; 'I' for Inactive)
REMARK    1  A    between atoms: C_3  and  N_4 
REMARK       I    between atoms: N_4  and  C_5 
REMARK    2  A    between atoms: C_5  and  C_6 
REMARK    3  A    between atoms: C_6  and  C_7 
ROOT
HETATM    1  C   UNL     1      26.662  45.542  52.836  1.00  0.00     0.286 C 
HETATM    2  N   UNL     1      26.464  44.031  52.919  1.00  0.00    -0.056 N 
HETATM    3  H   UNL     1      25.714  43.897  53.631  1.00  0.00     0.278 HD
HETATM    4  H   UNL     1      26.094  43.653  52.041  1.00  0.00     0.278 HD
HETATM    5  C   UNL     1      27.667  43.263  53.386  1.00  0.00     0.209 C 
HETATM    6  C   UNL     1      28.165  43.853  54.727  1.00  0.00     0.115 C 
HETATM    7  N   UNL     1      28.309  45.309  54.688  1.00  0.00    -0.353 N 
HETATM    8  C   UNL     1      27.409  46.131  54.052  1.00  0.00     0.249 C 
HETATM    9  O   UNL     1      27.305  47.306  54.386  1.00  0.00    -0.271 OA
HETATM   10  C   UNL     1      28.741  43.253  52.294  1.00  0.00     0.035 C 
HETATM   11  C   UNL     1      30.007  42.552  52.779  1.00  0.00     0.002 C 
HETATM   12  C   UNL     1      30.531  43.177  54.068  1.00  0.00     0.002 C 
HETATM   13  C   UNL     1      29.469  43.181  55.168  1.00  0.00     0.027 C 
HETATM   14  H   UNL     1      28.729  45.761  55.499  1.00  0.00     0.163 HD
ENDROOT
BRANCH   1  15
HETATM   15  C   UNL     1      25.325  46.260  52.593  1.00  0.00     0.146 C 
BRANCH  15  16
HETATM   16  C   UNL     1      24.654  45.735  51.352  1.00  0.00     0.224 C 
HETATM   17  N   UNL     1      24.701  46.384  50.163  1.00  0.00    -0.326 N 
HETATM   18  H   UNL     1      24.100  45.948  49.463  1.00  0.00     0.169 HD
HETATM   19  O   UNL     1      24.076  44.640  51.418  1.00  0.00    -0.273 OA
BRANCH  17  20
HETATM   20  C   UNL     1      25.390  47.520  49.674  1.00  0.00     0.056 A 
HETATM   21  C   UNL     1      26.780  47.659  49.647  1.00  0.00     0.031 A 
HETATM   22  C   UNL     1      27.373  48.811  49.109  1.00  0.00     0.002 A 
HETATM   23  C   UNL     1      26.588  49.836  48.588  1.00  0.00     0.002 A 
HETATM   24  C   UNL     1      25.203  49.714  48.596  1.00  0.00     0.026 A 
HETATM   25  C   UNL     1      24.612  48.566  49.129  1.00  0.00     0.060 A 
HETATM   26 CL   UNL     1      22.882  48.461  49.101  1.00  0.00    -0.082 Cl
ENDBRANCH  17  20
ENDBRANCH  15  16
ENDBRANCH   1  15
TORSDOF 3
ENDMDL
MODEL 4
REMARK VINA RESULT:      -8.1      2.737      4.020
REMARK  3 active torsions:
REMARK  status: ('A' for Active; 'I' for Inactive)
REMARK    1  A    between atoms: C_3  and  N_4 
REMARK       I    between atoms: N_4  and  C_5 
REMARK    2  A    between atoms: C_5  and  C_6 
REMARK    3  A    between atoms: C_6  and  C_7 
ROOT
HETATM    1  C   UNL     1      25.722  44.340  51.101  1.00  0.00     0.286 C 
HETATM    2  N   UNL     1      25.191  42.973  51.520  1.00  0.00    -0.056 N 
HETATM    3  H   UNL     1      25.998  42.502  51.984  1.00  0.00     0.278 HD
HETATM    4  H   UNL     1      24.461  43.058  52.237  1.00  0.00     0.278 HD
HETATM    5  C   UNL     1      24.750  42.092  50.386  1.00  0.00     0.209 C 
HETATM    6  C   UNL     1      25.896  41.974  49.354  1.00  0.00     0.115 C 
HETATM    7  N   UNL     1      26.458  43.271  48.977  1.00  0.00    -0.353 N 
HETATM    8  C   UNL     1      26.668  44.284  49.883  1.00  0.00     0.249 C 
HETATM    9  O   UNL     1      27.503  45.153  49.654  1.00  0.00    -0.271 OA
HETATM   10  C   UNL     1      23.446  42.624  49.784  1.00  0.00     0.035 C 
HETATM   11  C   UNL     1      23.025  41.795  48.574  1.00  0.00     0.002 C 
HETATM   12  C   UNL     1      24.135  41.732  47.529  1.00  0.00     0.002 C 
HETATM   13  C   UNL     1      25.438  41.192  48.118  1.00  0.00     0.027 C 
HETATM   14  H   UNL     1      27.147  43.284  48.227  1.00  0.00     0.163 HD
ENDROOT
BRANCH   1  15
HETATM   15  C   UNL     1      26.372  45.067  52.288  1.00  0.00     0.146 C 
BRANCH  15  16
HETATM   16  C   UNL     1      25.809  44.569  53.593  1.00  0.00     0.224 C 
HETATM   17  N   UNL     1      26.593  44.169  54.624  1.00  0.00    -0.326 N 
HETATM   18  H   UNL     1      26.049  43.758  55.383  1.00  0.00     0.169 HD
HETATM   19  O   UNL     1      24.578  44.574  53.739  1.00  0.00    -0.273 OA
BRANCH  17  20
HETATM   20  C   UNL     1      27.984  44.194  54.887  1.00  0.00     0.056 A 
HETATM   21  C   UNL     1      28.645  45.204  55.589  1.00  0.00     0.031 A 
HETATM   22  C   UNL     1      30.025  45.122  55.830  1.00  0.00     0.002 A 
HETATM   23  C   UNL     1      30.761  44.030  55.378  1.00  0.00     0.002 A 
HETATM   24  C   UNL     1      30.120  43.009  54.686  1.00  0.00     0.026 A 
HETATM   25  C   UNL     1      28.746  43.088  54.447  1.00  0.00     0.060 A 
HETATM   26 CL   UNL     1      27.999  41.780  53.591  1.00  0.00    -0.082 Cl
ENDBRANCH  17  20
ENDBRANCH  15  16
ENDBRANCH   1  15
TORSDOF 3
ENDMDL
MODEL 5
REMARK VINA RESULT:      -8.1      3.017      4.487
REMARK  3 active torsions:
REMARK  status: ('A' for Active; 'I' for Inactive)
REMARK    1  A    between atoms: C_3  and  N_4 
REMARK       I    between atoms: N_4  and  C_5 
REMARK    2  A    between atoms: C_5  and  C_6 
REMARK    3  A    between atoms: C_6  and  C_7 
ROOT
HETATM    1  C   UNL     1      25.986  45.205  50.116  1.00  0.00     0.286 C 
HETATM    2  N   UNL     1      26.180  46.367  51.085  1.00  0.00    -0.056 N 
HETATM    3  H   UNL     1      25.505  46.187  51.860  1.00  0.00     0.278 HD
HETATM    4  H   UNL     1      27.113  46.348  51.511  1.00  0.00     0.278 HD
HETATM    5  C   UNL     1      25.860  47.721  50.518  1.00  0.00     0.209 C 
HETATM    6  C   UNL     1      24.433  47.702  49.919  1.00  0.00     0.115 C 
HETATM    7  N   UNL     1      24.207  46.563  49.028  1.00  0.00    -0.353 N 
HETATM    8  C   UNL     1      24.683  45.301  49.294  1.00  0.00     0.249 C 
HETATM    9  O   UNL     1      24.140  44.320  48.798  1.00  0.00    -0.271 OA
HETATM   10  C   UNL     1      26.934  48.135  49.509  1.00  0.00     0.035 C 
HETATM   11  C   UNL     1      26.584  49.469  48.855  1.00  0.00     0.002 C 
HETATM   12  C   UNL     1      25.202  49.428  48.211  1.00  0.00     0.002 C 
HETATM   13  C   UNL     1      24.121  49.025  49.214  1.00  0.00     0.027 C 
HETATM   14  H   UNL     1      23.326  46.537  48.516  1.00  0.00     0.163 HD
ENDROOT
BRANCH   1  15
HETATM   15  C   UNL     1      26.095  43.856  50.844  1.00  0.00     0.146 C 
BRANCH  15  16
HETATM   16  C   UNL     1      25.366  43.898  52.161  1.00  0.00     0.224 C 
HETATM   17  N   UNL     1      25.973  43.635  53.343  1.00  0.00    -0.326 N 
HETATM   18  H   UNL     1      25.308  43.597  54.117  1.00  0.00     0.169 HD
HETATM   19  O   UNL     1      24.172  44.233  52.157  1.00  0.00    -0.273 OA
BRANCH  17  20
HETATM   20  C   UNL     1      27.310  43.405  53.749  1.00  0.00     0.056 A 
HETATM   21  C   UNL     1      28.006  42.209  53.561  1.00  0.00     0.031 A 
HETATM   22  C   UNL     1      29.343  42.089  53.967  1.00  0.00     0.002 A 
HETATM   23  C   UNL     1      30.004  43.160  54.562  1.00  0.00     0.002 A 
HETATM   24  C   UNL     1      29.332  44.363  54.750  1.00  0.00     0.026 A 
HETATM   25  C   UNL     1      28.002  44.485  54.343  1.00  0.00     0.060 A 
HETATM   26 CL   UNL     1      27.218  46.011  54.590  1.00  0.00    -0.082 Cl
ENDBRANCH  17  20
ENDBRANCH  15  16
ENDBRANCH   1  15
TORSDOF 3
ENDMDL
MODEL 6
REMARK VINA RESULT:      -8.0      5.766      8.003
REMARK  3 active torsions:
REMARK  status: ('A' for Active; 'I' for Inactive)
REMARK    1  A    between atoms: C_3  and  N_4 
REMARK       I    between atoms: N_4  and  C_5 
REMARK    2  A    between atoms: C_5  and  C_6 
REMARK    3  A    between atoms: C_6  and  C_7 
ROOT
HETATM    1  C   UNL     1      23.150  49.283  49.281  1.00  0.00     0.286 C 
HETATM    2  N   UNL     1      21.803  48.663  49.639  1.00  0.00    -0.056 N 
HETATM    3  H   UNL     1      21.739  47.802  49.054  1.00  0.00     0.278 HD
HETATM    4  H   UNL     1      21.785  48.345  50.614  1.00  0.00     0.278 HD
HETATM    5  C   UNL     1      20.610  49.516  49.315  1.00  0.00     0.209 C 
HETATM    6  C   UNL     1      20.672  49.940  47.829  1.00  0.00     0.115 C 
HETATM    7  N   UNL     1      21.974  50.488  47.448  1.00  0.00    -0.353 N 
HETATM    8  C   UNL     1      23.164  49.964  47.896  1.00  0.00     0.249 C 
HETATM    9  O   UNL     1      24.194  50.139  47.255  1.00  0.00    -0.271 OA
HETATM   10  C   UNL     1      20.534  50.702  50.280  1.00  0.00     0.035 C 
HETATM   11  C   UNL     1      19.379  51.631  49.915  1.00  0.00     0.002 C 
HETATM   12  C   UNL     1      19.476  52.098  48.466  1.00  0.00     0.002 C 
HETATM   13  C   UNL     1      19.542  50.920  47.494  1.00  0.00     0.027 C 
HETATM   14  H   UNL     1      22.061  50.884  46.513  1.00  0.00     0.163 HD
ENDROOT
BRANCH   1  15
HETATM   15  C   UNL     1      24.283  48.254  49.415  1.00  0.00     0.146 C 
BRANCH  15  16
HETATM   16  C   UNL     1      23.744  46.851  49.336  1.00  0.00     0.224 C 
HETATM   17  N   UNL     1      24.078  45.886  50.228  1.00  0.00    -0.326 N 
HETATM   18  H   UNL     1      23.714  44.971  49.958  1.00  0.00     0.169 HD
HETATM   19  O   UNL     1      22.927  46.588  48.442  1.00  0.00    -0.273 OA
BRANCH  17  20
HETATM   20  C   UNL     1      24.808  45.859  51.440  1.00  0.00     0.056 A 
HETATM   21  C   UNL     1      25.254  46.989  52.129  1.00  0.00     0.031 A 
HETATM   22  C   UNL     1      25.942  46.861  53.344  1.00  0.00     0.002 A 
HETATM   23  C   UNL     1      26.190  45.604  53.890  1.00  0.00     0.002 A 
HETATM   24  C   UNL     1      25.746  44.466  53.226  1.00  0.00     0.026 A 
HETATM   25  C   UNL     1      25.059  44.593  52.017  1.00  0.00     0.060 A 
HETATM   26 CL   UNL     1      24.518  43.142  51.240  1.00  0.00    -0.082 Cl
ENDBRANCH  17  20
ENDBRANCH  15  16
ENDBRANCH   1  15
TORSDOF 3
ENDMDL
MODEL 7
REMARK VINA RESULT:      -8.0      3.213      4.562
REMARK  3 active torsions:
REMARK  status: ('A' for Active; 'I' for Inactive)
REMARK    1  A    between atoms: C_3  and  N_4 
REMARK       I    between atoms: N_4  and  C_5 
REMARK    2  A    between atoms: C_5  and  C_6 
REMARK    3  A    between atoms: C_6  and  C_7 
ROOT
HETATM    1  C   UNL     1      25.335  46.112  51.519  1.00  0.00     0.286 C 
HETATM    2  N   UNL     1      26.006  44.853  50.978  1.00  0.00    -0.056 N 
HETATM    3  H   UNL     1      26.832  45.199  50.441  1.00  0.00     0.278 HD
HETATM    4  H   UNL     1      26.382  44.274  51.735  1.00  0.00     0.278 HD
HETATM    5  C   UNL     1      25.163  44.046  50.032  1.00  0.00     0.209 C 
HETATM    6  C   UNL     1      24.649  44.961  48.895  1.00  0.00     0.115 C 
HETATM    7  N   UNL     1      24.050  46.201  49.390  1.00  0.00    -0.353 N 
HETATM    8  C   UNL     1      24.573  46.913  50.443  1.00  0.00     0.249 C 
HETATM    9  O   UNL     1      24.336  48.111  50.554  1.00  0.00    -0.271 OA
HETATM   10  C   UNL     1      24.039  43.345  50.799  1.00  0.00     0.035 C 
HETATM   11  C   UNL     1      23.117  42.588  49.847  1.00  0.00     0.002 C 
HETATM   12  C   UNL     1      22.561  43.507  48.762  1.00  0.00     0.002 C 
HETATM   13  C   UNL     1      23.678  44.204  47.983  1.00  0.00     0.027 C 
HETATM   14  H   UNL     1      23.597  46.807  48.708  1.00  0.00     0.163 HD
ENDROOT
BRANCH   1  15
HETATM   15  C   UNL     1      26.344  46.994  52.271  1.00  0.00     0.146 C 
BRANCH  15  16
HETATM   16  C   UNL     1      26.019  47.046  53.741  1.00  0.00     0.224 C 
HETATM   17  N   UNL     1      26.393  46.075  54.608  1.00  0.00    -0.326 N 
HETATM   18  H   UNL     1      25.993  46.214  55.537  1.00  0.00     0.169 HD
HETATM   19  O   UNL     1      25.425  48.044  54.173  1.00  0.00    -0.273 OA
BRANCH  17  20
HETATM   20  C   UNL     1      27.208  44.921  54.522  1.00  0.00     0.056 A 
HETATM   21  C   UNL     1      26.767  43.661  54.108  1.00  0.00     0.031 A 
HETATM   22  C   UNL     1      27.661  42.583  54.023  1.00  0.00     0.002 A 
HETATM   23  C   UNL     1      29.006  42.749  54.344  1.00  0.00     0.002 A 
HETATM   24  C   UNL     1      29.467  43.996  54.749  1.00  0.00     0.026 A 
HETATM   25  C   UNL     1      28.579  45.071  54.832  1.00  0.00     0.060 A 
HETATM   26 CL   UNL     1      29.212  46.605  55.330  1.00  0.00    -0.082 Cl
ENDBRANCH  17  20
ENDBRANCH  15  16
ENDBRANCH   1  15
TORSDOF 3
ENDMDL
MODEL 8
REMARK VINA RESULT:      -7.9      7.320     10.799
REMARK  3 active torsions:
REMARK  status: ('A' for Active; 'I' for Inactive)
REMARK    1  A    between atoms: C_3  and  N_4 
REMARK       I    between atoms: N_4  and  C_5 
REMARK    2  A    between atoms: C_5  and  C_6 
REMARK    3  A    between atoms: C_6  and  C_7 
ROOT
HETATM    1  C   UNL     1      23.480  49.014  48.483  1.00  0.00     0.286 C 
HETATM    2  N   UNL     1      23.203  48.322  49.815  1.00  0.00    -0.056 N 
HETATM    3  H   UNL     1      23.248  49.083  50.527  1.00  0.00     0.278 HD
HETATM    4  H   UNL     1      22.247  47.952  49.854  1.00  0.00     0.278 HD
HETATM    5  C   UNL     1      24.213  47.282  50.206  1.00  0.00     0.209 C 
HETATM    6  C   UNL     1      25.631  47.901  50.161  1.00  0.00     0.115 C 
HETATM    7  N   UNL     1      25.899  48.617  48.914  1.00  0.00    -0.353 N 
HETATM    8  C   UNL     1      24.960  49.404  48.290  1.00  0.00     0.249 C 
HETATM    9  O   UNL     1      25.313  50.302  47.532  1.00  0.00    -0.271 OA
HETATM   10  C   UNL     1      24.065  46.044  49.317  1.00  0.00     0.035 C 
HETATM   11  C   UNL     1      25.138  45.008  49.639  1.00  0.00     0.002 C 
HETATM   12  C   UNL     1      26.538  45.605  49.533  1.00  0.00     0.002 C 
HETATM   13  C   UNL     1      26.700  46.835  50.426  1.00  0.00     0.027 C 
HETATM   14  H   UNL     1      26.845  48.965  48.767  1.00  0.00     0.163 HD
ENDROOT
BRANCH   1  15
HETATM   15  C   UNL     1      22.547  50.219  48.285  1.00  0.00     0.146 C 
BRANCH  15  16
HETATM   16  C   UNL     1      22.089  50.765  49.611  1.00  0.00     0.224 C 
HETATM   17  N   UNL     1      20.812  50.649  50.050  1.00  0.00    -0.326 N 
HETATM   18  H   UNL     1      20.652  51.173  50.911  1.00  0.00     0.169 HD
HETATM   19  O   UNL     1      22.932  51.301  50.345  1.00  0.00    -0.273 OA
BRANCH  17  20
HETATM   20  C   UNL     1      19.658  49.970  49.591  1.00  0.00     0.056 A 
HETATM   21  C   UNL     1      19.344  48.641  49.887  1.00  0.00     0.031 A 
HETATM   22  C   UNL     1      18.156  48.064  49.413  1.00  0.00     0.002 A 
HETATM   23  C   UNL     1      17.266  48.806  48.642  1.00  0.00     0.002 A 
HETATM   24  C   UNL     1      17.554  50.133  48.343  1.00  0.00     0.026 A 
HETATM   25  C   UNL     1      18.735  50.709  48.817  1.00  0.00     0.060 A 
HETATM   26 CL   UNL     1      19.037  52.370  48.425  1.00  0.00    -0.082 Cl
ENDBRANCH  17  20
ENDBRANCH  15  16
ENDBRANCH   1  15
TORSDOF 3
ENDMDL
MODEL 9
REMARK VINA RESULT:      -7.8      5.812      8.076
REMARK  3 active torsions:
REMARK  status: ('A' for Active; 'I' for Inactive)
REMARK    1  A    between atoms: C_3  and  N_4 
REMARK       I    between atoms: N_4  and  C_5 
REMARK    2  A    between atoms: C_5  and  C_6 
REMARK    3  A    between atoms: C_6  and  C_7 
ROOT
HETATM    1  C   UNL     1      22.240  48.467  48.934  1.00  0.00     0.286 C 
HETATM    2  N   UNL     1      22.166  49.579  49.978  1.00  0.00    -0.056 N 
HETATM    3  H   UNL     1      22.166  49.085  50.897  1.00  0.00     0.278 HD
HETATM    4  H   UNL     1      23.012  50.159  49.967  1.00  0.00     0.278 HD
HETATM    5  C   UNL     1      20.921  50.417  49.919  1.00  0.00     0.209 C 
HETATM    6  C   UNL     1      19.680  49.495  49.970  1.00  0.00     0.115 C 
HETATM    7  N   UNL     1      19.753  48.389  49.015  1.00  0.00    -0.353 N 
HETATM    8  C   UNL     1      20.914  47.695  48.765  1.00  0.00     0.249 C 
HETATM    9  O   UNL     1      20.866  46.552  48.324  1.00  0.00    -0.271 OA
HETATM   10  C   UNL     1      20.953  51.320  48.683  1.00  0.00     0.035 C 
HETATM   11  C   UNL     1      19.659  52.118  48.556  1.00  0.00     0.002 C 
HETATM   12  C   UNL     1      18.438  51.202  48.543  1.00  0.00     0.002 C 
HETATM   13  C   UNL     1      18.392  50.304  49.780  1.00  0.00     0.027 C 
HETATM   14  H   UNL     1      18.929  47.798  48.918  1.00  0.00     0.163 HD
ENDROOT
BRANCH   1  15
HETATM   15  C   UNL     1      23.413  47.518  49.223  1.00  0.00     0.146 C 
BRANCH  15  16
HETATM   16  C   UNL     1      24.678  48.293  49.480  1.00  0.00     0.224 C 
HETATM   17  N   UNL     1      25.764  47.745  50.078  1.00  0.00    -0.326 N 
HETATM   18  H   UNL     1      26.486  48.440  50.275  1.00  0.00     0.169 HD
HETATM   19  O   UNL     1      24.736  49.466  49.083  1.00  0.00    -0.273 OA
BRANCH  17  20
HETATM   20  C   UNL     1      26.125  46.439  50.486  1.00  0.00     0.056 A 
HETATM   21  C   UNL     1      26.550  45.423  49.626  1.00  0.00     0.031 A 
HETATM   22  C   UNL     1      26.920  44.167  50.131  1.00  0.00     0.002 A 
HETATM   23  C   UNL     1      26.875  43.911  51.498  1.00  0.00     0.002 A 
HETATM   24  C   UNL     1      26.464  44.910  52.372  1.00  0.00     0.026 A 
HETATM   25  C   UNL     1      26.097  46.162  51.872  1.00  0.00     0.060 A 
HETATM   26 CL   UNL     1      25.605  47.374  53.008  1.00  0.00    -0.082 Cl
ENDBRANCH  17  20
ENDBRANCH  15  16
ENDBRANCH   1  15
TORSDOF 3
ENDMDL
MODEL 10
REMARK VINA RESULT:      -7.7      3.688      6.447
REMARK  3 active torsions:
REMARK  status: ('A' for Active; 'I' for Inactive)
REMARK    1  A    between atoms: C_3  and  N_4 
REMARK       I    between atoms: N_4  and  C_5 
REMARK    2  A    between atoms: C_5  and  C_6 
REMARK    3  A    between atoms: C_6  and  C_7 
ROOT
HETATM    1  C   UNL     1      27.556  43.388  52.575  1.00  0.00     0.286 C 
HETATM    2  N   UNL     1      27.085  43.356  54.026  1.00  0.00    -0.056 N 
HETATM    3  H   UNL     1      26.114  42.979  53.986  1.00  0.00     0.278 HD
HETATM    4  H   UNL     1      27.628  42.686  54.581  1.00  0.00     0.278 HD
HETATM    5  C   UNL     1      27.017  44.699  54.697  1.00  0.00     0.209 C 
HETATM    6  C   UNL     1      26.164  45.660  53.835  1.00  0.00     0.115 C 
HETATM    7  N   UNL     1      26.562  45.665  52.427  1.00  0.00    -0.353 N 
HETATM    8  C   UNL     1      26.917  44.524  51.748  1.00  0.00     0.249 C 
HETATM    9  O   UNL     1      26.823  44.479  50.526  1.00  0.00    -0.271 OA
HETATM   10  C   UNL     1      28.430  45.223  54.968  1.00  0.00     0.035 C 
HETATM   11  C   UNL     1      28.387  46.625  55.569  1.00  0.00     0.002 C 
HETATM   12  C   UNL     1      27.597  47.586  54.686  1.00  0.00     0.002 C 
HETATM   13  C   UNL     1      26.181  47.076  54.419  1.00  0.00     0.027 C 
HETATM   14  H   UNL     1      26.115  46.347  51.816  1.00  0.00     0.163 HD
ENDROOT
BRANCH   1  15
HETATM   15  C   UNL     1      27.360  42.021  51.903  1.00  0.00     0.146 C 
BRANCH  15  16
HETATM   16  C   UNL     1      28.417  41.047  52.351  1.00  0.00     0.224 C 
HETATM   17  N   UNL     1      28.862  40.036  51.566  1.00  0.00    -0.326 N 
HETATM   18  H   UNL     1      29.491  39.408  52.067  1.00  0.00     0.169 HD
HETATM   19  O   UNL     1      28.928  41.212  53.468  1.00  0.00    -0.273 OA
BRANCH  17  20
HETATM   20  C   UNL     1      28.657  39.656  50.218  1.00  0.00     0.056 A 
HETATM   21  C   UNL     1      28.113  40.481  49.230  1.00  0.00     0.031 A 
HETATM   22  C   UNL     1      27.981  40.024  47.910  1.00  0.00     0.002 A 
HETATM   23  C   UNL     1      28.393  38.742  47.558  1.00  0.00     0.002 A 
HETATM   24  C   UNL     1      28.946  37.908  48.523  1.00  0.00     0.026 A 
HETATM   25  C   UNL     1      29.081  38.362  49.837  1.00  0.00     0.060 A 
HETATM   26 CL   UNL     1      29.788  37.285  50.996  1.00  0.00    -0.082 Cl
ENDBRANCH  17  20
ENDBRANCH  15  16
ENDBRANCH   1  15
TORSDOF 3
ENDMDL
