MODEL 1
REMARK VINA RESULT:      -8.2      0.000      0.000
REMARK  7 active torsions:
REMARK  status: ('A' for Active; 'I' for Inactive)
REMARK    1  A    between atoms: O_2  and  C_3 
REMARK    2  A    between atoms: C_4  and  O_5 
REMARK    3  A    between atoms: C_9  and  C_10 
REMARK    4  A    between atoms: C_10  and  N_11 
REMARK    5  A    between atoms: C_14  and  C_15 
REMARK    6  A    between atoms: C_15  and  N_16 
REMARK    7  A    between atoms: N_16  and  C_17 
ROOT
HETATM    1  N   UNL     1      26.114  46.176  51.942  1.00  0.00    -0.067 N 
HETATM    2  H   UNL     1      26.788  46.746  51.409  1.00  0.00     0.280 HD
HETATM    3  C   UNL     1      26.795  44.855  52.252  1.00  0.00     0.241 C 
HETATM    4  C   UNL     1      26.683  44.706  53.769  1.00  0.00     0.031 C 
HETATM    5  C   UNL     1      26.760  46.153  54.243  1.00  0.00     0.035 C 
HETATM    6  C   UNL     1      25.865  46.884  53.255  1.00  0.00     0.235 C 
ENDROOT
BRANCH   1   7
HETATM    7  C   UNL     1      24.881  46.084  51.071  1.00  0.00     0.273 C 
BRANCH   7   8
HETATM    8  C   UNL     1      24.769  47.227  50.096  1.00  0.00    -0.028 A 
HETATM    9  C   UNL     1      23.515  47.585  49.573  1.00  0.00     0.031 A 
HETATM   10  C   UNL     1      23.397  48.671  48.702  1.00  0.00     0.047 A 
HETATM   11  C   UNL     1      24.530  49.399  48.345  1.00  0.00     0.116 A 
HETATM   12 BR   UNL     1      21.676  49.116  48.048  1.00  0.00    -0.048 Br
HETATM   13  C   UNL     1      25.792  49.046  48.837  1.00  0.00     0.103 A 
HETATM   14  C   UNL     1      25.908  47.961  49.711  1.00  0.00     0.048 A 
BRANCH  11  15
HETATM   15  O   UNL     1      24.420  50.472  47.501  1.00  0.00    -0.357 OA
HETATM   16  H   UNL     1      24.650  50.153  46.606  1.00  0.00     0.218 HD
ENDBRANCH  11  15
BRANCH  13  17
HETATM   17  O   UNL     1      26.820  49.844  48.410  1.00  0.00    -0.353 OA
HETATM   18  C   UNL     1      28.053  49.770  49.115  1.00  0.00     0.210 C 
ENDBRANCH  13  17
ENDBRANCH   7   8
ENDBRANCH   1   7
BRANCH   4  19
HETATM   19  C   UNL     1      27.765  43.783  54.342  1.00  0.00     0.127 C 
BRANCH  19  20
HETATM   20  N   UNL     1      29.061  44.458  54.397  1.00  0.00    -0.376 N 
HETATM   21  H   UNL     1      29.467  44.750  53.516  1.00  0.00     0.161 HD
BRANCH  20  22
HETATM   22  C   UNL     1      29.871  44.388  55.514  1.00  0.00     0.100 A 
HETATM   23  N   UNL     1      29.773  45.368  56.433  1.00  0.00    -0.353 N 
HETATM   24  H   UNL     1      29.111  46.117  56.263  1.00  0.00     0.166 HD
HETATM   25  C   UNL     1      30.487  45.404  57.569  1.00  0.00     0.089 A 
HETATM   26  C   UNL     1      31.386  44.393  57.859  1.00  0.00     0.017 A 
HETATM   27  C   UNL     1      31.525  43.349  56.958  1.00  0.00     0.005 A 
HETATM   28  C   UNL     1      30.765  43.343  55.787  1.00  0.00     0.048 A 
ENDBRANCH  20  22
ENDBRANCH  19  20
ENDBRANCH   4  19
TORSDOF 7
ENDMDL
MODEL 2
REMARK VINA RESULT:      -7.9      4.323      8.361
REMARK  7 active torsions:
REMARK  status: ('A' for Active; 'I' for Inactive)
REMARK    1  A    between atoms: O_2  and  C_3 
REMARK    2  A    between atoms: C_4  and  O_5 
REMARK    3  A    between atoms: C_9  and  C_10 
REMARK    4  A    between atoms: C_10  and  N_11 
REMARK    5  A    between atoms: C_14  and  C_15 
REMARK    6  A    between atoms: C_15  and  N_16 
REMARK    7  A    between atoms: N_16  and  C_17 
ROOT
HETATM    1  N   UNL     1      27.441  44.192  51.705  1.00  0.00    -0.067 N 
HETATM    2  H   UNL     1      28.276  44.795  51.647  1.00  0.00     0.280 HD
HETATM    3  C   UNL     1      26.235  45.109  51.791  1.00  0.00     0.241 C 
HETATM    4  C   UNL     1      25.321  44.656  50.653  1.00  0.00     0.031 C 
HETATM    5  C   UNL     1      26.321  44.205  49.594  1.00  0.00     0.035 C 
HETATM    6  C   UNL     1      27.346  43.427  50.404  1.00  0.00     0.235 C 
ENDROOT
BRANCH   1   7
HETATM    7  C   UNL     1      27.668  43.300  52.905  1.00  0.00     0.273 C 
BRANCH   7   8
HETATM    8  C   UNL     1      28.285  44.031  54.068  1.00  0.00    -0.028 A 
HETATM    9  C   UNL     1      29.428  43.513  54.700  1.00  0.00     0.031 A 
HETATM   10  C   UNL     1      30.031  44.207  55.752  1.00  0.00     0.047 A 
HETATM   11  C   UNL     1      29.493  45.419  56.180  1.00  0.00     0.116 A 
HETATM   12 BR   UNL     1      31.581  43.465  56.547  1.00  0.00    -0.048 Br
HETATM   13  C   UNL     1      28.343  45.944  55.579  1.00  0.00     0.103 A 
HETATM   14  C   UNL     1      27.742  45.249  54.525  1.00  0.00     0.048 A 
BRANCH  11  15
HETATM   15  O   UNL     1      30.086  46.112  57.201  1.00  0.00    -0.357 OA
HETATM   16  H   UNL     1      30.396  45.449  57.850  1.00  0.00     0.218 HD
ENDBRANCH  11  15
BRANCH  13  17
HETATM   17  O   UNL     1      27.920  47.141  56.093  1.00  0.00    -0.353 OA
HETATM   18  C   UNL     1      26.991  47.899  55.328  1.00  0.00     0.210 C 
ENDBRANCH  13  17
ENDBRANCH   7   8
ENDBRANCH   1   7
BRANCH   4  19
HETATM   19  C   UNL     1      24.364  45.766  50.202  1.00  0.00     0.127 C 
BRANCH  19  20
HETATM   20  N   UNL     1      24.801  47.072  50.693  1.00  0.00    -0.376 N 
HETATM   21  H   UNL     1      24.427  47.380  51.583  1.00  0.00     0.161 HD
BRANCH  20  22
HETATM   22  C   UNL     1      25.388  48.005  49.858  1.00  0.00     0.100 A 
HETATM   23  N   UNL     1      24.582  48.801  49.129  1.00  0.00    -0.353 N 
HETATM   24  H   UNL     1      23.580  48.680  49.223  1.00  0.00     0.166 HD
HETATM   25  C   UNL     1      25.027  49.759  48.300  1.00  0.00     0.089 A 
HETATM   26  C   UNL     1      26.385  49.980  48.156  1.00  0.00     0.017 A 
HETATM   27  C   UNL     1      27.266  49.199  48.887  1.00  0.00     0.005 A 
HETATM   28  C   UNL     1      26.769  48.214  49.742  1.00  0.00     0.048 A 
ENDBRANCH  20  22
ENDBRANCH  19  20
ENDBRANCH   4  19
TORSDOF 7
ENDMDL
MODEL 3
REMARK VINA RESULT:      -7.9      1.706      2.669
REMARK  7 active torsions:
REMARK  status: ('A' for Active; 'I' for Inactive)
REMARK    1  A    between atoms: O_2  and  C_3 
REMARK    2  A    between atoms: C_4  and  O_5 
REMARK    3  A    between atoms: C_9  and  C_10 
REMARK    4  A    between atoms: C_10  and  N_11 
REMARK    5  A    between atoms: C_14  and  C_15 
REMARK    6  A    between atoms: C_15  and  N_16 
REMARK    7  A    between atoms: N_16  and  C_17 
ROOT
HETATM    1  N   UNL     1      25.703  45.156  52.369  1.00  0.00    -0.067 N 
HETATM    2  H   UNL     1      24.691  45.314  52.490  1.00  0.00     0.280 HD
HETATM    3  C   UNL     1      26.420  46.214  53.188  1.00  0.00     0.241 C 
HETATM    4  C   UNL     1      27.365  45.428  54.097  1.00  0.00     0.031 C 
HETATM    5  C   UNL     1      26.578  44.147  54.351  1.00  0.00     0.035 C 
HETATM    6  C   UNL     1      26.024  43.809  52.976  1.00  0.00     0.235 C 
ENDROOT
BRANCH   1   7
HETATM    7  C   UNL     1      25.946  45.211  50.877  1.00  0.00     0.273 C 
BRANCH   7   8
HETATM    8  C   UNL     1      25.474  46.499  50.256  1.00  0.00    -0.028 A 
HETATM    9  C   UNL     1      26.407  47.470  49.853  1.00  0.00     0.031 A 
HETATM   10  C   UNL     1      25.980  48.649  49.237  1.00  0.00     0.047 A 
HETATM   11  C   UNL     1      24.620  48.866  49.026  1.00  0.00     0.116 A 
HETATM   12 BR   UNL     1      27.289  49.907  48.699  1.00  0.00    -0.048 Br
HETATM   13  C   UNL     1      23.671  47.922  49.438  1.00  0.00     0.103 A 
HETATM   14  C   UNL     1      24.101  46.742  50.051  1.00  0.00     0.048 A 
BRANCH  11  15
HETATM   15  O   UNL     1      24.195  50.013  48.410  1.00  0.00    -0.357 OA
HETATM   16  H   UNL     1      23.507  49.751  47.767  1.00  0.00     0.218 HD
ENDBRANCH  11  15
BRANCH  13  17
HETATM   17  O   UNL     1      22.371  48.258  49.169  1.00  0.00    -0.353 OA
HETATM   18  C   UNL     1      21.636  47.412  48.292  1.00  0.00     0.210 C 
ENDBRANCH  13  17
ENDBRANCH   7   8
ENDBRANCH   1   7
BRANCH   4  19
HETATM   19  C   UNL     1      27.740  46.213  55.359  1.00  0.00     0.127 C 
BRANCH  19  20
HETATM   20  N   UNL     1      29.190  46.368  55.473  1.00  0.00    -0.376 N 
HETATM   21  H   UNL     1      29.631  47.045  54.862  1.00  0.00     0.161 HD
BRANCH  20  22
HETATM   22  C   UNL     1      29.977  45.415  56.093  1.00  0.00     0.100 A 
HETATM   23  N   UNL     1      30.334  45.623  57.375  1.00  0.00    -0.353 N 
HETATM   24  H   UNL     1      30.012  46.470  57.829  1.00  0.00     0.166 HD
HETATM   25  C   UNL     1      31.076  44.765  58.094  1.00  0.00     0.089 A 
HETATM   26  C   UNL     1      31.519  43.583  57.528  1.00  0.00     0.017 A 
HETATM   27  C   UNL     1      31.175  43.307  56.214  1.00  0.00     0.005 A 
HETATM   28  C   UNL     1      30.401  44.220  55.496  1.00  0.00     0.048 A 
ENDBRANCH  20  22
ENDBRANCH  19  20
ENDBRANCH   4  19
TORSDOF 7
ENDMDL
MODEL 4
REMARK VINA RESULT:      -7.9      4.606      9.479
REMARK  7 active torsions:
REMARK  status: ('A' for Active; 'I' for Inactive)
REMARK    1  A    between atoms: O_2  and  C_3 
REMARK    2  A    between atoms: C_4  and  O_5 
REMARK    3  A    between atoms: C_9  and  C_10 
REMARK    4  A    between atoms: C_10  and  N_11 
REMARK    5  A    between atoms: C_14  and  C_15 
REMARK    6  A    between atoms: C_15  and  N_16 
REMARK    7  A    between atoms: N_16  and  C_17 
ROOT
HETATM    1  N   UNL     1      26.413  45.808  52.591  1.00  0.00    -0.067 N 
HETATM    2  H   UNL     1      27.252  45.307  52.260  1.00  0.00     0.280 HD
HETATM    3  C   UNL     1      26.170  46.954  51.626  1.00  0.00     0.241 C 
HETATM    4  C   UNL     1      24.724  46.774  51.165  1.00  0.00     0.031 C 
HETATM    5  C   UNL     1      24.567  45.257  51.177  1.00  0.00     0.035 C 
HETATM    6  C   UNL     1      25.245  44.854  52.476  1.00  0.00     0.235 C 
ENDROOT
BRANCH   1   7
HETATM    7  C   UNL     1      26.717  46.209  54.018  1.00  0.00     0.273 C 
BRANCH   7   8
HETATM    8  C   UNL     1      27.945  45.531  54.566  1.00  0.00    -0.028 A 
HETATM    9  C   UNL     1      28.510  45.969  55.775  1.00  0.00     0.031 A 
HETATM   10  C   UNL     1      29.623  45.318  56.313  1.00  0.00     0.047 A 
HETATM   11  C   UNL     1      30.180  44.231  55.642  1.00  0.00     0.116 A 
HETATM   12 BR   UNL     1      30.325  45.944  57.956  1.00  0.00    -0.048 Br
HETATM   13  C   UNL     1      29.645  43.790  54.425  1.00  0.00     0.103 A 
HETATM   14  C   UNL     1      28.530  44.441  53.891  1.00  0.00     0.048 A 
BRANCH  11  15
HETATM   15  O   UNL     1      31.263  43.579  56.169  1.00  0.00    -0.357 OA
HETATM   16  H   UNL     1      31.986  44.234  56.228  1.00  0.00     0.218 HD
ENDBRANCH  11  15
BRANCH  13  17
HETATM   17  O   UNL     1      30.285  42.712  53.873  1.00  0.00    -0.353 OA
HETATM   18  C   UNL     1      29.569  41.934  52.920  1.00  0.00     0.210 C 
ENDBRANCH  13  17
ENDBRANCH   7   8
ENDBRANCH   1   7
BRANCH   4  19
HETATM   19  C   UNL     1      24.462  47.437  49.809  1.00  0.00     0.127 C 
BRANCH  19  20
HETATM   20  N   UNL     1      23.028  47.542  49.539  1.00  0.00    -0.376 N 
HETATM   21  H   UNL     1      22.541  46.688  49.293  1.00  0.00     0.161 HD
BRANCH  20  22
HETATM   22  C   UNL     1      22.425  48.756  49.269  1.00  0.00     0.100 A 
HETATM   23  N   UNL     1      21.132  48.913  49.611  1.00  0.00    -0.353 N 
HETATM   24  H   UNL     1      20.656  48.133  50.051  1.00  0.00     0.166 HD
HETATM   25  C   UNL     1      20.440  50.048  49.423  1.00  0.00     0.089 A 
HETATM   26  C   UNL     1      21.051  51.150  48.851  1.00  0.00     0.017 A 
HETATM   27  C   UNL     1      22.384  51.054  48.486  1.00  0.00     0.005 A 
HETATM   28  C   UNL     1      23.075  49.860  48.698  1.00  0.00     0.048 A 
ENDBRANCH  20  22
ENDBRANCH  19  20
ENDBRANCH   4  19
TORSDOF 7
ENDMDL
MODEL 5
REMARK VINA RESULT:      -7.7      4.574      9.439
REMARK  7 active torsions:
REMARK  status: ('A' for Active; 'I' for Inactive)
REMARK    1  A    between atoms: O_2  and  C_3 
REMARK    2  A    between atoms: C_4  and  O_5 
REMARK    3  A    between atoms: C_9  and  C_10 
REMARK    4  A    between atoms: C_10  and  N_11 
REMARK    5  A    between atoms: C_14  and  C_15 
REMARK    6  A    between atoms: C_15  and  N_16 
REMARK    7  A    between atoms: N_16  and  C_17 
ROOT
HETATM    1  N   UNL     1      25.606  48.169  49.796  1.00  0.00    -0.067 N 
HETATM    2  H   UNL     1      25.808  48.487  50.756  1.00  0.00     0.280 HD
HETATM    3  C   UNL     1      24.202  48.639  49.459  1.00  0.00     0.241 C 
HETATM    4  C   UNL     1      24.358  49.423  48.156  1.00  0.00     0.031 C 
HETATM    5  C   UNL     1      25.745  50.036  48.310  1.00  0.00     0.035 C 
HETATM    6  C   UNL     1      26.565  48.886  48.873  1.00  0.00     0.235 C 
ENDROOT
BRANCH   1   7
HETATM    7  C   UNL     1      25.804  46.670  49.816  1.00  0.00     0.273 C 
BRANCH   7   8
HETATM    8  C   UNL     1      26.122  46.141  51.189  1.00  0.00    -0.028 A 
HETATM    9  C   UNL     1      26.836  44.939  51.333  1.00  0.00     0.031 A 
HETATM   10  C   UNL     1      27.173  44.464  52.604  1.00  0.00     0.047 A 
HETATM   11  C   UNL     1      26.792  45.183  53.735  1.00  0.00     0.116 A 
HETATM   12 BR   UNL     1      28.154  42.850  52.729  1.00  0.00    -0.048 Br
HETATM   13  C   UNL     1      26.061  46.372  53.616  1.00  0.00     0.103 A 
HETATM   14  C   UNL     1      25.729  46.847  52.343  1.00  0.00     0.048 A 
BRANCH  11  15
HETATM   15  O   UNL     1      27.128  44.730  54.982  1.00  0.00    -0.357 OA
HETATM   16  H   UNL     1      27.772  45.367  55.350  1.00  0.00     0.218 HD
ENDBRANCH  11  15
BRANCH  13  17
HETATM   17  O   UNL     1      25.753  46.979  54.804  1.00  0.00    -0.353 OA
HETATM   18  C   UNL     1      26.505  48.128  55.175  1.00  0.00     0.210 C 
ENDBRANCH  13  17
ENDBRANCH   7   8
ENDBRANCH   1   7
BRANCH   4  19
HETATM   19  C   UNL     1      23.226  50.436  47.952  1.00  0.00     0.127 C 
BRANCH  19  20
HETATM   20  N   UNL     1      22.589  50.781  49.222  1.00  0.00    -0.376 N 
HETATM   21  H   UNL     1      23.152  50.691  50.060  1.00  0.00     0.161 HD
BRANCH  20  22
HETATM   22  C   UNL     1      21.215  50.870  49.347  1.00  0.00     0.100 A 
HETATM   23  N   UNL     1      20.609  50.092  50.264  1.00  0.00    -0.353 N 
HETATM   24  H   UNL     1      21.186  49.471  50.821  1.00  0.00     0.166 HD
HETATM   25  C   UNL     1      19.287  50.101  50.498  1.00  0.00     0.089 A 
HETATM   26  C   UNL     1      18.459  50.948  49.782  1.00  0.00     0.017 A 
HETATM   27  C   UNL     1      19.025  51.782  48.831  1.00  0.00     0.005 A 
HETATM   28  C   UNL     1      20.403  51.748  48.615  1.00  0.00     0.048 A 
ENDBRANCH  20  22
ENDBRANCH  19  20
ENDBRANCH   4  19
TORSDOF 7
ENDMDL
MODEL 6
REMARK VINA RESULT:      -7.6      4.350      8.905
REMARK  7 active torsions:
REMARK  status: ('A' for Active; 'I' for Inactive)
REMARK    1  A    between atoms: O_2  and  C_3 
REMARK    2  A    between atoms: C_4  and  O_5 
REMARK    3  A    between atoms: C_9  and  C_10 
REMARK    4  A    between atoms: C_10  and  N_11 
REMARK    5  A    between atoms: C_14  and  C_15 
REMARK    6  A    between atoms: C_15  and  N_16 
REMARK    7  A    between atoms: N_16  and  C_17 
ROOT
HETATM    1  N   UNL     1      26.332  44.624  51.432  1.00  0.00    -0.067 N 
HETATM    2  H   UNL     1      27.161  45.237  51.468  1.00  0.00     0.280 HD
HETATM    3  C   UNL     1      25.120  45.524  51.269  1.00  0.00     0.241 C 
HETATM    4  C   UNL     1      24.400  44.987  50.033  1.00  0.00     0.031 C 
HETATM    5  C   UNL     1      25.558  44.489  49.175  1.00  0.00     0.035 C 
HETATM    6  C   UNL     1      26.449  43.780  50.183  1.00  0.00     0.235 C 
ENDROOT
BRANCH   1   7
HETATM    7  C   UNL     1      26.374  43.812  52.707  1.00  0.00     0.273 C 
BRANCH   7   8
HETATM    8  C   UNL     1      27.263  44.421  53.759  1.00  0.00    -0.028 A 
HETATM    9  C   UNL     1      28.422  43.747  54.177  1.00  0.00     0.031 A 
HETATM   10  C   UNL     1      29.275  44.325  55.121  1.00  0.00     0.047 A 
HETATM   11  C   UNL     1      28.970  45.575  55.655  1.00  0.00     0.116 A 
HETATM   12 BR   UNL     1      30.833  43.375  55.627  1.00  0.00    -0.048 Br
HETATM   13  C   UNL     1      27.809  46.256  55.269  1.00  0.00     0.103 A 
HETATM   14  C   UNL     1      26.959  45.676  54.322  1.00  0.00     0.048 A 
BRANCH  11  15
HETATM   15  O   UNL     1      29.808  46.154  56.571  1.00  0.00    -0.357 OA
HETATM   16  H   UNL     1      29.498  45.873  57.455  1.00  0.00     0.218 HD
ENDBRANCH  11  15
BRANCH  13  17
HETATM   17  O   UNL     1      27.630  47.474  55.868  1.00  0.00    -0.353 OA
HETATM   18  C   UNL     1      26.505  48.249  55.469  1.00  0.00     0.210 C 
ENDBRANCH  13  17
ENDBRANCH   7   8
ENDBRANCH   1   7
BRANCH   4  19
HETATM   19  C   UNL     1      23.519  46.050  49.368  1.00  0.00     0.127 C 
BRANCH  19  20
HETATM   20  N   UNL     1      23.834  47.387  49.870  1.00  0.00    -0.376 N 
HETATM   21  H   UNL     1      24.285  47.446  50.775  1.00  0.00     0.161 HD
BRANCH  20  22
HETATM   22  C   UNL     1      23.241  48.520  49.345  1.00  0.00     0.100 A 
HETATM   23  N   UNL     1      21.919  48.692  49.537  1.00  0.00    -0.353 N 
HETATM   24  H   UNL     1      21.415  47.981  50.056  1.00  0.00     0.166 HD
HETATM   25  C   UNL     1      21.230  49.758  49.098  1.00  0.00     0.089 A 
HETATM   26  C   UNL     1      21.876  50.767  48.406  1.00  0.00     0.017 A 
HETATM   27  C   UNL     1      23.239  50.653  48.186  1.00  0.00     0.005 A 
HETATM   28  C   UNL     1      23.924  49.533  48.658  1.00  0.00     0.048 A 
ENDBRANCH  20  22
ENDBRANCH  19  20
ENDBRANCH   4  19
TORSDOF 7
ENDMDL
MODEL 7
REMARK VINA RESULT:      -7.6      4.417      9.401
REMARK  7 active torsions:
REMARK  status: ('A' for Active; 'I' for Inactive)
REMARK    1  A    between atoms: O_2  and  C_3 
REMARK    2  A    between atoms: C_4  and  O_5 
REMARK    3  A    between atoms: C_9  and  C_10 
REMARK    4  A    between atoms: C_10  and  N_11 
REMARK    5  A    between atoms: C_14  and  C_15 
REMARK    6  A    between atoms: C_15  and  N_16 
REMARK    7  A    between atoms: N_16  and  C_17 
ROOT
HETATM    1  N   UNL     1      25.761  45.845  51.768  1.00  0.00    -0.067 N 
HETATM    2  H   UNL     1      26.580  45.310  51.441  1.00  0.00     0.280 HD
HETATM    3  C   UNL     1      25.822  47.204  51.095  1.00  0.00     0.241 C 
HETATM    4  C   UNL     1      24.465  47.359  50.409  1.00  0.00     0.031 C 
HETATM    5  C   UNL     1      24.132  45.923  50.020  1.00  0.00     0.035 C 
HETATM    6  C   UNL     1      24.527  45.134  51.259  1.00  0.00     0.235 C 
ENDROOT
BRANCH   1   7
HETATM    7  C   UNL     1      25.862  45.859  53.277  1.00  0.00     0.273 C 
BRANCH   7   8
HETATM    8  C   UNL     1      27.057  45.099  53.789  1.00  0.00    -0.028 A 
HETATM    9  C   UNL     1      27.365  43.833  53.264  1.00  0.00     0.031 A 
HETATM   10  C   UNL     1      28.497  43.141  53.703  1.00  0.00     0.047 A 
HETATM   11  C   UNL     1      29.321  43.708  54.673  1.00  0.00     0.116 A 
HETATM   12 BR   UNL     1      28.868  41.448  52.940  1.00  0.00    -0.048 Br
HETATM   13  C   UNL     1      29.022  44.959  55.226  1.00  0.00     0.103 A 
HETATM   14  C   UNL     1      27.891  45.651  54.782  1.00  0.00     0.048 A 
BRANCH  11  15
HETATM   15  O   UNL     1      30.439  43.041  55.099  1.00  0.00    -0.357 OA
HETATM   16  H   UNL     1      30.385  42.136  54.734  1.00  0.00     0.218 HD
ENDBRANCH  11  15
BRANCH  13  17
HETATM   17  O   UNL     1      29.914  45.400  56.166  1.00  0.00    -0.353 OA
HETATM   18  C   UNL     1      29.390  45.987  57.352  1.00  0.00     0.210 C 
ENDBRANCH  13  17
ENDBRANCH   7   8
ENDBRANCH   1   7
BRANCH   4  19
HETATM   19  C   UNL     1      24.517  48.347  49.238  1.00  0.00     0.127 C 
BRANCH  19  20
HETATM   20  N   UNL     1      23.274  48.322  48.469  1.00  0.00    -0.376 N 
HETATM   21  H   UNL     1      23.293  47.841  47.577  1.00  0.00     0.161 HD
BRANCH  20  22
HETATM   22  C   UNL     1      22.235  49.194  48.735  1.00  0.00     0.100 A 
HETATM   23  N   UNL     1      21.214  48.752  49.494  1.00  0.00    -0.353 N 
HETATM   24  H   UNL     1      21.250  47.797  49.835  1.00  0.00     0.166 HD
HETATM   25  C   UNL     1      20.159  49.505  49.843  1.00  0.00     0.089 A 
HETATM   26  C   UNL     1      20.074  50.822  49.424  1.00  0.00     0.017 A 
HETATM   27  C   UNL     1      21.100  51.338  48.648  1.00  0.00     0.005 A 
HETATM   28  C   UNL     1      22.184  50.527  48.306  1.00  0.00     0.048 A 
ENDBRANCH  20  22
ENDBRANCH  19  20
ENDBRANCH   4  19
TORSDOF 7
ENDMDL
MODEL 8
REMARK VINA RESULT:      -7.5      4.594      9.501
REMARK  7 active torsions:
REMARK  status: ('A' for Active; 'I' for Inactive)
REMARK    1  A    between atoms: O_2  and  C_3 
REMARK    2  A    between atoms: C_4  and  O_5 
REMARK    3  A    between atoms: C_9  and  C_10 
REMARK    4  A    between atoms: C_10  and  N_11 
REMARK    5  A    between atoms: C_14  and  C_15 
REMARK    6  A    between atoms: C_15  and  N_16 
REMARK    7  A    between atoms: N_16  and  C_17 
ROOT
HETATM    1  N   UNL     1      25.263  48.066  49.969  1.00  0.00    -0.067 N 
HETATM    2  H   UNL     1      25.372  48.420  50.931  1.00  0.00     0.280 HD
HETATM    3  C   UNL     1      23.878  48.473  49.499  1.00  0.00     0.241 C 
HETATM    4  C   UNL     1      24.117  49.222  48.189  1.00  0.00     0.031 C 
HETATM    5  C   UNL     1      25.464  49.891  48.438  1.00  0.00     0.035 C 
HETATM    6  C   UNL     1      26.273  48.790  49.106  1.00  0.00     0.235 C 
ENDROOT
BRANCH   1   7
HETATM    7  C   UNL     1      25.511  46.576  50.055  1.00  0.00     0.273 C 
BRANCH   7   8
HETATM    8  C   UNL     1      26.052  46.151  51.394  1.00  0.00    -0.028 A 
HETATM    9  C   UNL     1      26.075  47.059  52.465  1.00  0.00     0.031 A 
HETATM   10  C   UNL     1      26.535  46.660  53.722  1.00  0.00     0.047 A 
HETATM   11  C   UNL     1      26.980  45.353  53.913  1.00  0.00     0.116 A 
HETATM   12 BR   UNL     1      26.521  47.926  55.130  1.00  0.00    -0.048 Br
HETATM   13  C   UNL     1      26.986  44.437  52.854  1.00  0.00     0.103 A 
HETATM   14  C   UNL     1      26.522  44.838  51.598  1.00  0.00     0.048 A 
BRANCH  11  15
HETATM   15  O   UNL     1      27.421  44.950  55.145  1.00  0.00    -0.357 OA
HETATM   16  H   UNL     1      28.325  44.599  55.022  1.00  0.00     0.218 HD
ENDBRANCH  11  15
BRANCH  13  17
HETATM   17  O   UNL     1      27.447  43.188  53.177  1.00  0.00    -0.353 OA
HETATM   18  C   UNL     1      27.536  42.225  52.134  1.00  0.00     0.210 C 
ENDBRANCH  13  17
ENDBRANCH   7   8
ENDBRANCH   1   7
BRANCH   4  19
HETATM   19  C   UNL     1      22.972  50.187  47.857  1.00  0.00     0.127 C 
BRANCH  19  20
HETATM   20  N   UNL     1      22.438  50.810  49.067  1.00  0.00    -0.376 N 
HETATM   21  H   UNL     1      23.075  50.926  49.846  1.00  0.00     0.161 HD
BRANCH  20  22
HETATM   22  C   UNL     1      21.078  50.906  49.297  1.00  0.00     0.100 A 
HETATM   23  N   UNL     1      20.529  50.083  50.210  1.00  0.00    -0.353 N 
HETATM   24  H   UNL     1      21.136  49.426  50.688  1.00  0.00     0.166 HD
HETATM   25  C   UNL     1      19.227  50.091  50.540  1.00  0.00     0.089 A 
HETATM   26  C   UNL     1      18.361  50.986  49.935  1.00  0.00     0.017 A 
HETATM   27  C   UNL     1      18.869  51.866  48.993  1.00  0.00     0.005 A 
HETATM   28  C   UNL     1      20.227  51.831  48.676  1.00  0.00     0.048 A 
ENDBRANCH  20  22
ENDBRANCH  19  20
ENDBRANCH   4  19
TORSDOF 7
ENDMDL
MODEL 9
REMARK VINA RESULT:      -7.4      6.267      8.911
REMARK  7 active torsions:
REMARK  status: ('A' for Active; 'I' for Inactive)
REMARK    1  A    between atoms: O_2  and  C_3 
REMARK    2  A    between atoms: C_4  and  O_5 
REMARK    3  A    between atoms: C_9  and  C_10 
REMARK    4  A    between atoms: C_10  and  N_11 
REMARK    5  A    between atoms: C_14  and  C_15 
REMARK    6  A    between atoms: C_15  and  N_16 
REMARK    7  A    between atoms: N_16  and  C_17 
ROOT
HETATM    1  N   UNL     1      27.551  42.808  52.539  1.00  0.00    -0.067 N 
HETATM    2  H   UNL     1      27.158  42.742  53.490  1.00  0.00     0.280 HD
HETATM    3  C   UNL     1      27.252  41.493  51.842  1.00  0.00     0.241 C 
HETATM    4  C   UNL     1      26.535  41.892  50.552  1.00  0.00     0.031 C 
HETATM    5  C   UNL     1      25.772  43.141  50.979  1.00  0.00     0.035 C 
HETATM    6  C   UNL     1      26.794  43.897  51.813  1.00  0.00     0.235 C 
ENDROOT
BRANCH   1   7
HETATM    7  C   UNL     1      29.018  43.126  52.729  1.00  0.00     0.273 C 
BRANCH   7   8
HETATM    8  C   UNL     1      29.295  43.855  54.017  1.00  0.00    -0.028 A 
HETATM    9  C   UNL     1      30.291  43.387  54.891  1.00  0.00     0.031 A 
HETATM   10  C   UNL     1      30.584  44.082  56.067  1.00  0.00     0.047 A 
HETATM   11  C   UNL     1      29.880  45.243  56.378  1.00  0.00     0.116 A 
HETATM   12 BR   UNL     1      31.950  43.410  57.192  1.00  0.00    -0.048 Br
HETATM   13  C   UNL     1      28.869  45.717  55.532  1.00  0.00     0.103 A 
HETATM   14  C   UNL     1      28.580  45.022  54.355  1.00  0.00     0.048 A 
BRANCH  11  15
HETATM   15  O   UNL     1      30.170  45.937  57.523  1.00  0.00    -0.357 OA
HETATM   16  H   UNL     1      30.111  45.300  58.262  1.00  0.00     0.218 HD
ENDBRANCH  11  15
BRANCH  13  17
HETATM   17  O   UNL     1      28.258  46.868  55.954  1.00  0.00    -0.353 OA
HETATM   18  C   UNL     1      27.621  47.677  54.973  1.00  0.00     0.210 C 
ENDBRANCH  13  17
ENDBRANCH   7   8
ENDBRANCH   1   7
BRANCH   4  19
HETATM   19  C   UNL     1      25.660  40.760  50.003  1.00  0.00     0.127 C 
BRANCH  19  20
HETATM   20  N   UNL     1      26.225  39.450  50.326  1.00  0.00    -0.376 N 
HETATM   21  H   UNL     1      26.370  39.239  51.306  1.00  0.00     0.161 HD
BRANCH  20  22
HETATM   22  C   UNL     1      26.869  38.681  49.375  1.00  0.00     0.100 A 
HETATM   23  N   UNL     1      26.253  37.565  48.938  1.00  0.00    -0.353 N 
HETATM   24  H   UNL     1      25.345  37.337  49.327  1.00  0.00     0.166 HD
HETATM   25  C   UNL     1      26.761  36.747  48.003  1.00  0.00     0.089 A 
HETATM   26  C   UNL     1      27.986  37.028  47.422  1.00  0.00     0.017 A 
HETATM   27  C   UNL     1      28.664  38.168  47.823  1.00  0.00     0.005 A 
HETATM   28  C   UNL     1      28.105  38.998  48.796  1.00  0.00     0.048 A 
ENDBRANCH  20  22
ENDBRANCH  19  20
ENDBRANCH   4  19
TORSDOF 7
ENDMDL
MODEL 10
REMARK VINA RESULT:      -7.2      4.122      8.063
REMARK  7 active torsions:
REMARK  status: ('A' for Active; 'I' for Inactive)
REMARK    1  A    between atoms: O_2  and  C_3 
REMARK    2  A    between atoms: C_4  and  O_5 
REMARK    3  A    between atoms: C_9  and  C_10 
REMARK    4  A    between atoms: C_10  and  N_11 
REMARK    5  A    between atoms: C_14  and  C_15 
REMARK    6  A    between atoms: C_15  and  N_16 
REMARK    7  A    between atoms: N_16  and  C_17 
ROOT
HETATM    1  N   UNL     1      28.760  41.564  51.793  1.00  0.00    -0.067 N 
HETATM    2  H   UNL     1      29.734  41.850  51.607  1.00  0.00     0.280 HD
HETATM    3  C   UNL     1      27.862  42.620  51.174  1.00  0.00     0.241 C 
HETATM    4  C   UNL     1      26.920  41.840  50.257  1.00  0.00     0.031 C 
HETATM    5  C   UNL     1      27.806  40.694  49.781  1.00  0.00     0.035 C 
HETATM    6  C   UNL     1      28.523  40.267  51.052  1.00  0.00     0.235 C 
ENDROOT
BRANCH   1   7
HETATM    7  C   UNL     1      28.659  41.420  53.295  1.00  0.00     0.273 C 
BRANCH   7   8
HETATM    8  C   UNL     1      28.892  42.717  54.023  1.00  0.00    -0.028 A 
HETATM    9  C   UNL     1      27.945  43.752  53.939  1.00  0.00     0.031 A 
HETATM   10  C   UNL     1      28.133  44.942  54.646  1.00  0.00     0.047 A 
HETATM   11  C   UNL     1      29.270  45.106  55.435  1.00  0.00     0.116 A 
HETATM   12 BR   UNL     1      26.809  46.289  54.507  1.00  0.00    -0.048 Br
HETATM   13  C   UNL     1      30.237  44.097  55.516  1.00  0.00     0.103 A 
HETATM   14  C   UNL     1      30.045  42.906  54.810  1.00  0.00     0.048 A 
BRANCH  11  15
HETATM   15  O   UNL     1      29.455  46.265  56.141  1.00  0.00    -0.357 OA
HETATM   16  H   UNL     1      28.614  46.453  56.602  1.00  0.00     0.218 HD
ENDBRANCH  11  15
BRANCH  13  17
HETATM   17  O   UNL     1      31.303  44.386  56.326  1.00  0.00    -0.353 OA
HETATM   18  C   UNL     1      31.839  43.332  57.116  1.00  0.00     0.210 C 
ENDBRANCH  13  17
ENDBRANCH   7   8
ENDBRANCH   1   7
BRANCH   4  19
HETATM   19  C   UNL     1      26.344  42.716  49.139  1.00  0.00     0.127 C 
BRANCH  19  20
HETATM   20  N   UNL     1      25.259  43.562  49.635  1.00  0.00    -0.376 N 
HETATM   21  H   UNL     1      24.312  43.249  49.457  1.00  0.00     0.161 HD
BRANCH  20  22
HETATM   22  C   UNL     1      25.471  44.879  49.996  1.00  0.00     0.100 A 
HETATM   23  N   UNL     1      26.524  45.524  49.458  1.00  0.00    -0.353 N 
HETATM   24  H   UNL     1      27.118  45.014  48.813  1.00  0.00     0.166 HD
HETATM   25  C   UNL     1      26.824  46.808  49.709  1.00  0.00     0.089 A 
HETATM   26  C   UNL     1      26.030  47.555  50.562  1.00  0.00     0.017 A 
HETATM   27  C   UNL     1      24.925  46.950  51.139  1.00  0.00     0.005 A 
HETATM   28  C   UNL     1      24.641  45.614  50.854  1.00  0.00     0.048 A 
ENDBRANCH  20  22
ENDBRANCH  19  20
ENDBRANCH   4  19
TORSDOF 7
ENDMDL
